REMARK  Name = ZINC45691802
REMARK  4 active torsions:
REMARK  status: ('A' for Active; 'I' for Inactive)
REMARK    1  A    between atoms: C_3  and  C_6
REMARK    2  A    between atoms: C_6  and  N_7
REMARK    3  A    between atoms: N_16  and  C_17
REMARK    4  A    between atoms: C_21  and  C_23
REMARK                            x       y       z     vdW  Elec       q    Type
REMARK                         _______ _______ _______ _____ _____    ______ ____
ROOT
ATOM      1  N   UNL     1       3.543   1.429   1.513  0.00  0.00    +0.384 N 
ATOM      2  C   UNL     1       4.714   1.921   0.790  0.00  0.00    -0.077 C 
ATOM      3  C   UNL     1       5.355   3.039   1.582  0.00  0.00    +0.000 C 
ATOM      4  C   UNL     1       6.466   2.461   2.478  0.00  0.00    +0.107 C 
ATOM      5  N   UNL     1       6.056   1.169   3.064  0.00  0.00    -0.287 N 
ATOM      6  C   UNL     1       4.722   0.939   3.579  0.00  0.00    +0.091 C 
ATOM      7  C   UNL     1       3.809   0.406   2.450  0.00  0.00    -0.059 C 
ATOM      8  C   UNL     1       6.956   0.167   3.123  0.00  0.00    +0.306 C 
ATOM      9  O   UNL     1       8.055   0.306   2.621  0.00  0.00    -0.252 OA
ATOM     10  N   UNL     1       6.638  -0.990   3.738  0.00  0.00    -0.269 N 
ATOM     11  H   UNL     1       5.731  -1.142   4.046  0.00  0.00    +0.156 HD
ATOM     12  H   UNL     1       3.122   2.206   2.000  0.00  0.00    -0.081 HD
ENDROOT
BRANCH  10  13
ATOM     13  C   UNL     1       7.618  -1.972   3.932  0.00  0.00    +0.036 A 
ATOM     14  C   UNL     1       8.936  -1.600   4.170  0.00  0.00    +0.026 A 
ATOM     15  C   UNL     1       9.908  -2.563   4.362  0.00  0.00    +0.041 A 
ATOM     16  C   UNL     1       9.575  -3.905   4.320  0.00  0.00    +0.136 A 
ATOM     17  C   UNL     1       8.251  -4.288   4.082  0.00  0.00    +0.073 A 
ATOM     18  C   UNL     1       7.271  -3.312   3.893  0.00  0.00    +0.039 A 
ATOM     19  F   UNL     1      10.527  -4.844   4.509  0.00  0.00    -0.205 F 
BRANCH  17  20
ATOM     20  C   UNL     1       7.891  -5.720   4.035  0.00  0.00    +0.244 C 
ATOM     21  O   UNL     1       8.745  -6.567   4.204  0.00  0.00    -0.270 OA
ATOM     22  N   UNL     1       6.614  -6.086   3.805  0.00  0.00    -0.325 N 
ATOM     23  H   UNL     1       5.932  -5.409   3.670  0.00  0.00    +0.145 HD
ATOM     24  H   UNL     1       6.377  -7.026   3.775  0.00  0.00    +0.145 HD
ENDBRANCH  17  20
ENDBRANCH  10  13
BRANCH   1  25
ATOM     25  C   UNL     1       2.575   0.919   0.533  0.00  0.00    -0.036 C 
BRANCH  25  28
ATOM     26  C   UNL     1      -0.907   0.992   2.077  0.00  0.00    +0.008 A 
ATOM     27  C   UNL     1       0.206   1.468   1.409  0.00  0.00    +0.009 A 
ATOM     28  C   UNL     1       1.263   0.641   1.221  0.00  0.00    -0.027 A 
ATOM     29  S   UNL     1       0.698  -0.863   1.999  0.00  0.00    -0.103 S 
ATOM     30  C   UNL     1      -0.909  -0.288   2.523  0.00  0.00    +0.045 A 
ENDBRANCH  25  28
ENDBRANCH   1  25
TORSDOF 4
