REMARK  Name = ZINC63351043
REMARK  6 active torsions:
REMARK  status: ('A' for Active; 'I' for Inactive)
REMARK    1  A    between atoms: C_1  and  O_2
REMARK    2  A    between atoms: O_2  and  C_3
REMARK    3  A    between atoms: C_3  and  C_5
REMARK    4  A    between atoms: C_20  and  C_22
REMARK    5  A    between atoms: C_22  and  O_23
REMARK    6  A    between atoms: O_23  and  C_24
REMARK                            x       y       z     vdW  Elec       q    Type
REMARK                         _______ _______ _______ _____ _____    ______ ____
ROOT
ATOM      1  C   UNL     1       0.679  -2.115   1.088  0.00  0.00    +0.189 C 
ATOM      2  C   UNL     1      -0.659  -2.662   1.619  0.00  0.00    +0.067 C 
ATOM      3  C   UNL     1      -0.684  -2.383   3.101  0.00  0.00    -0.035 C 
ATOM      4  C   UNL     1      -1.590  -1.788   3.867  0.00  0.00    -0.001 A 
ATOM      5  C   UNL     1      -2.941  -1.283   3.575  0.00  0.00    +0.010 A 
ATOM      6  C   UNL     1      -3.600  -0.699   4.610  0.00  0.00    +0.001 A 
ATOM      7  C   UNL     1      -3.057  -0.568   5.892  0.00  0.00    +0.002 A 
ATOM      8  C   UNL     1      -1.825  -1.011   6.252  0.00  0.00    +0.026 A 
ATOM      9  C   UNL     1      -1.039  -1.651   5.250  0.00  0.00    +0.043 A 
ATOM     10  N   UNL     1       0.145  -2.182   5.322  0.00  0.00    -0.376 N 
ATOM     11  C   UNL     1       0.467  -2.772   4.022  0.00  0.00    +0.124 C 
ATOM     12  C   UNL     1       1.735  -2.167   3.412  0.00  0.00    +0.137 C 
ATOM     13  N   UNL     1       1.764  -2.526   1.985  0.00  0.00    -0.283 N 
ATOM     14  C   UNL     1       2.798  -3.240   1.498  0.00  0.00    +0.254 C 
ATOM     15  O   UNL     1       2.827  -3.540   0.323  0.00  0.00    -0.272 OA
ATOM     16  H   UNL     1       0.719  -2.186   6.104  0.00  0.00    +0.160 HD
ENDROOT
BRANCH   1  17
ATOM     17  C   UNL     1       0.618  -0.611   1.029  0.00  0.00    +0.328 C 
ATOM     18  O   UNL     1       1.124   0.049   1.905  0.00  0.00    -0.249 OA
BRANCH  17  20
ATOM     19  C   UNL     1      -0.017   1.425   0.010  0.00  0.00    +0.280 C 
ATOM     20  O   UNL     1       0.002  -0.004   0.002  0.00  0.00    -0.467 OA
ENDBRANCH  17  20
ENDBRANCH   1  17
BRANCH  14  21
ATOM     21  C   UNL     1       3.917  -3.666   2.413  0.00  0.00    +0.324 C 
BRANCH  21  22
ATOM     22  O   UNL     1       4.886  -4.405   1.667  0.00  0.00    -0.481 OA
BRANCH  22  23
ATOM     23  C   UNL     1       5.967  -4.865   2.347  0.00  0.00    +0.143 A 
ATOM     24  C   UNL     1       6.084  -4.613   3.704  0.00  0.00    +0.094 A 
ATOM     25  C   UNL     1       7.187  -5.083   4.399  0.00  0.00    +0.143 A 
ATOM     26  C   UNL     1       8.177  -5.811   3.716  0.00  0.00    +0.023 A 
ATOM     27  C   UNL     1       8.045  -6.059   2.345  0.00  0.00    +0.035 A 
ATOM     28  C   UNL     1       6.949  -5.593   1.676  0.00  0.00    +0.083 A 
ATOM     29 CL   UNL     1       6.779  -5.905  -0.024  0.00  0.00    -0.080 Cl
ATOM     30  C   UNL     1       9.345  -6.305   4.458  0.00  0.00    -0.027 A 
ATOM     31  C   UNL     1       9.424  -6.037   5.779  0.00  0.00    +0.041 A 
ATOM     32  C   UNL     1       8.384  -5.305   6.404  0.00  0.00    +0.341 A 
ATOM     33  O   UNL     1       8.457  -5.080   7.598  0.00  0.00    -0.245 OA
ATOM     34  O   UNL     1       7.323  -4.852   5.722  0.00  0.00    -0.422 OA
ATOM     35  C   UNL     1      10.586  -6.478   6.629  0.00  0.00    +0.042 C 
ATOM     36  C   UNL     1      11.369  -7.592   5.937  0.00  0.00    +0.005 C 
ATOM     37  C   UNL     1      11.694  -7.138   4.508  0.00  0.00    +0.005 C 
ATOM     38  C   UNL     1      10.390  -7.088   3.713  0.00  0.00    +0.036 C 
ENDBRANCH  22  23
ENDBRANCH  21  22
ENDBRANCH  14  21
TORSDOF 5
