REMARK  Name = ZINC16624407
REMARK  18 active torsions:
REMARK  status: ('A' for Active; 'I' for Inactive)
REMARK    1  A    between atoms: C_1  and  C_2
REMARK    2  A    between atoms: C_2  and  C_3
REMARK    3  A    between atoms: C_3  and  C_4
REMARK    4  A    between atoms: C_4  and  N_5
REMARK    5  A    between atoms: N_5  and  C_6
REMARK    6  A    between atoms: C_7  and  N_19
REMARK    7  A    between atoms: N_8  and  C_15
REMARK    8  A    between atoms: C_15  and  C_16
REMARK    9  A    between atoms: C_16  and  C_17
REMARK   10  A    between atoms: C_16  and  C_18
REMARK   11  A    between atoms: C_20  and  C_22
REMARK   12  A    between atoms: C_22  and  N_73
REMARK   13  A    between atoms: C_23  and  N_73
REMARK   14  A    between atoms: C_24  and  C_25
REMARK   15  A    between atoms: C_24  and  N_73
REMARK   16  A    between atoms: N_27  and  C_28
REMARK   17  A    between atoms: C_29  and  C_35
REMARK   18  A    between atoms: C_33  and  C_34
REMARK                            x       y       z     vdW  Elec       q    Type
REMARK                         _______ _______ _______ _____ _____    ______ ____
ROOT
ATOM      1  N   UNL     1      -2.911  -6.502   1.071  0.00  0.00    -0.266 N 
ATOM      2  C   UNL     1      -2.820  -5.178   0.828  0.00  0.00    +0.203 C 
ATOM      3  O   UNL     1      -3.810  -4.480   0.894  0.00  0.00    -0.277 OA
ENDROOT
BRANCH   1   4
ATOM      4  C   UNL     1      -4.173  -7.095   1.290  0.00  0.00    +0.140 A 
ATOM      5  C   UNL     1      -4.926  -6.752   2.393  0.00  0.00    +0.127 A 
ATOM      6  N   UNL     1      -6.153  -7.346   2.579  0.00  0.00    -0.280 N 
ATOM      7  C   UNL     1      -6.612  -8.251   1.695  0.00  0.00    +0.331 A 
ATOM      8  O   UNL     1      -7.699  -8.765   1.878  0.00  0.00    -0.246 OA
ATOM      9  N   UNL     1      -5.891  -8.596   0.614  0.00  0.00    -0.273 N 
ATOM     10  H   UNL     1      -6.254  -9.274  -0.025  0.00  0.00    +0.173 HD
ATOM     11  C   UNL     1      -4.686  -8.040   0.383  0.00  0.00    +0.277 A 
ATOM     12  O   UNL     1      -4.043  -8.357  -0.603  0.00  0.00    -0.266 OA
BRANCH   5  13
ATOM     13  N   UNL     1      -4.457  -5.829   3.297  0.00  0.00    -0.343 N 
ATOM     14  H   UNL     1      -3.615  -5.376   3.134  0.00  0.00    +0.144 HD
ATOM     15  H   UNL     1      -4.968  -5.630   4.097  0.00  0.00    +0.144 HD
ENDBRANCH   5  13
BRANCH   6  16
ATOM     16  C   UNL     1      -6.965  -6.992   3.747  0.00  0.00    +0.131 C 
BRANCH  16  17
ATOM     17  C   UNL     1      -7.873  -5.812   3.397  0.00  0.00    +0.003 C 
ATOM     18  C   UNL     1      -8.808  -5.522   4.573  0.00  0.00    +0.009 C 
ATOM     19  C   UNL     1      -7.017  -4.577   3.109  0.00  0.00    +0.009 C 
ENDBRANCH  16  17
ENDBRANCH   6  16
ENDBRANCH   1   4
BRANCH   1  20
ATOM     20  C   UNL     1      -1.699  -7.325   1.108  0.00  0.00    +0.114 C 
BRANCH  20  21
ATOM     21  C   UNL     1      -1.087  -7.269   2.509  0.00  0.00    +0.019 C 
BRANCH  21  23
ATOM     22  C   UNL     1       0.790  -8.071   3.949  0.00  0.00    +0.004 C 
ATOM     23  C   UNL     1       0.178  -8.128   2.548  0.00  0.00    -0.002 C 
ENDBRANCH  21  23
ENDBRANCH  20  21
ENDBRANCH   1  20
BRANCH   2  24
ATOM     24  C   UNL     1      -1.489  -4.567   0.472  0.00  0.00    +0.019 C 
BRANCH  24  26
ATOM     25  C   UNL     1      -2.030  -2.444   1.505  0.00  0.00    -0.095 C 
ATOM     26  N   UNL     1      -1.676  -3.120   0.238  0.00  0.00    +0.389 N 
ATOM     27  H   UNL     1      -2.440  -2.987  -0.435  0.00  0.00    -0.081 HD
BRANCH  26  28
ATOM     28  C   UNL     1      -0.439  -2.534  -0.319  0.00  0.00    +0.019 C 
BRANCH  28  29
ATOM     29  C   UNL     1      -0.723  -1.119  -0.752  0.00  0.00    +0.201 C 
ATOM     30  O   UNL     1      -1.830  -0.648  -0.596  0.00  0.00    -0.278 OA
ATOM     31  N   UNL     1       0.252  -0.376  -1.312  0.00  0.00    -0.287 N 
ATOM     32  H   UNL     1       1.121  -0.770  -1.489  0.00  0.00    +0.155 HD
BRANCH  31  33
ATOM     33  C   UNL     1       0.013   0.963  -1.638  0.00  0.00    +0.039 A 
ATOM     34  C   UNL     1      -1.045   1.297  -2.474  0.00  0.00    -0.029 A 
ATOM     35  C   UNL     1      -1.282   2.621  -2.789  0.00  0.00    +0.005 A 
ATOM     36  C   UNL     1      -0.461   3.612  -2.283  0.00  0.00    +0.001 A 
ATOM     37  C   UNL     1       0.596   3.282  -1.455  0.00  0.00    +0.005 A 
ATOM     38  C   UNL     1       0.835   1.961  -1.131  0.00  0.00    -0.029 A 
ATOM     39  C   UNL     1       1.987   1.602  -0.228  0.00  0.00    +0.045 C 
ATOM     40  C   UNL     1      -1.937   0.218  -3.030  0.00  0.00    +0.045 C 
ENDBRANCH  31  33
ENDBRANCH  28  29
ENDBRANCH  26  28
ENDBRANCH  24  26
ENDBRANCH   2  24
TORSDOF 12
