REMARK  Name = ZINC43526570
REMARK  10 active torsions:
REMARK  status: ('A' for Active; 'I' for Inactive)
REMARK    1  A    between atoms: C_1  and  N_2
REMARK    2  A    between atoms: N_2  and  C_3
REMARK    3  A    between atoms: N_2  and  C_6
REMARK    4  A    between atoms: C_3  and  C_4
REMARK    5  A    between atoms: C_6  and  C_7
REMARK    6  A    between atoms: C_16  and  C_18
REMARK    7  A    between atoms: C_18  and  N_19
REMARK    8  A    between atoms: N_19  and  C_20
REMARK    9  A    between atoms: C_20  and  N_22
REMARK   10  A    between atoms: N_22  and  C_23
REMARK                            x       y       z     vdW  Elec       q    Type
REMARK                         _______ _______ _______ _____ _____    ______ ____
ROOT
ATOM      1  C   UNL     1      -2.644   0.626  -1.709  0.00  0.00    -0.041 C 
ATOM      2  C   UNL     1      -1.883  -0.376  -2.580  0.00  0.00    -0.076 C 
ATOM      3  N   UNL     1      -2.827  -1.180  -3.361  0.00  0.00    +0.383 N 
ATOM      4  C   UNL     1      -3.705  -1.947  -2.475  0.00  0.00    -0.078 C 
ATOM      5  C   UNL     1      -4.527  -0.997  -1.600  0.00  0.00    -0.015 C 
ATOM      6  C   UNL     1      -4.149   0.452  -1.948  0.00  0.00    -0.015 C 
ATOM      7  C   UNL     1      -4.432   0.679  -3.439  0.00  0.00    -0.010 C 
ATOM      8  C   UNL     1      -3.613  -0.327  -4.256  0.00  0.00    -0.051 C 
ATOM      9  H   UNL     1      -2.301  -1.833  -3.922  0.00  0.00    -0.081 HD
ENDROOT
BRANCH   1  10
ATOM     10  C   UNL     1      -2.325   0.369  -0.235  0.00  0.00    -0.077 C 
BRANCH  10  12
ATOM     11  C   UNL     1      -0.641   2.076  -0.195  0.00  0.00    -0.096 C 
ATOM     12  N   UNL     1      -0.905   0.646   0.015  0.00  0.00    +0.380 N 
ATOM     13  H   UNL     1      -0.339   0.103  -0.619  0.00  0.00    -0.082 HD
BRANCH  12  14
ATOM     14  C   UNL     1      -0.572   0.286   1.400  0.00  0.00    -0.052 C 
BRANCH  14  15
ATOM     15  C   UNL     1       0.909   0.455   1.621  0.00  0.00    -0.053 C 
ATOM     16  C   UNL     1       1.344   1.213   2.596  0.00  0.00    +0.002 C 
ENDBRANCH  14  15
ENDBRANCH  12  14
ENDBRANCH  10  12
ENDBRANCH   1  10
BRANCH   8  17
ATOM     17  C   UNL     1      -4.558  -1.198  -5.085  0.00  0.00    +0.088 C 
BRANCH  17  18
ATOM     18  N   UNL     1      -3.786  -2.228  -5.786  0.00  0.00    -0.328 N 
ATOM     19  H   UNL     1      -2.823  -2.270  -5.676  0.00  0.00    +0.148 HD
BRANCH  18  20
ATOM     20  C   UNL     1      -4.413  -3.116  -6.582  0.00  0.00    +0.134 C 
ATOM     21  S   UNL     1      -6.113  -3.042  -6.774  0.00  0.00    -0.019 S 
BRANCH  20  22
ATOM     22  N   UNL     1      -3.703  -4.063  -7.226  0.00  0.00    -0.297 N 
ATOM     23  H   UNL     1      -2.735  -4.067  -7.166  0.00  0.00    +0.154 HD
BRANCH  22  24
ATOM     24  C   UNL     1      -4.362  -5.039  -7.981  0.00  0.00    +0.034 A 
ATOM     25  C   UNL     1      -5.385  -4.676  -8.847  0.00  0.00    +0.023 A 
ATOM     26  C   UNL     1      -6.034  -5.641  -9.591  0.00  0.00    +0.003 A 
ATOM     27  C   UNL     1      -5.666  -6.969  -9.476  0.00  0.00    +0.020 A 
ATOM     28  C   UNL     1      -4.647  -7.335  -8.614  0.00  0.00    +0.043 A 
ATOM     29  C   UNL     1      -3.990  -6.372  -7.871  0.00  0.00    +0.043 A 
ATOM     30 CL   UNL     1      -4.189  -9.003  -8.471  0.00  0.00    -0.083 Cl
ENDBRANCH  22  24
ENDBRANCH  20  22
ENDBRANCH  18  20
ENDBRANCH  17  18
ENDBRANCH   8  17
TORSDOF 9
