REMARK  Name = ZINC53459998
REMARK  9 active torsions:
REMARK  status: ('A' for Active; 'I' for Inactive)
REMARK    1  A    between atoms: C_1  and  C_2
REMARK    2  A    between atoms: C_2  and  C_4
REMARK    3  A    between atoms: C_2  and  N_16
REMARK    4  A    between atoms: C_4  and  N_5
REMARK    5  A    between atoms: C_6  and  C_8
REMARK    6  A    between atoms: C_8  and  C_9
REMARK    7  A    between atoms: C_8  and  C_10
REMARK    8  A    between atoms: C_8  and  N_11
REMARK    9  A    between atoms: N_14  and  C_15
REMARK                            x       y       z     vdW  Elec       q    Type
REMARK                         _______ _______ _______ _____ _____    ______ ____
ROOT
ATOM      1  C   UNL     1      -1.322  -0.767   0.060  0.00  0.00    +0.089 C 
ENDROOT
BRANCH   1   2
ATOM      2  N   UNL     1      -1.054  -2.203   0.163  0.00  0.00    -0.315 N 
ATOM      3  C   UNL     1      -2.074  -3.069   0.330  0.00  0.00    +0.236 C 
ATOM      4  O   UNL     1      -3.213  -2.659   0.395  0.00  0.00    -0.273 OA
ATOM      5  H   UNL     1      -0.143  -2.532   0.110  0.00  0.00    +0.149 HD
BRANCH   3   6
ATOM      6  C   UNL     1      -1.798  -4.547   0.434  0.00  0.00    +0.106 C 
ATOM      7  C   UNL     1      -1.454  -4.900   1.883  0.00  0.00    +0.041 C 
ATOM      8  C   UNL     1      -3.038  -5.330  -0.000  0.00  0.00    +0.041 C 
BRANCH   6   9
ATOM      9  N   UNL     1      -0.671  -4.896  -0.434  0.00  0.00    -0.286 N 
ATOM     10  C   UNL     1      -0.243  -6.173  -0.502  0.00  0.00    +0.300 C 
ATOM     11  O   UNL     1      -0.792  -7.034   0.156  0.00  0.00    -0.253 OA
ATOM     12  N   UNL     1       0.794  -6.494  -1.301  0.00  0.00    -0.302 N 
ATOM     13  C   UNL     1       1.259  -7.881  -1.376  0.00  0.00    +0.129 C 
ATOM     14  H   UNL     1      -0.232  -4.209  -0.960  0.00  0.00    +0.151 HD
ATOM     15  H   UNL     1       1.232  -5.806  -1.827  0.00  0.00    +0.150 HD
ENDBRANCH   6   9
ENDBRANCH   3   6
ENDBRANCH   1   2
BRANCH   1  17
ATOM     16  C   UNL     1      -0.277   1.501  -0.014  0.00  0.00    -0.012 C 
ATOM     17  C   UNL     1       0.002  -0.003   0.015  0.00  0.00    -0.054 C 
BRANCH  17  18
ATOM     18  N   UNL     1       0.798  -0.330   1.206  0.00  0.00    +0.385 N 
ATOM     19  C   UNL     1       0.125   0.190   2.406  0.00  0.00    -0.073 C 
ATOM     20  C   UNL     1       0.792  -0.416   3.641  0.00  0.00    +0.017 C 
ATOM     21  C   UNL     1       2.285  -0.228   3.558  0.00  0.00    -0.048 A 
ATOM     22  C   UNL     1       3.041  -0.388   4.709  0.00  0.00    +0.004 A 
ATOM     23  C   UNL     1       4.412  -0.227   4.670  0.00  0.00    +0.000 A 
ATOM     24  C   UNL     1       5.033   0.094   3.478  0.00  0.00    +0.000 A 
ATOM     25  C   UNL     1       4.282   0.254   2.331  0.00  0.00    +0.002 A 
ATOM     26  C   UNL     1       2.904   0.095   2.369  0.00  0.00    -0.061 A 
ATOM     27  C   UNL     1       2.123   0.287   1.096  0.00  0.00    -0.042 C 
ATOM     28  H   UNL     1       0.897  -1.331   1.280  0.00  0.00    -0.081 HD
ENDBRANCH  17  18
ENDBRANCH   1  17
TORSDOF 5
