REMARK  Name = ZINC16952796
REMARK  7 active torsions:
REMARK  status: ('A' for Active; 'I' for Inactive)
REMARK    1  A    between atoms: C_1  and  S_2
REMARK    2  A    between atoms: S_2  and  C_3
REMARK    3  A    between atoms: N_4  and  N_5
REMARK    4  A    between atoms: C_6  and  C_8
REMARK    5  A    between atoms: C_8  and  C_9
REMARK    6  A    between atoms: C_9  and  C_10
REMARK    7  A    between atoms: N_12  and  C_13
REMARK                            x       y       z     vdW  Elec       q    Type
REMARK                         _______ _______ _______ _____ _____    ______ ____
ROOT
ATOM      1  C   UNL     1       3.632   6.000  -0.217  0.00  0.00    +0.105 C 
ENDROOT
BRANCH   1   2
ATOM      2  C   UNL     1       2.339   5.234  -0.095  0.00  0.00    +0.218 C 
ATOM      3  O   UNL     1       1.282   5.829  -0.082  0.00  0.00    -0.275 OA
ATOM      4  N   UNL     1       2.358   3.890  -0.001  0.00  0.00    -0.284 N 
ATOM      5  H   UNL     1       3.317   3.358   0.079  0.00  0.00    +0.155 HD
BRANCH   4   6
ATOM      6  C   UNL     1       1.156   3.171  -0.004  0.00  0.00    +0.053 A 
ATOM      7  C   UNL     1       0.024   3.712  -0.598  0.00  0.00    +0.046 A 
ATOM      8  C   UNL     1      -1.161   3.000  -0.600  0.00  0.00    +0.061 A 
ATOM      9  C   UNL     1      -1.217   1.746  -0.014  0.00  0.00    +0.061 A 
ATOM     10  C   UNL     1      -0.092   1.207   0.583  0.00  0.00    +0.043 A 
ATOM     11  C   UNL     1       1.095   1.915   0.588  0.00  0.00    +0.064 A 
ATOM     12 CL   UNL     1       2.509   1.236   1.331  0.00  0.00    -0.082 Cl
ATOM     13 CL   UNL     1      -2.705   0.851  -0.025  0.00  0.00    -0.082 Cl
ATOM     14 CL   UNL     1      -2.577   3.675  -1.343  0.00  0.00    -0.082 Cl
ENDBRANCH   4   6
ENDBRANCH   1   2
BRANCH   1  15
ATOM     15  C   UNL     1       3.331   7.497  -0.308  0.00  0.00    +0.106 C 
BRANCH  15  17
ATOM     16  N   UNL     1       4.605   9.604  -0.525  0.00  0.00    -0.228 N 
ATOM     17  C   UNL     1       4.624   8.262  -0.431  0.00  0.00    +0.231 C 
ATOM     18  O   UNL     1       5.682   7.667  -0.444  0.00  0.00    -0.274 OA
ATOM     19  H   UNL     1       3.646  10.143  -0.513  0.00  0.00    +0.175 HD
BRANCH  16  21
ATOM     20  C   UNL     1       5.788  11.615  -0.731  0.00  0.00    +0.142 C 
ATOM     21  N   UNL     1       5.807  10.315  -0.639  0.00  0.00    -0.286 N 
ATOM     22  N   UNL     1       4.582  12.293  -0.716  0.00  0.00    -0.338 N 
ATOM     23  H   UNL     1       3.639  11.734  -0.626  0.00  0.00    +0.144 HD
ATOM     24  H   UNL     1       4.567  13.390  -0.793  0.00  0.00    +0.144 HD
ATOM     25  H   UNL     1       6.766   9.777  -0.651  0.00  0.00    +0.186 HD
BRANCH  20  27
ATOM     26  C   UNL     1       8.481  11.139  -0.838  0.00  0.00    +0.093 C 
ATOM     27  S   UNL     1       7.300  12.509  -0.874  0.00  0.00    -0.095 S 
ENDBRANCH  20  27
ENDBRANCH  16  21
ENDBRANCH  15  17
ENDBRANCH   1  15
TORSDOF 6
