REMARK  Name = ZINC08581872
REMARK  7 active torsions:
REMARK  status: ('A' for Active; 'I' for Inactive)
REMARK    1  A    between atoms: C_1  and  C_2
REMARK    2  A    between atoms: C_5  and  N_8
REMARK    3  A    between atoms: C_13  and  C_18
REMARK    4  A    between atoms: C_15  and  O_17
REMARK    5  A    between atoms: C_18  and  S_19
REMARK    6  A    between atoms: S_19  and  C_20
REMARK    7  A    between atoms: C_23  and  C_26
REMARK                            x       y       z     vdW  Elec       q    Type
REMARK                         _______ _______ _______ _____ _____    ______ ____
ROOT
ATOM      1  N   UNL     1       3.454   2.814   0.092  0.00  0.00    -0.328 N 
ATOM      2  C   UNL     1       2.523   3.817  -0.060  0.00  0.00    +0.180 C 
ATOM      3  N   UNL     1       2.933   5.128  -0.172  0.00  0.00    -0.296 N 
ATOM      4  C   UNL     1       4.285   5.425  -0.272  0.00  0.00    +0.234 A 
ATOM      5  N   UNL     1       4.670   6.692  -0.255  0.00  0.00    -0.216 NA
ATOM      6  C   UNL     1       5.951   7.015  -0.343  0.00  0.00    +0.060 A 
ATOM      7  C   UNL     1       6.894   6.011  -0.465  0.00  0.00    +0.091 A 
ATOM      8  C   UNL     1       6.457   4.687  -0.486  0.00  0.00    +0.217 A 
ATOM      9  N   UNL     1       5.157   4.436  -0.389  0.00  0.00    -0.177 NA
ATOM     10  H   UNL     1       4.391   3.037   0.209  0.00  0.00    +0.169 HD
ATOM     11  H   UNL     1       0.518   4.166  -0.132  0.00  0.00    +0.159 HD
ATOM     12  H   UNL     1       2.277   5.842  -0.181  0.00  0.00    +0.172 HD
ATOM     13  N   UNL     1       1.249   3.455  -0.096  0.00  0.00    -0.371 N 
ATOM     14  H   UNL     1       0.997   2.460  -0.088  0.00  0.00    +0.159 HD
ENDROOT
BRANCH   1  19
ATOM     15  C   UNL     1       1.814  -2.616   0.035  0.00  0.00    +0.044 C 
ATOM     16  C   UNL     1       2.249  -1.173   0.050  0.00  0.00    -0.050 A 
ATOM     17  C   UNL     1       3.468  -0.815  -0.496  0.00  0.00    +0.005 A 
ATOM     18  C   UNL     1       3.870   0.506  -0.484  0.00  0.00    +0.026 A 
ATOM     19  C   UNL     1       3.049   1.476   0.077  0.00  0.00    +0.042 A 
ATOM     20  C   UNL     1       1.826   1.113   0.625  0.00  0.00    +0.026 A 
ATOM     21  C   UNL     1       1.429  -0.210   0.610  0.00  0.00    +0.005 A 
ENDBRANCH   1  19
BRANCH   8  22
ATOM     22  O   UNL     1       7.346   3.672  -0.606  0.00  0.00    -0.492 OA
ATOM     23  H   UNL     1       7.530   3.416  -1.520  0.00  0.00    +0.294 HD
ENDBRANCH   8  22
BRANCH   6  24
ATOM     24  C   UNL     1       6.377   8.460  -0.315  0.00  0.00    +0.130 C 
BRANCH  24  25
ATOM     25  S   UNL     1       6.406   9.115  -2.006  0.00  0.00    -0.119 S 
BRANCH  25  26
ATOM     26  C   UNL     1       6.915  10.790  -1.807  0.00  0.00    +0.008 A 
ATOM     27  C   UNL     1       7.178  11.291  -0.538  0.00  0.00    +0.015 A 
ATOM     28  C   UNL     1       7.583  12.602  -0.386  0.00  0.00    +0.004 A 
ATOM     29  C   UNL     1       7.715  13.420  -1.493  0.00  0.00    -0.050 A 
ATOM     30  C   UNL     1       7.449  12.926  -2.757  0.00  0.00    +0.004 A 
ATOM     31  C   UNL     1       7.050  11.614  -2.918  0.00  0.00    +0.015 A 
ATOM     32  C   UNL     1       8.150  14.853  -1.323  0.00  0.00    +0.044 C 
ENDBRANCH  25  26
ENDBRANCH  24  25
ENDBRANCH   6  24
TORSDOF 5
