REMARK  Name = ZINC51063789
REMARK  8 active torsions:
REMARK  status: ('A' for Active; 'I' for Inactive)
REMARK    1  A    between atoms: C_1  and  C_2
REMARK    2  A    between atoms: C_5  and  C_8
REMARK    3  A    between atoms: C_8  and  C_9
REMARK    4  A    between atoms: N_14  and  C_16
REMARK    5  A    between atoms: C_16  and  C_17
REMARK    6  A    between atoms: C_17  and  C_18
REMARK    7  A    between atoms: N_20  and  C_21
REMARK    8  A    between atoms: C_22  and  C_26
REMARK                            x       y       z     vdW  Elec       q    Type
REMARK                         _______ _______ _______ _____ _____    ______ ____
ROOT
ATOM      1  C   UNL     1       2.937  -8.220  -0.375  0.00  0.00    -0.070 C 
ENDROOT
BRANCH   1   6
ATOM      2  C   UNL     1       1.508  -4.767  -0.032  0.00  0.00    -0.023 C 
ATOM      3  C   UNL     1       2.195  -4.362   1.275  0.00  0.00    +0.000 C 
ATOM      4  C   UNL     1       3.619  -4.926   1.288  0.00  0.00    -0.018 C 
ATOM      5  C   UNL     1       3.563  -6.444   1.108  0.00  0.00    -0.079 C 
ATOM      6  N   UNL     1       2.919  -6.765  -0.171  0.00  0.00    +0.380 N 
ATOM      7  C   UNL     1       1.530  -6.291  -0.164  0.00  0.00    -0.075 C 
ATOM      8  H   UNL     1       3.422  -6.316  -0.922  0.00  0.00    -0.082 HD
BRANCH   2   9
ATOM      9  C   UNL     1       0.059  -4.275  -0.021  0.00  0.00    +0.037 C 
BRANCH   9  14
ATOM     10  C   UNL     1      -0.018   1.503   0.010  0.00  0.00    +0.044 C 
ATOM     11  C   UNL     1       0.002  -0.004   0.002  0.00  0.00    -0.050 A 
ATOM     12  C   UNL     1       0.006  -0.689  -1.199  0.00  0.00    +0.003 A 
ATOM     13  C   UNL     1       0.025  -2.071  -1.206  0.00  0.00    +0.004 A 
ATOM     14  C   UNL     1       0.040  -2.768  -0.013  0.00  0.00    -0.047 A 
ATOM     15  C   UNL     1       0.037  -2.084   1.188  0.00  0.00    +0.004 A 
ATOM     16  C   UNL     1       0.023  -0.702   1.195  0.00  0.00    +0.003 A 
ENDBRANCH   9  14
ENDBRANCH   2   9
ENDBRANCH   1   6
BRANCH   1  17
ATOM     17  C   UNL     1       4.384  -8.697  -0.517  0.00  0.00    +0.077 C 
BRANCH  17  18
ATOM     18  C   UNL     1       4.402 -10.190  -0.727  0.00  0.00    +0.216 C 
ATOM     19  O   UNL     1       3.361 -10.810  -0.758  0.00  0.00    -0.276 OA
ATOM     20  N   UNL     1       5.576 -10.834  -0.878  0.00  0.00    -0.279 N 
ATOM     21  H   UNL     1       6.409 -10.338  -0.853  0.00  0.00    +0.155 HD
BRANCH  20  22
ATOM     22  C   UNL     1       5.593 -12.207  -1.071  0.00  0.00    +0.084 A 
ATOM     23  C   UNL     1       6.696 -13.031  -1.238  0.00  0.00    +0.065 A 
ATOM     24  C   UNL     1       6.429 -14.440  -1.422  0.00  0.00    +0.022 A 
ATOM     25  C   UNL     1       5.131 -14.797  -1.410  0.00  0.00    +0.048 A 
ATOM     26  S   UNL     1       4.284 -13.254  -1.147  0.00  0.00    -0.081 S 
BRANCH  23  27
ATOM     27  C   UNL     1       8.063 -12.501  -1.229  0.00  0.00    +0.244 C 
ATOM     28  O   UNL     1       8.252 -11.309  -1.072  0.00  0.00    -0.270 OA
ATOM     29  N   UNL     1       9.110 -13.333  -1.395  0.00  0.00    -0.325 N 
ATOM     30  H   UNL     1       8.959 -14.283  -1.520  0.00  0.00    +0.145 HD
ATOM     31  H   UNL     1      10.014 -12.982  -1.389  0.00  0.00    +0.145 HD
ENDBRANCH  23  27
ENDBRANCH  20  22
ENDBRANCH  17  18
ENDBRANCH   1  17
TORSDOF 7
