REMARK  Name = ZINC02100562
REMARK  7 active torsions:
REMARK  status: ('A' for Active; 'I' for Inactive)
REMARK    1  A    between atoms: C_1  and  N_62
REMARK    2  A    between atoms: C_8  and  O_33
REMARK    3  A    between atoms: C_10  and  C_12
REMARK    4  A    between atoms: C_13  and  O_32
REMARK    5  A    between atoms: N_14  and  C_26
REMARK    6  A    between atoms: N_17  and  C_20
REMARK    7  A    between atoms: O_33  and  C_34
REMARK                            x       y       z     vdW  Elec       q    Type
REMARK                         _______ _______ _______ _____ _____    ______ ____
ROOT
ATOM      1  C   UNL     1       4.647   1.183   0.431  0.00  0.00    +0.068 A 
ATOM      2  C   UNL     1       3.584   1.810  -0.148  0.00  0.00    +0.206 A 
ATOM      3  N   UNL     1       2.526   1.063  -0.605  0.00  0.00    -0.260 N 
ATOM      4  C   UNL     1       2.540  -0.278  -0.493  0.00  0.00    +0.175 A 
ATOM      5  S   UNL     1       1.212  -1.187  -1.076  0.00  0.00    -0.012 S 
ATOM      6  N   UNL     1       3.583  -0.915   0.071  0.00  0.00    -0.256 N 
ATOM      7  C   UNL     1       4.638  -0.219   0.537  0.00  0.00    +0.265 A 
ATOM      8  O   UNL     1       5.580  -0.802   1.046  0.00  0.00    -0.267 OA
ENDROOT
BRANCH   1  18
ATOM      9  C   UNL     1       7.022   1.718  -1.135  0.00  0.00    -0.095 C 
ATOM     10  C   UNL     1       8.221   2.140   0.927  0.00  0.00    -0.073 C 
ATOM     11  C   UNL     1       8.403   1.581   2.339  0.00  0.00    +0.017 C 
ATOM     12  C   UNL     1       7.099   1.653   3.093  0.00  0.00    -0.040 A 
ATOM     13  C   UNL     1       7.129   1.529   4.474  0.00  0.00    +0.053 A 
ATOM     14  C   UNL     1       5.958   1.584   5.210  0.00  0.00    +0.170 A 
ATOM     15  C   UNL     1       4.742   1.768   4.558  0.00  0.00    +0.208 A 
ATOM     16  C   UNL     1       4.716   1.893   3.177  0.00  0.00    +0.167 A 
ATOM     17  C   UNL     1       5.898   1.836   2.443  0.00  0.00    -0.008 A 
ATOM     18  C   UNL     1       5.817   1.981   0.946  0.00  0.00    +0.007 C 
ATOM     19  O   UNL     1       3.745   1.787   5.491  0.00  0.00    -0.449 OA
ATOM     20  C   UNL     1       4.317   1.207   6.678  0.00  0.00    +0.467 C 
ATOM     21  O   UNL     1       5.723   1.489   6.552  0.00  0.00    -0.452 OA
ATOM     22  N   UNL     1       7.050   1.472   0.323  0.00  0.00    +0.386 N 
ATOM     23  H   UNL     1       7.118   0.461   0.490  0.00  0.00    -0.081 HD
BRANCH  16  24
ATOM     24  O   UNL     1       3.530   2.073   2.536  0.00  0.00    -0.491 OA
ATOM     25  C   UNL     1       3.094   3.420   2.343  0.00  0.00    +0.277 C 
ENDBRANCH  16  24
ENDBRANCH   1  18
BRANCH   6  26
ATOM     26  C   UNL     1       3.571  -2.312   0.174  0.00  0.00    +0.052 A 
ATOM     27  C   UNL     1       4.080  -3.090  -0.857  0.00  0.00    +0.026 A 
ATOM     28  C   UNL     1       4.070  -4.467  -0.751  0.00  0.00    +0.002 A 
ATOM     29  C   UNL     1       3.545  -5.071   0.376  0.00  0.00    +0.000 A 
ATOM     30  C   UNL     1       3.033  -4.300   1.403  0.00  0.00    +0.002 A 
ATOM     31  C   UNL     1       3.044  -2.922   1.305  0.00  0.00    +0.026 A 
ENDBRANCH   6  26
BRANCH   3  32
ATOM     32  C   UNL     1       1.427   1.700  -1.196  0.00  0.00    +0.052 A 
ATOM     33  C   UNL     1       0.357   2.110  -0.413  0.00  0.00    +0.026 A 
ATOM     34  C   UNL     1      -0.727   2.733  -0.999  0.00  0.00    +0.002 A 
ATOM     35  C   UNL     1      -0.742   2.958  -2.364  0.00  0.00    +0.000 A 
ATOM     36  C   UNL     1       0.323   2.551  -3.146  0.00  0.00    +0.002 A 
ATOM     37  C   UNL     1       1.407   1.923  -2.566  0.00  0.00    +0.026 A 
ENDBRANCH   3  32
BRANCH   2  38
ATOM     38  O   UNL     1       3.569   3.155  -0.267  0.00  0.00    -0.493 OA
ATOM     39  H   UNL     1       2.780   3.502  -0.705  0.00  0.00    +0.294 HD
ENDBRANCH   2  38
TORSDOF 5
