REMARK  Name = ZINC42457073
REMARK  8 active torsions:
REMARK  status: ('A' for Active; 'I' for Inactive)
REMARK    1  A    between atoms: C_1  and  C_2
REMARK    2  A    between atoms: C_2  and  C_4
REMARK    3  A    between atoms: C_2  and  C_17
REMARK    4  A    between atoms: C_4  and  N_5
REMARK    5  A    between atoms: N_5  and  C_6
REMARK    6  A    between atoms: N_5  and  S_7
REMARK    7  A    between atoms: S_7  and  C_10
REMARK    8  A    between atoms: C_17  and  N_19
REMARK                            x       y       z     vdW  Elec       q    Type
REMARK                         _______ _______ _______ _____ _____    ______ ____
ROOT
ATOM      1  N   UNL     1      -2.415  -0.015   1.407  0.00  0.00    -0.179 NA
ATOM      2  C   UNL     1      -3.254   1.159   1.663  0.00  0.00    +0.131 C 
ENDROOT
BRANCH   1   3
ATOM      3  S   UNL     1      -2.168  -1.133   2.603  0.00  0.00    +0.062 S 
ATOM      4  O   UNL     1      -3.368  -1.187   3.363  0.00  0.00    -0.153 OA
ATOM      5  O   UNL     1      -1.610  -2.280   1.978  0.00  0.00    -0.153 OA
BRANCH   3   6
ATOM      6  C   UNL     1      -0.924  -0.487   3.671  0.00  0.00    +0.119 A 
ATOM      7  C   UNL     1      -1.247  -0.114   4.963  0.00  0.00    +0.029 A 
ATOM      8  C   UNL     1      -0.272   0.392   5.801  0.00  0.00    +0.002 A 
ATOM      9  C   UNL     1       1.028   0.526   5.348  0.00  0.00    +0.001 A 
ATOM     10  C   UNL     1       1.352   0.153   4.057  0.00  0.00    +0.017 A 
ATOM     11  C   UNL     1       0.377  -0.358   3.220  0.00  0.00    +0.044 A 
ATOM     12 BR   UNL     1       0.821  -0.875   1.455  0.00  0.00    -0.048 Br
ENDBRANCH   3   6
ENDBRANCH   1   3
BRANCH   1  13
ATOM     13  C   UNL     1      -1.795  -0.199   0.092  0.00  0.00    +0.118 C 
BRANCH  13  15
ATOM     14  C   UNL     1      -3.594  -1.759  -0.662  0.00  0.00    +0.015 C 
ATOM     15  C   UNL     1      -2.883  -0.437  -0.956  0.00  0.00    +0.053 C 
BRANCH  15  16
ATOM     16  C   UNL     1      -2.257  -0.497  -2.326  0.00  0.00    +0.050 C 
ATOM     17  S   UNL     1      -0.666  -0.561  -2.475  0.00  0.00    -0.040 S 
BRANCH  16  18
ATOM     18  N   UNL     1      -3.037  -0.497  -3.424  0.00  0.00    -0.355 N 
ATOM     19  H   UNL     1      -4.002  -0.458  -3.334  0.00  0.00    +0.143 HD
ATOM     20  H   UNL     1      -2.634  -0.536  -4.306  0.00  0.00    +0.143 HD
ENDBRANCH  16  18
ENDBRANCH  15  16
ENDBRANCH  13  15
ENDBRANCH   1  13
TORSDOF 6
