REMARK  Name = ZINC16133844
REMARK  8 active torsions:
REMARK  status: ('A' for Active; 'I' for Inactive)
REMARK    1  A    between atoms: C_4  and  O_40
REMARK    2  A    between atoms: C_5  and  C_7
REMARK    3  A    between atoms: N_8  and  C_9
REMARK    4  A    between atoms: C_12  and  C_15
REMARK    5  A    between atoms: C_15  and  C_25
REMARK    6  A    between atoms: C_28  and  N_31
REMARK    7  A    between atoms: C_32  and  C_33
REMARK    8  A    between atoms: C_38  and  O_39
REMARK                            x       y       z     vdW  Elec       q    Type
REMARK                         _______ _______ _______ _____ _____    ______ ____
ROOT
ATOM      1  C   UNL     1       2.176   0.828  -0.014  0.00  0.00    +0.111 C 
ATOM      2  C   UNL     1       1.334  -0.424  -0.013  0.00  0.00    -0.003 A 
ATOM      3  C   UNL     1       1.640  -1.765  -0.022  0.00  0.00    +0.007 A 
ATOM      4  C   UNL     1       0.623  -2.706  -0.017  0.00  0.00    +0.000 A 
ATOM      5  C   UNL     1      -0.700  -2.301  -0.002  0.00  0.00    +0.001 A 
ATOM      6  C   UNL     1      -1.017  -0.959   0.007  0.00  0.00    +0.013 A 
ATOM      7  C   UNL     1       0.002  -0.004   0.002  0.00  0.00    +0.043 A 
ATOM      8  C   UNL     1      -0.018   1.471   0.010  0.00  0.00    +0.246 C 
ATOM      9  O   UNL     1      -1.025   2.152   0.019  0.00  0.00    -0.270 OA
ATOM     10  N   UNL     1       1.236   1.954   0.001  0.00  0.00    -0.294 N 
ATOM     11  H   UNL     1       1.480   2.893   0.004  0.00  0.00    +0.151 HD
ENDROOT
BRANCH   1  15
ATOM     12  C   UNL     1       4.655   0.934   3.469  0.00  0.00    +0.064 A 
ATOM     13  C   UNL     1       4.214   2.124   2.885  0.00  0.00    +0.028 A 
ATOM     14  C   UNL     1       3.414   2.082   1.762  0.00  0.00    +0.008 A 
ATOM     15  C   UNL     1       3.050   0.865   1.213  0.00  0.00    -0.015 A 
ATOM     16  C   UNL     1       3.479  -0.317   1.790  0.00  0.00    +0.008 A 
ATOM     17  C   UNL     1       4.283  -0.290   2.910  0.00  0.00    +0.028 A 
BRANCH  12  19
ATOM     18  C   UNL     1       5.199   0.173   5.586  0.00  0.00    +0.123 C 
ATOM     19  N   UNL     1       5.448   0.969   4.584  0.00  0.00    -0.255 NA
BRANCH  18  24
ATOM     20  C   UNL     1       6.590  -0.603   8.980  0.00  0.00    +0.001 A 
ATOM     21  C   UNL     1       7.657   0.278   9.044  0.00  0.00    +0.004 A 
ATOM     22  C   UNL     1       7.929   1.125   7.987  0.00  0.00    +0.046 A 
ATOM     23  C   UNL     1       7.133   1.100   6.853  0.00  0.00    +0.125 A 
ATOM     24  C   UNL     1       6.051   0.210   6.783  0.00  0.00    +0.034 A 
ATOM     25  C   UNL     1       5.784  -0.638   7.863  0.00  0.00    +0.013 A 
BRANCH  23  26
ATOM     26  O   UNL     1       7.400   1.931   5.814  0.00  0.00    -0.506 OA
ATOM     27  H   UNL     1       6.950   2.785   5.868  0.00  0.00    +0.292 HD
ENDBRANCH  23  26
ENDBRANCH  18  24
ENDBRANCH  12  19
ENDBRANCH   1  15
BRANCH   1  28
ATOM     28  C   UNL     1       3.027   0.878  -1.257  0.00  0.00    -0.015 A 
ATOM     29  C   UNL     1       3.455  -0.299  -1.847  0.00  0.00    +0.008 A 
ATOM     30  C   UNL     1       4.229  -0.260  -2.987  0.00  0.00    +0.028 A 
ATOM     31  C   UNL     1       4.591   0.970  -3.541  0.00  0.00    +0.064 A 
ATOM     32  C   UNL     1       4.161   2.154  -2.937  0.00  0.00    +0.028 A 
ATOM     33  C   UNL     1       3.382   2.100  -1.800  0.00  0.00    +0.008 A 
BRANCH  31  34
ATOM     34  N   UNL     1       5.365   1.016  -4.669  0.00  0.00    -0.255 NA
ATOM     35  C   UNL     1       6.414   0.249  -4.771  0.00  0.00    +0.123 C 
BRANCH  35  36
ATOM     36  C   UNL     1       7.245   0.298  -5.983  0.00  0.00    +0.034 A 
ATOM     37  C   UNL     1       8.374  -0.519  -6.096  0.00  0.00    +0.013 A 
ATOM     38  C   UNL     1       9.145  -0.472  -7.237  0.00  0.00    +0.001 A 
ATOM     39  C   UNL     1       8.813   0.390  -8.270  0.00  0.00    +0.004 A 
ATOM     40  C   UNL     1       7.703   1.206  -8.170  0.00  0.00    +0.046 A 
ATOM     41  C   UNL     1       6.912   1.169  -7.032  0.00  0.00    +0.125 A 
BRANCH  41  42
ATOM     42  O   UNL     1       5.821   1.970  -6.934  0.00  0.00    -0.506 OA
ATOM     43  H   UNL     1       6.002   2.833  -6.538  0.00  0.00    +0.292 HD
ENDBRANCH  41  42
ENDBRANCH  35  36
ENDBRANCH  31  34
ENDBRANCH   1  28
TORSDOF 8
