REMARK  Name = ZINC12506239
REMARK  6 active torsions:
REMARK  status: ('A' for Active; 'I' for Inactive)
REMARK    1  A    between atoms: C_1  and  C_2
REMARK    2  A    between atoms: C_2  and  O_3
REMARK    3  A    between atoms: O_3  and  C_4
REMARK    4  A    between atoms: C_8  and  C_14
REMARK    5  A    between atoms: C_9  and  O_10
REMARK    6  A    between atoms: O_10  and  C_11
REMARK                            x       y       z     vdW  Elec       q    Type
REMARK                         _______ _______ _______ _____ _____    ______ ____
ROOT
ATOM      1  C   UNL     1      -4.102  -4.867   0.122  0.00  0.00    +0.212 C 
ATOM      2  N   UNL     1      -3.770  -6.181   0.701  0.00  0.00    -0.294 N 
ATOM      3  C   UNL     1      -3.242  -7.164  -0.094  0.00  0.00    +0.160 C 
ATOM      4  N   UNL     1      -3.531  -7.238  -1.381  0.00  0.00    -0.302 N 
ATOM      5  C   UNL     1      -4.318  -6.277  -1.921  0.00  0.00    +0.213 A 
ATOM      6  N   UNL     1      -4.624  -5.120  -1.226  0.00  0.00    -0.286 N 
ATOM      7  C   UNL     1      -5.442  -4.353  -2.022  0.00  0.00    +0.076 A 
ATOM      8  C   UNL     1      -6.071  -3.125  -1.867  0.00  0.00    +0.077 A 
ATOM      9  C   UNL     1      -6.847  -2.615  -2.891  0.00  0.00    +0.164 A 
ATOM     10  C   UNL     1      -7.005  -3.325  -4.077  0.00  0.00    +0.164 A 
ATOM     11  C   UNL     1      -6.389  -4.547  -4.248  0.00  0.00    +0.079 A 
ATOM     12  C   UNL     1      -5.600  -5.074  -3.221  0.00  0.00    +0.095 A 
ATOM     13  N   UNL     1      -4.882  -6.232  -3.099  0.00  0.00    -0.212 NA
ATOM     14  O   UNL     1      -7.776  -2.803  -5.077  0.00  0.00    -0.488 OA
ATOM     15  C   UNL     1      -9.178  -2.728  -4.812  0.00  0.00    +0.232 C 
ATOM     16  C   UNL     1      -9.515  -1.459  -4.045  0.00  0.00    +0.082 C 
ATOM     17  C   UNL     1      -8.891  -1.439  -2.658  0.00  0.00    +0.232 C 
ATOM     18  O   UNL     1      -7.466  -1.406  -2.743  0.00  0.00    -0.488 OA
ATOM     19  N   UNL     1      -2.396  -8.088   0.457  0.00  0.00    -0.332 N 
ATOM     20  H   UNL     1      -2.177  -8.043   1.401  0.00  0.00    +0.145 HD
ATOM     21  H   UNL     1      -2.016  -8.789  -0.096  0.00  0.00    +0.145 HD
ATOM     22  H   UNL     1      -3.925  -6.350   1.644  0.00  0.00    +0.151 HD
ATOM     23  H   UNL     1      -3.187  -7.963  -1.926  0.00  0.00    +0.171 HD
ENDROOT
BRANCH   1  28
ATOM     24  C   UNL     1      -1.246  -2.585   1.103  0.00  0.00    +0.163 A 
ATOM     25  C   UNL     1      -0.591  -2.434  -0.109  0.00  0.00    +0.049 A 
ATOM     26  C   UNL     1      -1.072  -3.069  -1.238  0.00  0.00    +0.004 A 
ATOM     27  C   UNL     1      -2.207  -3.855  -1.163  0.00  0.00    +0.011 A 
ATOM     28  C   UNL     1      -2.865  -4.010   0.043  0.00  0.00    +0.039 A 
ATOM     29  C   UNL     1      -2.384  -3.381   1.181  0.00  0.00    +0.175 A 
BRANCH  24  30
ATOM     30  O   UNL     1      -0.773  -1.962   2.215  0.00  0.00    -0.489 OA
BRANCH  30  32
ATOM     31  C   UNL     1       0.779  -0.545   3.410  0.00  0.00    +0.048 C 
ATOM     32  C   UNL     1       0.401  -1.161   2.061  0.00  0.00    +0.226 C 
ENDBRANCH  30  32
ENDBRANCH  24  30
BRANCH  29  33
ATOM     33  O   UNL     1      -3.027  -3.537   2.369  0.00  0.00    -0.430 OA
BRANCH  33  34
ATOM     34  C   UNL     1      -3.969  -2.526   2.735  0.00  0.00    +0.541 C 
ATOM     35  F   UNL     1      -3.335  -1.278   2.738  0.00  0.00    -0.166 F 
ATOM     36  F   UNL     1      -5.020  -2.512   1.812  0.00  0.00    -0.166 F 
ENDBRANCH  33  34
ENDBRANCH  29  33
ENDBRANCH   1  28
TORSDOF 5
