REMARK  Name = ZINC64623056
REMARK  4 active torsions:
REMARK  status: ('A' for Active; 'I' for Inactive)
REMARK    1  A    between atoms: C_1  and  O_2
REMARK    2  A    between atoms: O_2  and  C_3
REMARK    3  A    between atoms: C_6  and  C_9
REMARK    4  A    between atoms: N_26  and  C_27
REMARK                            x       y       z     vdW  Elec       q    Type
REMARK                         _______ _______ _______ _____ _____    ______ ____
ROOT
ATOM      1  C   UNL     1      -4.882  -3.473   0.601  0.00  0.00    +0.134 C 
ATOM      2  C   UNL     1      -5.368  -4.407   1.715  0.00  0.00    +0.131 C 
ATOM      3  C   UNL     1      -6.672  -5.024   1.227  0.00  0.00    -0.035 C 
ATOM      4  C   UNL     1      -7.587  -4.745   2.149  0.00  0.00    -0.001 A 
ATOM      5  C   UNL     1      -9.002  -5.129   2.270  0.00  0.00    +0.010 A 
ATOM      6  C   UNL     1      -9.662  -4.649   3.358  0.00  0.00    +0.001 A 
ATOM      7  C   UNL     1      -9.061  -3.837   4.325  0.00  0.00    +0.002 A 
ATOM      8  C   UNL     1      -7.764  -3.439   4.296  0.00  0.00    +0.026 A 
ATOM      9  C   UNL     1      -6.966  -3.884   3.201  0.00  0.00    +0.043 A 
ATOM     10  N   UNL     1      -5.689  -3.672   2.940  0.00  0.00    -0.375 N 
ATOM     11  C   UNL     1      -6.789  -5.722  -0.105  0.00  0.00    +0.052 C 
ATOM     12  C   UNL     1      -6.202  -4.766  -1.159  0.00  0.00    +0.114 C 
ATOM     13  N   UNL     1      -4.935  -4.216  -0.667  0.00  0.00    -0.276 N 
ATOM     14  C   UNL     1      -3.807  -4.395  -1.383  0.00  0.00    +0.307 C 
ATOM     15  O   UNL     1      -2.731  -4.086  -0.909  0.00  0.00    -0.252 OA
ATOM     16  N   UNL     1      -3.872  -4.916  -2.624  0.00  0.00    -0.269 N 
ATOM     17  H   UNL     1      -4.735  -5.075  -3.039  0.00  0.00    +0.156 HD
ATOM     18  H   UNL     1      -5.071  -3.128   3.454  0.00  0.00    +0.160 HD
ENDROOT
BRANCH  16  19
ATOM     19  C   UNL     1      -2.695  -5.229  -3.315  0.00  0.00    +0.035 A 
ATOM     20  C   UNL     1      -1.538  -4.497  -3.084  0.00  0.00    +0.024 A 
ATOM     21  C   UNL     1      -0.379  -4.807  -3.767  0.00  0.00    +0.017 A 
ATOM     22  C   UNL     1      -0.369  -5.846  -4.681  0.00  0.00    +0.018 A 
ATOM     23  C   UNL     1      -1.521  -6.577  -4.912  0.00  0.00    +0.017 A 
ATOM     24  C   UNL     1      -2.682  -6.275  -4.228  0.00  0.00    +0.024 A 
ATOM     25 BR   UNL     1       1.220  -6.268  -5.614  0.00  0.00    -0.050 Br
ENDBRANCH  16  19
BRANCH   1  29
ATOM     26  C   UNL     1      -0.866  -2.244   1.392  0.00  0.00    +0.120 A 
ATOM     27  C   UNL     1      -1.271  -3.535   1.698  0.00  0.00    +0.046 A 
ATOM     28  C   UNL     1      -2.570  -3.930   1.442  0.00  0.00    +0.009 A 
ATOM     29  C   UNL     1      -3.466  -3.039   0.880  0.00  0.00    -0.024 A 
ATOM     30  C   UNL     1      -3.065  -1.752   0.574  0.00  0.00    +0.009 A 
ATOM     31  C   UNL     1      -1.769  -1.350   0.834  0.00  0.00    +0.046 A 
BRANCH  26  33
ATOM     32  C   UNL     1       1.286  -2.825   2.219  0.00  0.00    +0.277 C 
ATOM     33  O   UNL     1       0.411  -1.853   1.643  0.00  0.00    -0.495 OA
ENDBRANCH  26  33
ENDBRANCH   1  29
TORSDOF 3
