REMARK  Name = ZINC54649400
REMARK  11 active torsions:
REMARK  status: ('A' for Active; 'I' for Inactive)
REMARK    1  A    between atoms: C_1  and  N_2
REMARK    2  A    between atoms: N_2  and  C_3
REMARK    3  A    between atoms: N_2  and  C_4
REMARK    4  A    between atoms: C_4  and  C_6
REMARK    5  A    between atoms: C_4  and  C_22
REMARK    6  A    between atoms: C_6  and  N_7
REMARK    7  A    between atoms: N_10  and  C_11
REMARK    8  A    between atoms: C_11  and  C_12
REMARK    9  A    between atoms: N_14  and  C_15
REMARK   10  A    between atoms: C_27  and  O_28
REMARK   11  A    between atoms: O_28  and  C_29
REMARK                            x       y       z     vdW  Elec       q    Type
REMARK                         _______ _______ _______ _____ _____    ______ ____
ROOT
ATOM      1  N   UNL     1      -1.656   1.286  -1.433  0.00  0.00    -0.301 N 
ATOM      2  C   UNL     1      -2.046   1.913  -2.560  0.00  0.00    +0.300 C 
ATOM      3  O   UNL     1      -2.631   1.294  -3.429  0.00  0.00    -0.253 OA
ATOM      4  N   UNL     1      -1.789   3.225  -2.725  0.00  0.00    -0.291 N 
ATOM      5  H   UNL     1      -1.190   1.779  -0.740  0.00  0.00    +0.150 HD
ATOM      6  H   UNL     1      -1.323   3.719  -2.032  0.00  0.00    +0.151 HD
ENDROOT
BRANCH   1   7
ATOM      7  C   UNL     1      -1.936  -0.141  -1.254  0.00  0.00    +0.095 C 
BRANCH   7   8
ATOM      8  C   UNL     1      -1.286  -0.630   0.042  0.00  0.00    -0.017 C 
BRANCH   8   9
ATOM      9  C   UNL     1       0.213  -0.562  -0.092  0.00  0.00    -0.018 A 
ATOM     10  C   UNL     1       0.910   0.493   0.466  0.00  0.00    +0.005 A 
ATOM     11  C   UNL     1       2.286   0.556   0.343  0.00  0.00    +0.000 A 
ATOM     12  C   UNL     1       2.968  -0.436  -0.338  0.00  0.00    +0.004 A 
ATOM     13  C   UNL     1       2.276  -1.492  -0.897  0.00  0.00    +0.046 A 
ATOM     14  C   UNL     1       0.896  -1.561  -0.770  0.00  0.00    +0.122 A 
BRANCH  14  15
ATOM     15  O   UNL     1       0.213  -2.603  -1.315  0.00  0.00    -0.495 OA
ATOM     16  C   UNL     1       0.981  -3.595  -1.999  0.00  0.00    +0.277 C 
ENDBRANCH  14  15
ENDBRANCH   8   9
BRANCH   8  18
ATOM     17  C   UNL     1      -3.184   0.232   1.228  0.00  0.00    -0.096 C 
ATOM     18  N   UNL     1      -1.717   0.223   1.158  0.00  0.00    +0.382 N 
ATOM     19  C   UNL     1      -1.170  -0.304   2.416  0.00  0.00    -0.096 C 
ATOM     20  H   UNL     1      -1.381   1.163   1.012  0.00  0.00    -0.082 HD
ENDBRANCH   8  18
ENDBRANCH   7   8
ENDBRANCH   1   7
BRANCH   4  21
ATOM     21  C   UNL     1      -2.213   3.907  -3.951  0.00  0.00    +0.202 C 
BRANCH  21  22
ATOM     22  C   UNL     1      -1.807   5.357  -3.885  0.00  0.00    +0.234 C 
ATOM     23  O   UNL     1      -1.221   5.779  -2.910  0.00  0.00    -0.274 OA
ATOM     24  N   UNL     1      -2.095   6.184  -4.909  0.00  0.00    -0.284 N 
ATOM     25  H   UNL     1      -2.624   5.865  -5.657  0.00  0.00    +0.155 HD
BRANCH  24  26
ATOM     26  C   UNL     1      -1.629   7.504  -4.895  0.00  0.00    +0.034 A 
ATOM     27  C   UNL     1      -2.401   8.520  -5.445  0.00  0.00    +0.025 A 
ATOM     28  C   UNL     1      -1.939   9.821  -5.430  0.00  0.00    +0.022 A 
ATOM     29  C   UNL     1      -0.709  10.114  -4.867  0.00  0.00    +0.041 A 
ATOM     30  C   UNL     1       0.061   9.104  -4.318  0.00  0.00    +0.022 A 
ATOM     31  C   UNL     1      -0.398   7.801  -4.325  0.00  0.00    +0.025 A 
ATOM     32 CL   UNL     1      -0.132  11.751  -4.849  0.00  0.00    -0.084 Cl
ENDBRANCH  24  26
ENDBRANCH  21  22
ENDBRANCH   4  21
TORSDOF 8
