REMARK  Name = ZINC01769636
REMARK  10 active torsions:
REMARK  status: ('A' for Active; 'I' for Inactive)
REMARK    1  A    between atoms: C_1  and  N_65
REMARK    2  A    between atoms: C_8  and  O_34
REMARK    3  A    between atoms: C_10  and  C_12
REMARK    4  A    between atoms: C_13  and  C_14
REMARK    5  A    between atoms: C_14  and  O_15
REMARK    6  A    between atoms: O_15  and  C_16
REMARK    7  A    between atoms: C_19  and  C_22
REMARK    8  A    between atoms: N_26  and  C_33
REMARK    9  A    between atoms: N_29  and  C_32
REMARK   10  A    between atoms: O_34  and  C_35
REMARK                            x       y       z     vdW  Elec       q    Type
REMARK                         _______ _______ _______ _____ _____    ______ ____
ROOT
ATOM      1  C   UNL     1      -3.028   3.891   4.926  0.00  0.00    +0.317 C 
ENDROOT
BRANCH   1   3
ATOM      2  C   UNL     1      -2.683   2.521   2.688  0.00  0.00    -0.109 C 
ATOM      3  C   UNL     1      -2.837   3.129   3.681  0.00  0.00    -0.063 C 
BRANCH   2  13
ATOM      4  C   UNL     1      -4.773   0.983   1.653  0.00  0.00    -0.094 C 
ATOM      5  C   UNL     1      -2.941  -0.366   2.487  0.00  0.00    -0.072 C 
ATOM      6  C   UNL     1      -1.633  -1.016   2.033  0.00  0.00    +0.017 C 
ATOM      7  C   UNL     1      -0.649   0.046   1.612  0.00  0.00    -0.039 A 
ATOM      8  C   UNL     1       0.691  -0.299   1.515  0.00  0.00    +0.053 A 
ATOM      9  C   UNL     1       1.632   0.639   1.129  0.00  0.00    +0.170 A 
ATOM     10  C   UNL     1       1.231   1.940   0.841  0.00  0.00    +0.208 A 
ATOM     11  C   UNL     1      -0.109   2.284   0.947  0.00  0.00    +0.168 A 
ATOM     12  C   UNL     1      -1.050   1.335   1.337  0.00  0.00    -0.001 A 
ATOM     13  C   UNL     1      -2.492   1.759   1.443  0.00  0.00    +0.043 C 
ATOM     14  O   UNL     1       2.330   2.668   0.486  0.00  0.00    -0.449 OA
ATOM     15  C   UNL     1       3.461   1.910   0.955  0.00  0.00    +0.467 C 
ATOM     16  O   UNL     1       2.984   0.551   0.956  0.00  0.00    -0.452 OA
ATOM     17  N   UNL     1      -3.367   0.576   1.433  0.00  0.00    +0.390 N 
ATOM     18  H   UNL     1      -3.293   0.112   0.519  0.00  0.00    -0.080 HD
BRANCH  11  19
ATOM     19  O   UNL     1      -0.505   3.555   0.668  0.00  0.00    -0.491 OA
ATOM     20  C   UNL     1      -0.873   3.837  -0.684  0.00  0.00    +0.277 C 
ENDBRANCH  11  19
ENDBRANCH   2  13
ENDBRANCH   1   3
BRANCH   1  21
ATOM     21  O   UNL     1      -2.189   5.048   4.910  0.00  0.00    -0.480 OA
BRANCH  21  22
ATOM     22  C   UNL     1      -2.246   5.864   5.992  0.00  0.00    +0.122 A 
ATOM     23  C   UNL     1      -3.100   5.557   7.048  0.00  0.00    +0.046 A 
ATOM     24  C   UNL     1      -3.157   6.372   8.142  0.00  0.00    +0.011 A 
ATOM     25  C   UNL     1      -2.361   7.526   8.196  0.00  0.00    -0.024 A 
ATOM     26  C   UNL     1      -1.506   7.832   7.126  0.00  0.00    +0.011 A 
ATOM     27  C   UNL     1      -1.453   7.007   6.040  0.00  0.00    +0.046 A 
BRANCH  25  28
ATOM     28  C   UNL     1      -2.421   8.406   9.363  0.00  0.00    +0.026 C 
ATOM     29  C   UNL     1      -3.645   8.768   9.892  0.00  0.00    +0.100 C 
ATOM     30  C   UNL     1      -4.907   8.481   9.183  0.00  0.00    +0.259 C 
ATOM     31  O   UNL     1      -4.904   7.914   8.107  0.00  0.00    -0.269 OA
ATOM     32  N   UNL     1      -6.064   8.861   9.763  0.00  0.00    -0.225 N 
ATOM     33  C   UNL     1      -6.082   9.491  10.946  0.00  0.00    +0.317 C 
ATOM     34  O   UNL     1      -7.158   9.810  11.411  0.00  0.00    -0.252 OA
ATOM     35  N   UNL     1      -4.976   9.788  11.643  0.00  0.00    -0.225 N 
ATOM     36  C   UNL     1      -3.748   9.465  11.190  0.00  0.00    +0.259 C 
ATOM     37  O   UNL     1      -2.752   9.741  11.832  0.00  0.00    -0.269 OA
ATOM     38  C   UNL     1      -5.106  10.480  12.928  0.00  0.00    +0.143 C 
ATOM     39  C   UNL     1      -7.331   8.583   9.082  0.00  0.00    +0.143 C 
ENDBRANCH  25  28
ENDBRANCH  21  22
ENDBRANCH   1  21
TORSDOF 6
