REMARK  Name = ZINC40014606
REMARK  9 active torsions:
REMARK  status: ('A' for Active; 'I' for Inactive)
REMARK    1  A    between atoms: C_1  and  C_2
REMARK    2  A    between atoms: C_2  and  N_3
REMARK    3  A    between atoms: N_3  and  C_4
REMARK    4  A    between atoms: N_3  and  C_6
REMARK    5  A    between atoms: C_4  and  C_5
REMARK    6  A    between atoms: C_6  and  C_7
REMARK    7  A    between atoms: C_7  and  C_8
REMARK    8  A    between atoms: C_8  and  N_9
REMARK    9  A    between atoms: C_10  and  C_26
REMARK                            x       y       z     vdW  Elec       q    Type
REMARK                         _______ _______ _______ _____ _____    ______ ____
ROOT
ATOM      1  N   UNL     1       2.127  -4.497  -3.857  0.00  0.00    -0.284 N 
ATOM      2  C   UNL     1       1.645  -4.630  -5.242  0.00  0.00    +0.144 C 
ATOM      3  C   UNL     1       2.811  -5.129  -6.032  0.00  0.00    +0.072 A 
ATOM      4  C   UNL     1       2.943  -5.460  -7.454  0.00  0.00    +0.199 A 
ATOM      5  O   UNL     1       2.090  -5.197  -8.283  0.00  0.00    -0.287 OA
ATOM      6  C   UNL     1       4.217  -6.146  -7.789  0.00  0.00    +0.066 A 
ATOM      7  C   UNL     1       4.408  -6.702  -9.053  0.00  0.00    +0.035 A 
ATOM      8  C   UNL     1       5.594  -7.339  -9.345  0.00  0.00    +0.042 A 
ATOM      9  C   UNL     1       6.592  -7.426  -8.382  0.00  0.00    +0.023 A 
ATOM     10  C   UNL     1       6.415  -6.880  -7.131  0.00  0.00    +0.048 A 
ATOM     11  C   UNL     1       5.223  -6.228  -6.813  0.00  0.00    +0.140 A 
ATOM     12  O   UNL     1       5.079  -5.691  -5.579  0.00  0.00    -0.450 OA
ATOM     13  C   UNL     1       3.867  -5.263  -5.176  0.00  0.00    +0.199 A 
ATOM     14  C   UNL     1       3.424  -4.864  -3.829  0.00  0.00    +0.283 C 
ATOM     15  O   UNL     1       4.125  -4.867  -2.836  0.00  0.00    -0.267 OA
ATOM     16 CL   UNL     1       5.843  -8.034 -10.916  0.00  0.00    -0.084 Cl
ENDROOT
BRANCH   2  17
ATOM     17  C   UNL     1       0.511  -5.620  -5.305  0.00  0.00    -0.022 A 
ATOM     18  C   UNL     1       0.557  -6.774  -4.544  0.00  0.00    +0.007 A 
ATOM     19  C   UNL     1      -0.484  -7.681  -4.602  0.00  0.00    +0.015 A 
ATOM     20  C   UNL     1      -1.571  -7.436  -5.420  0.00  0.00    +0.018 A 
ATOM     21  C   UNL     1      -1.617  -6.281  -6.181  0.00  0.00    +0.015 A 
ATOM     22  C   UNL     1      -0.579  -5.371  -6.119  0.00  0.00    +0.007 A 
ATOM     23 BR   UNL     1      -2.995  -8.678  -5.499  0.00  0.00    -0.050 Br
ENDBRANCH   2  17
BRANCH   1  24
ATOM     24  C   UNL     1       1.336  -4.039  -2.711  0.00  0.00    +0.107 C 
BRANCH  24  25
ATOM     25  C   UNL     1       1.453  -2.519  -2.586  0.00  0.00    +0.000 C 
BRANCH  25  26
ATOM     26  C   UNL     1       0.628  -2.041  -1.389  0.00  0.00    -0.077 C 
BRANCH  26  27
ATOM     27  N   UNL     1       0.826  -0.598  -1.203  0.00  0.00    +0.379 N 
ATOM     28  H   UNL     1       1.813  -0.402  -1.119  0.00  0.00    -0.082 HD
BRANCH  27  30
ATOM     29  C   UNL     1       0.597   1.616  -2.224  0.00  0.00    -0.017 C 
ATOM     30  C   UNL     1       0.280   0.126  -2.359  0.00  0.00    -0.082 C 
ENDBRANCH  27  30
BRANCH  27  31
ATOM     31  C   UNL     1       0.136  -0.162   0.018  0.00  0.00    -0.082 C 
ATOM     32  C   UNL     1       0.810  -0.793   1.238  0.00  0.00    -0.017 C 
ENDBRANCH  27  31
ENDBRANCH  26  27
ENDBRANCH  25  26
ENDBRANCH  24  25
ENDBRANCH   1  24
TORSDOF 7
