REMARK  Name = ZINC37711473
REMARK  8 active torsions:
REMARK  status: ('A' for Active; 'I' for Inactive)
REMARK    1  A    between atoms: C_1  and  C_2
REMARK    2  A    between atoms: C_2  and  C_3
REMARK    3  A    between atoms: C_3  and  N_4
REMARK    4  A    between atoms: N_4  and  C_5
REMARK    5  A    between atoms: C_5  and  C_6
REMARK    6  A    between atoms: C_11  and  O_12
REMARK    7  A    between atoms: O_12  and  C_13
REMARK    8  A    between atoms: C_19  and  O_21
REMARK                            x       y       z     vdW  Elec       q    Type
REMARK                         _______ _______ _______ _____ _____    ______ ____
ROOT
ATOM      1  C   UNL     1       1.446  -3.947  -2.482  0.00  0.00    -0.020 A 
ATOM      2  C   UNL     1       2.582  -4.625  -2.082  0.00  0.00    +0.025 A 
ATOM      3  C   UNL     1       2.602  -6.008  -2.089  0.00  0.00    +0.043 A 
ATOM      4  C   UNL     1       1.485  -6.716  -2.498  0.00  0.00    +0.043 A 
ATOM      5  C   UNL     1       0.347  -6.042  -2.899  0.00  0.00    +0.084 A 
ATOM      6  C   UNL     1       0.324  -4.654  -2.885  0.00  0.00    +0.141 A 
ATOM      7 CL   UNL     1      -1.054  -6.930  -3.411  0.00  0.00    -0.080 Cl
ATOM      8 CL   UNL     1       4.030  -6.857  -1.587  0.00  0.00    -0.083 Cl
ENDROOT
BRANCH   1   9
ATOM      9  C   UNL     1       1.426  -2.440  -2.474  0.00  0.00    -0.043 C 
BRANCH   9  10
ATOM     10  N   UNL     1       0.738  -1.966  -1.265  0.00  0.00    +0.382 N 
ATOM     11  H   UNL     1       1.226  -2.301  -0.447  0.00  0.00    -0.085 HD
ATOM     12  H   UNL     1      -0.208  -2.316  -1.258  0.00  0.00    -0.085 HD
BRANCH  10  13
ATOM     13  C   UNL     1       0.718  -0.497  -1.257  0.00  0.00    -0.082 C 
BRANCH  13  15
ATOM     14  C   UNL     1      -0.019   1.526   0.010  0.00  0.00    +0.002 C 
ATOM     15  C   UNL     1       0.002  -0.004   0.002  0.00  0.00    -0.022 C 
ENDBRANCH  13  15
ENDBRANCH  10  13
ENDBRANCH   9  10
ENDBRANCH   1   9
BRANCH   6  16
ATOM     16  O   UNL     1      -0.796  -3.988  -3.274  0.00  0.00    -0.485 OA
BRANCH  16  17
ATOM     17  C   UNL     1      -0.907  -3.658  -4.660  0.00  0.00    +0.202 C 
ATOM     18  C   UNL     1      -1.608  -4.798  -5.402  0.00  0.00    +0.047 C 
ATOM     19  C   UNL     1      -1.726  -4.445  -6.886  0.00  0.00    +0.004 C 
ATOM     20  C   UNL     1      -2.541  -3.159  -7.040  0.00  0.00    +0.003 C 
ATOM     21  C   UNL     1      -1.839  -2.019  -6.299  0.00  0.00    +0.035 C 
ATOM     22  C   UNL     1      -1.721  -2.372  -4.815  0.00  0.00    +0.155 C 
BRANCH  22  23
ATOM     23  O   UNL     1      -3.026  -2.566  -4.266  0.00  0.00    -0.388 OA
ATOM     24  H   UNL     1      -3.599  -1.789  -4.330  0.00  0.00    +0.210 HD
ENDBRANCH  22  23
ENDBRANCH  16  17
ENDBRANCH   6  16
TORSDOF 7
