REMARK  Name = ZINC67465194
REMARK  11 active torsions:
REMARK  status: ('A' for Active; 'I' for Inactive)
REMARK    1  A    between atoms: C_1  and  N_2
REMARK    2  A    between atoms: N_2  and  C_3
REMARK    3  A    between atoms: N_2  and  C_4
REMARK    4  A    between atoms: C_4  and  C_5
REMARK    5  A    between atoms: C_5  and  N_6
REMARK    6  A    between atoms: C_7  and  C_9
REMARK    7  A    between atoms: C_13  and  C_15
REMARK    8  A    between atoms: C_15  and  N_16
REMARK    9  A    between atoms: N_19  and  N_20
REMARK   10  A    between atoms: C_21  and  C_23
REMARK   11  A    between atoms: C_28  and  O_29
REMARK                            x       y       z     vdW  Elec       q    Type
REMARK                         _______ _______ _______ _____ _____    ______ ____
ROOT
ATOM      1  N   UNL     1       0.935   0.433  10.340  0.00  0.00    -0.294 N 
ATOM      2  C   UNL     1       0.560   0.862  11.562  0.00  0.00    +0.316 C 
ATOM      3  O   UNL     1      -0.201   0.192  12.233  0.00  0.00    -0.251 OA
ATOM      4  N   UNL     1       1.030   2.031  12.040  0.00  0.00    -0.218 N 
ATOM      5  H   UNL     1       1.542   0.967   9.804  0.00  0.00    +0.151 HD
ATOM      6  H   UNL     1       0.760   2.339  12.919  0.00  0.00    +0.174 HD
ENDROOT
BRANCH   4   7
ATOM      7  N   UNL     1       1.907   2.802  11.266  0.00  0.00    -0.229 N 
ATOM      8  C   UNL     1       2.377   3.972  11.743  0.00  0.00    +0.264 C 
ATOM      9  O   UNL     1       2.039   4.358  12.846  0.00  0.00    -0.269 OA
ATOM     10  H   UNL     1       2.177   2.494  10.386  0.00  0.00    +0.173 HD
BRANCH   8  11
ATOM     11  C   UNL     1       3.301   4.784  10.928  0.00  0.00    +0.079 A 
ATOM     12  C   UNL     1       3.687   4.346   9.659  0.00  0.00    +0.017 A 
ATOM     13  C   UNL     1       4.550   5.110   8.903  0.00  0.00    +0.001 A 
ATOM     14  C   UNL     1       5.037   6.309   9.396  0.00  0.00    +0.004 A 
ATOM     15  C   UNL     1       4.664   6.753  10.649  0.00  0.00    +0.046 A 
ATOM     16  C   UNL     1       3.791   6.000  11.421  0.00  0.00    +0.129 A 
BRANCH  16  17
ATOM     17  O   UNL     1       3.419   6.438  12.650  0.00  0.00    -0.506 OA
ATOM     18  H   UNL     1       3.999   6.142  13.365  0.00  0.00    +0.292 HD
ENDBRANCH  16  17
ENDBRANCH   8  11
ENDBRANCH   4   7
BRANCH   1  19
ATOM     19  C   UNL     1       0.425  -0.838   9.821  0.00  0.00    +0.141 C 
BRANCH  19  24
ATOM     20  C   UNL     1       0.845  -0.852   6.060  0.00  0.00    +0.037 A 
ATOM     21  C   UNL     1       2.049  -1.544   5.923  0.00  0.00    +0.013 A 
ATOM     22  C   UNL     1       2.711  -1.998   7.045  0.00  0.00    +0.001 A 
ATOM     23  C   UNL     1       2.184  -1.769   8.304  0.00  0.00    +0.005 A 
ATOM     24  C   UNL     1       0.991  -1.083   8.446  0.00  0.00    -0.030 A 
ATOM     25  C   UNL     1       0.322  -0.619   7.333  0.00  0.00    +0.018 A 
BRANCH  20  27
ATOM     26  N   UNL     1       0.637  -0.589   3.635  0.00  0.00    -0.313 N 
ATOM     27  C   UNL     1       0.130  -0.362   4.862  0.00  0.00    +0.244 C 
ATOM     28  O   UNL     1      -0.916   0.245   4.985  0.00  0.00    -0.270 OA
ATOM     29  H   UNL     1       1.472  -1.073   3.537  0.00  0.00    +0.149 HD
BRANCH  26  30
ATOM     30  C   UNL     1      -0.071  -0.103   2.448  0.00  0.00    +0.086 C 
BRANCH  30  31
ATOM     31  C   UNL     1       0.713  -0.491   1.192  0.00  0.00    -0.061 C 
BRANCH  31  33
ATOM     32  C   UNL     1      -0.018   1.465   0.010  0.00  0.00    -0.097 C 
ATOM     33  N   UNL     1       0.002  -0.004   0.002  0.00  0.00    +0.377 N 
ATOM     34  C   UNL     1       0.690  -0.478  -1.207  0.00  0.00    -0.097 C 
ATOM     35  H   UNL     1      -0.945  -0.353   0.009  0.00  0.00    -0.083 HD
ENDBRANCH  31  33
ENDBRANCH  30  31
ENDBRANCH  26  30
ENDBRANCH  20  27
ENDBRANCH  19  24
ENDBRANCH   1  19
TORSDOF 9
