REMARK  Name = ZINC63170970
REMARK  7 active torsions:
REMARK  status: ('A' for Active; 'I' for Inactive)
REMARK    1  A    between atoms: C_1  and  C_2
REMARK    2  A    between atoms: C_2  and  C_4
REMARK    3  A    between atoms: C_2  and  N_17
REMARK    4  A    between atoms: C_4  and  C_5
REMARK    5  A    between atoms: C_5  and  N_6
REMARK    6  A    between atoms: N_6  and  S_7
REMARK    7  A    between atoms: S_7  and  C_10
REMARK                            x       y       z     vdW  Elec       q    Type
REMARK                         _______ _______ _______ _____ _____    ______ ____
ROOT
ATOM      1  N   UNL     1       1.316  -2.496  -2.534  0.00  0.00    -0.190 NA
ATOM      2  H   UNL     1       1.541  -1.870  -3.240  0.00  0.00    +0.148 HD
ENDROOT
BRANCH   1   3
ATOM      3  S   UNL     1       1.707  -4.097  -2.690  0.00  0.00    +0.060 S 
ATOM      4  O   UNL     1       2.329  -4.242  -3.959  0.00  0.00    -0.153 OA
ATOM      5  O   UNL     1       2.347  -4.479  -1.480  0.00  0.00    -0.153 OA
BRANCH   3   6
ATOM      6  C   UNL     1       0.194  -4.998  -2.765  0.00  0.00    +0.127 A 
ATOM      7  C   UNL     1      -0.155  -5.688  -3.912  0.00  0.00    +0.052 A 
ATOM      8  C   UNL     1      -1.327  -6.371  -3.936  0.00  0.00    +0.058 A 
ATOM      9  S   UNL     1      -1.977  -6.048  -2.305  0.00  0.00    -0.073 S 
ATOM     10  C   UNL     1      -0.642  -5.029  -1.698  0.00  0.00    +0.082 A 
ATOM     11 BR   UNL     1      -0.446  -4.206  -0.007  0.00  0.00    -0.041 Br
ATOM     12 BR   UNL     1      -2.077  -7.399  -5.335  0.00  0.00    -0.042 Br
ENDBRANCH   3   6
ENDBRANCH   1   3
BRANCH   1  13
ATOM     13  C   UNL     1       0.630  -2.023  -1.329  0.00  0.00    +0.104 C 
BRANCH  13  14
ATOM     14  C   UNL     1       0.718  -0.497  -1.257  0.00  0.00    +0.000 C 
BRANCH  14  16
ATOM     15  C   UNL     1      -0.019   1.526   0.010  0.00  0.00    -0.014 C 
ATOM     16  C   UNL     1       0.002  -0.004   0.002  0.00  0.00    -0.077 C 
BRANCH  16  17
ATOM     17  N   UNL     1       0.713  -0.491   1.192  0.00  0.00    +0.380 N 
ATOM     18  H   UNL     1       0.240  -0.165   2.022  0.00  0.00    -0.090 HD
ATOM     19  H   UNL     1       0.726  -1.500   1.187  0.00  0.00    -0.090 HD
ATOM     20  H   UNL     1       1.659  -0.141   1.185  0.00  0.00    -0.090 HD
ENDBRANCH  16  17
ENDBRANCH  14  16
ENDBRANCH  13  14
ENDBRANCH   1  13
TORSDOF 6
