REMARK  Name = ZINC66243853
REMARK  9 active torsions:
REMARK  status: ('A' for Active; 'I' for Inactive)
REMARK    1  A    between atoms: C_1  and  C_2
REMARK    2  A    between atoms: C_2  and  C_3
REMARK    3  A    between atoms: C_2  and  C_4
REMARK    4  A    between atoms: C_2  and  O_5
REMARK    5  A    between atoms: O_5  and  C_6
REMARK    6  A    between atoms: C_13  and  C_15
REMARK    7  A    between atoms: C_15  and  N_16
REMARK    8  A    between atoms: N_18  and  C_19
REMARK    9  A    between atoms: C_19  and  C_20
REMARK                            x       y       z     vdW  Elec       q    Type
REMARK                         _______ _______ _______ _____ _____    ______ ____
ROOT
ATOM      1  C   UNL     1       4.351   1.088  -1.645  0.00  0.00    +0.138 C 
ENDROOT
BRANCH   1   9
ATOM      2  C   UNL     1       1.948  -0.099  -1.853  0.00  0.00    +0.404 C 
ATOM      3  O   UNL     1       2.275   0.643  -0.948  0.00  0.00    -0.226 OA
ATOM      4  N   UNL     1       2.872  -0.536  -2.732  0.00  0.00    -0.263 N 
ATOM      5  C   UNL     1       2.515  -1.516  -3.767  0.00  0.00    +0.111 C 
ATOM      6  C   UNL     1       2.924  -0.959  -5.134  0.00  0.00    +0.019 C 
ATOM      7  C   UNL     1       4.408  -0.587  -5.106  0.00  0.00    +0.003 C 
ATOM      8  C   UNL     1       4.644   0.499  -4.053  0.00  0.00    +0.024 C 
ATOM      9  C   UNL     1       4.253  -0.037  -2.677  0.00  0.00    +0.098 C 
BRANCH   2  10
ATOM     10  O   UNL     1       0.665  -0.485  -1.978  0.00  0.00    -0.445 OA
BRANCH  10  12
ATOM     11  C   UNL     1      -0.283   1.545  -1.071  0.00  0.00    +0.055 C 
ATOM     12  C   UNL     1      -0.261   0.017  -1.011  0.00  0.00    +0.107 C 
ATOM     13  C   UNL     1       0.170  -0.432   0.387  0.00  0.00    +0.055 C 
ATOM     14  C   UNL     1      -1.659  -0.526  -1.313  0.00  0.00    +0.055 C 
ENDBRANCH  10  12
ENDBRANCH   2  10
ENDBRANCH   1   9
BRANCH   1  15
ATOM     15  N   UNL     1       4.277   0.521  -0.296  0.00  0.00    -0.356 N 
ATOM     16  C   UNL     1       4.450   1.331   0.801  0.00  0.00    +0.169 C 
ATOM     17  N   UNL     1       4.384   0.826   2.001  0.00  0.00    -0.355 N 
ATOM     18  N   UNL     1       4.693   2.674   0.633  0.00  0.00    -0.371 N 
ATOM     19  H   UNL     1       4.105  -0.426  -0.177  0.00  0.00    +0.162 HD
ATOM     20  H   UNL     1       4.742   3.049  -0.260  0.00  0.00    +0.159 HD
ATOM     21  H   UNL     1       4.815   3.245   1.407  0.00  0.00    +0.159 HD
ATOM     22  H   UNL     1       4.212  -0.121   2.120  0.00  0.00    +0.162 HD
BRANCH  17  23
ATOM     23  C   UNL     1       4.568   1.690   3.170  0.00  0.00    +0.147 C 
BRANCH  23  24
ATOM     24  C   UNL     1       4.443   0.855   4.446  0.00  0.00    +0.137 C 
ATOM     25  C   UNL     1       4.515   1.774   5.684  0.00  0.00    +0.035 C 
ATOM     26  C   UNL     1       5.360   0.928   6.675  0.00  0.00    +0.031 C 
ATOM     27  C   UNL     1       6.322   0.205   5.698  0.00  0.00    +0.160 C 
ATOM     28  O   UNL     1       5.532  -0.072   4.529  0.00  0.00    -0.375 OA
ENDBRANCH  23  24
ENDBRANCH  17  23
ENDBRANCH   1  15
TORSDOF 6
