REMARK  Name = ZINC02310406
REMARK  10 active torsions:
REMARK  status: ('A' for Active; 'I' for Inactive)
REMARK    1  A    between atoms: C_1  and  C_2
REMARK    2  A    between atoms: C_6  and  N_9
REMARK    3  A    between atoms: C_7  and  C_8
REMARK    4  A    between atoms: C_14  and  C_16
REMARK    5  A    between atoms: C_14  and  C_17
REMARK    6  A    between atoms: C_14  and  N_62
REMARK    7  A    between atoms: N_19  and  C_20
REMARK    8  A    between atoms: C_29  and  C_30
REMARK    9  A    between atoms: C_30  and  O_32
REMARK   10  A    between atoms: O_32  and  C_33
REMARK                            x       y       z     vdW  Elec       q    Type
REMARK                         _______ _______ _______ _____ _____    ______ ____
ROOT
ATOM      1  C   UNL     1      -0.090   1.451  -0.015  0.00  0.00    +0.203 C 
ATOM      2  O   UNL     1       0.922   2.113  -0.113  0.00  0.00    -0.277 OA
ATOM      3  N   UNL     1      -1.272   2.057   0.214  0.00  0.00    -0.284 N 
ATOM      4  H   UNL     1      -2.090   1.536   0.222  0.00  0.00    +0.155 HD
ENDROOT
BRANCH   3   5
ATOM      5  C   UNL     1      -1.318   3.429   0.440  0.00  0.00    +0.073 A 
ATOM      6  C   UNL     1      -0.273   4.250   1.056  0.00  0.00    +0.023 A 
ATOM      7  C   UNL     1       0.994   3.966   1.574  0.00  0.00    +0.027 A 
ATOM      8  C   UNL     1       1.755   4.973   2.096  0.00  0.00    +0.019 A 
ATOM      9  C   UNL     1       1.280   6.278   2.118  0.00  0.00    +0.017 A 
ATOM     10  C   UNL     1       0.038   6.582   1.607  0.00  0.00    +0.027 A 
ATOM     11  C   UNL     1      -0.758   5.571   1.073  0.00  0.00    +0.049 A 
ATOM     12  N   UNL     1      -2.016   5.568   0.515  0.00  0.00    -0.348 N 
ATOM     13  H   UNL     1      -2.579   6.350   0.406  0.00  0.00    +0.166 HD
ATOM     14  C   UNL     1      -2.359   4.280   0.132  0.00  0.00    +0.147 A 
ATOM     15 BR   UNL     1       3.470   4.587   2.795  0.00  0.00    -0.050 Br
BRANCH  14  16
ATOM     16  C   UNL     1      -3.581   3.900  -0.479  0.00  0.00    +0.357 C 
ATOM     17  O   UNL     1      -3.815   2.725  -0.692  0.00  0.00    -0.243 OA
BRANCH  16  18
ATOM     18  O   UNL     1      -4.485   4.841  -0.824  0.00  0.00    -0.463 OA
ATOM     19  C   UNL     1      -5.694   4.387  -1.435  0.00  0.00    +0.280 C 
ENDBRANCH  16  18
ENDBRANCH  14  16
ENDBRANCH   3   5
BRANCH   1  20
ATOM     20  C   UNL     1      -0.026  -0.048  -0.156  0.00  0.00    +0.017 C 
ATOM     21  C   UNL     1      -0.906  -0.488  -1.328  0.00  0.00    -0.004 C 
BRANCH  20  27
ATOM     22  N   UNL     1       3.459  -1.719  -1.862  0.00  0.00    -0.333 N 
ATOM     23  C   UNL     1       2.952  -2.308  -0.614  0.00  0.00    +0.086 C 
ATOM     24  C   UNL     1       1.482  -1.922  -0.431  0.00  0.00    -0.059 C 
ATOM     25  C   UNL     1       1.869   0.131  -1.654  0.00  0.00    -0.059 C 
ATOM     26  C   UNL     1       3.339  -0.254  -1.836  0.00  0.00    +0.086 C 
ATOM     27  N   UNL     1       1.378  -0.449  -0.385  0.00  0.00    +0.389 N 
ATOM     28  H   UNL     1       1.956  -0.097   0.388  0.00  0.00    -0.081 HD
BRANCH  22  34
ATOM     29  C   UNL     1       6.726  -4.118  -4.641  0.00  0.00    +0.044 C 
ATOM     30  C   UNL     1       6.392  -3.272  -3.439  0.00  0.00    -0.046 A 
ATOM     31  C   UNL     1       7.394  -2.881  -2.569  0.00  0.00    +0.004 A 
ATOM     32  C   UNL     1       7.092  -2.105  -1.466  0.00  0.00    +0.002 A 
ATOM     33  C   UNL     1       5.788  -1.717  -1.228  0.00  0.00    +0.023 A 
ATOM     34  C   UNL     1       4.779  -2.109  -2.099  0.00  0.00    +0.033 A 
ATOM     35  C   UNL     1       5.085  -2.893  -3.204  0.00  0.00    -0.027 A 
ATOM     36  C   UNL     1       3.993  -3.325  -4.149  0.00  0.00    +0.046 C 
ENDBRANCH  22  34
ENDBRANCH  20  27
ENDBRANCH   1  20
TORSDOF 6
