REMARK  Name = ZINC63383570
REMARK  11 active torsions:
REMARK  status: ('A' for Active; 'I' for Inactive)
REMARK    1  A    between atoms: C_1  and  C_2
REMARK    2  A    between atoms: C_2  and  C_3
REMARK    3  A    between atoms: C_2  and  C_4
REMARK    4  A    between atoms: C_4  and  C_5
REMARK    5  A    between atoms: C_5  and  C_7
REMARK    6  A    between atoms: C_5  and  N_14
REMARK    7  A    between atoms: N_9  and  C_10
REMARK    8  A    between atoms: C_10  and  C_11
REMARK    9  A    between atoms: C_11  and  C_12
REMARK   10  A    between atoms: C_11  and  C_13
REMARK   11  A    between atoms: C_15  and  C_17
REMARK                            x       y       z     vdW  Elec       q    Type
REMARK                         _______ _______ _______ _____ _____    ______ ____
ROOT
ATOM      1  C   UNL     1      -0.545   3.201  -2.489  0.00  0.00    +0.167 C 
ATOM      2  C   UNL     1      -1.696   3.775  -3.338  0.00  0.00    +0.065 C 
ATOM      3  C   UNL     1      -1.491   3.292  -4.752  0.00  0.00    -0.034 C 
ATOM      4  C   UNL     1      -2.314   2.661  -5.583  0.00  0.00    -0.001 A 
ATOM      5  C   UNL     1      -3.735   2.295  -5.462  0.00  0.00    +0.010 A 
ATOM      6  C   UNL     1      -4.272   1.623  -6.515  0.00  0.00    +0.001 A 
ATOM      7  C   UNL     1      -3.548   1.285  -7.662  0.00  0.00    +0.002 A 
ATOM      8  C   UNL     1      -2.241   1.589  -7.862  0.00  0.00    +0.026 A 
ATOM      9  C   UNL     1      -1.568   2.301  -6.827  0.00  0.00    +0.043 A 
ATOM     10  N   UNL     1      -0.343   2.731  -6.762  0.00  0.00    -0.375 N 
ATOM     11  C   UNL     1      -0.174   3.459  -5.503  0.00  0.00    +0.131 C 
ATOM     12  C   UNL     1       0.910   2.824  -4.624  0.00  0.00    +0.134 C 
ATOM     13  N   UNL     1       0.707   3.333  -3.245  0.00  0.00    -0.276 N 
ATOM     14  C   UNL     1       1.838   3.933  -2.831  0.00  0.00    +0.248 C 
ATOM     15  O   UNL     1       2.016   4.386  -1.717  0.00  0.00    -0.270 OA
ATOM     16  C   UNL     1       2.821   3.960  -3.915  0.00  0.00    +0.042 A 
ATOM     17  C   UNL     1       2.270   3.277  -5.045  0.00  0.00    -0.013 A 
ATOM     18  C   UNL     1       2.959   3.135  -6.228  0.00  0.00    +0.006 A 
ATOM     19  C   UNL     1       4.236   3.685  -6.286  0.00  0.00    +0.000 A 
ATOM     20  C   UNL     1       4.794   4.343  -5.208  0.00  0.00    +0.001 A 
ATOM     21  C   UNL     1       4.104   4.512  -3.970  0.00  0.00    +0.013 A 
ATOM     22  H   UNL     1       0.343   2.593  -7.434  0.00  0.00    +0.160 HD
ENDROOT
BRANCH   1  24
ATOM     23  N   UNL     1      -1.914   1.386  -1.514  0.00  0.00    -0.302 N 
ATOM     24  C   UNL     1      -0.808   1.746  -2.196  0.00  0.00    +0.235 C 
ATOM     25  O   UNL     1      -0.026   0.900  -2.573  0.00  0.00    -0.274 OA
ATOM     26  H   UNL     1      -2.576   2.053  -1.276  0.00  0.00    +0.150 HD
BRANCH  23  27
ATOM     27  C   UNL     1      -2.116  -0.015  -1.134  0.00  0.00    +0.159 C 
BRANCH  27  28
ATOM     28  C   UNL     1      -3.592  -0.304  -1.048  0.00  0.00    +0.233 C 
ATOM     29  O   UNL     1      -4.383   0.608  -0.933  0.00  0.00    -0.274 OA
ATOM     30  N   UNL     1      -4.034  -1.576  -1.101  0.00  0.00    -0.314 N 
ATOM     31  H   UNL     1      -3.399  -2.309  -1.122  0.00  0.00    +0.149 HD
BRANCH  30  32
ATOM     32  C   UNL     1      -5.472  -1.852  -1.125  0.00  0.00    +0.107 C 
BRANCH  32  33
ATOM     33  C   UNL     1      -5.701  -3.364  -1.184  0.00  0.00    -0.000 C 
ATOM     34  C   UNL     1      -5.186  -4.008   0.105  0.00  0.00    +0.009 C 
ATOM     35  C   UNL     1      -7.196  -3.648  -1.334  0.00  0.00    +0.009 C 
ENDBRANCH  32  33
ENDBRANCH  30  32
ENDBRANCH  27  28
BRANCH  27  36
ATOM     36  C   UNL     1      -1.466  -0.272   0.227  0.00  0.00    +0.034 C 
BRANCH  36  38
ATOM     37  C   UNL     1      -0.700  -2.562  -0.413  0.00  0.00    +0.007 C 
ATOM     38  C   UNL     1      -1.562  -1.761   0.565  0.00  0.00    -0.015 C 
ATOM     39  C   UNL     1      -1.063  -1.993   1.993  0.00  0.00    +0.007 C 
ENDBRANCH  36  38
ENDBRANCH  27  36
ENDBRANCH  23  27
ENDBRANCH   1  24
TORSDOF 7
