REMARK  Name = ZINC66680300
REMARK  13 active torsions:
REMARK  status: ('A' for Active; 'I' for Inactive)
REMARK    1  A    between atoms: C_1  and  C_2
REMARK    2  A    between atoms: C_5  and  C_9
REMARK    3  A    between atoms: C_6  and  C_8
REMARK    4  A    between atoms: C_9  and  C_10
REMARK    5  A    between atoms: C_10  and  C_12
REMARK    6  A    between atoms: C_10  and  N_13
REMARK    7  A    between atoms: N_16  and  C_17
REMARK    8  A    between atoms: C_20  and  N_23
REMARK    9  A    between atoms: C_24  and  C_26
REMARK   10  A    between atoms: C_26  and  C_27
REMARK   11  A    between atoms: C_27  and  N_28
REMARK   12  A    between atoms: N_28  and  C_29
REMARK   13  A    between atoms: N_28  and  C_30
REMARK                            x       y       z     vdW  Elec       q    Type
REMARK                         _______ _______ _______ _____ _____    ______ ____
ROOT
ATOM      1  N   UNL     1      -1.776  -4.018   2.221  0.00  0.00    -0.296 N 
ATOM      2  C   UNL     1      -3.038  -3.684   2.553  0.00  0.00    +0.304 C 
ATOM      3  O   UNL     1      -3.962  -4.005   1.830  0.00  0.00    -0.253 OA
ATOM      4  N   UNL     1      -3.278  -2.995   3.686  0.00  0.00    -0.269 N 
ATOM      5  H   UNL     1      -1.039  -3.762   2.798  0.00  0.00    +0.151 HD
ATOM      6  H   UNL     1      -2.537  -2.677   4.226  0.00  0.00    +0.156 HD
ENDROOT
BRANCH   4   7
ATOM      7  C   UNL     1      -4.596  -2.737   4.084  0.00  0.00    +0.035 A 
ATOM      8  C   UNL     1      -4.904  -1.554   4.743  0.00  0.00    +0.025 A 
ATOM      9  C   UNL     1      -6.203  -1.300   5.135  0.00  0.00    +0.025 A 
ATOM     10  C   UNL     1      -7.202  -2.227   4.870  0.00  0.00    +0.033 A 
ATOM     11  C   UNL     1      -6.895  -3.409   4.210  0.00  0.00    +0.025 A 
ATOM     12  C   UNL     1      -5.597  -3.661   3.813  0.00  0.00    +0.025 A 
BRANCH  10  13
ATOM     13  N   UNL     1      -8.520  -1.969   5.269  0.00  0.00    -0.286 N 
ATOM     14  C   UNL     1      -8.989  -0.706   5.271  0.00  0.00    +0.215 C 
ATOM     15  O   UNL     1      -8.301   0.197   4.843  0.00  0.00    -0.276 OA
ATOM     16  H   UNL     1      -9.095  -2.700   5.543  0.00  0.00    +0.155 HD
BRANCH  14  17
ATOM     17  C   UNL     1     -10.368  -0.414   5.804  0.00  0.00    +0.077 C 
BRANCH  17  18
ATOM     18  C   UNL     1     -10.652   1.085   5.693  0.00  0.00    -0.070 C 
BRANCH  18  19
ATOM     19  N   UNL     1     -11.996   1.369   6.213  0.00  0.00    +0.376 N 
ATOM     20  C   UNL     1     -12.223   2.820   6.217  0.00  0.00    -0.097 C 
ATOM     21  C   UNL     1     -12.999   0.719   5.359  0.00  0.00    -0.097 C 
ATOM     22  H   UNL     1     -12.074   1.014   7.154  0.00  0.00    -0.083 HD
ENDBRANCH  18  19
ENDBRANCH  17  18
ENDBRANCH  14  17
ENDBRANCH  10  13
ENDBRANCH   4   7
BRANCH   1  23
ATOM     23  C   UNL     1      -1.515  -4.767   0.989  0.00  0.00    +0.076 C 
ATOM     24  C   UNL     1      -1.598  -6.267   1.278  0.00  0.00    +0.028 C 
BRANCH  23  25
ATOM     25  C   UNL     1      -0.118  -4.424   0.469  0.00  0.00    +0.057 C 
BRANCH  25  30
ATOM     26  C   UNL     1       0.051   1.140  -1.083  0.00  0.00    +0.044 C 
ATOM     27  C   UNL     1       0.007  -0.311  -0.678  0.00  0.00    -0.050 A 
ATOM     28  C   UNL     1       0.452  -0.694   0.574  0.00  0.00    +0.003 A 
ATOM     29  C   UNL     1       0.412  -2.024   0.945  0.00  0.00    +0.004 A 
ATOM     30  C   UNL     1      -0.075  -2.973   0.065  0.00  0.00    -0.043 A 
ATOM     31  C   UNL     1      -0.521  -2.591  -1.186  0.00  0.00    -0.047 A 
ATOM     32  C   UNL     1      -0.485  -1.259  -1.556  0.00  0.00    +0.007 A 
ATOM     33  C   UNL     1      -1.051  -3.625  -2.146  0.00  0.00    +0.044 C 
ENDBRANCH  25  30
ENDBRANCH  23  25
ENDBRANCH   1  23
TORSDOF 8
