REMARK  Name = ZINC50441526
REMARK  8 active torsions:
REMARK  status: ('A' for Active; 'I' for Inactive)
REMARK    1  A    between atoms: C_1  and  C_2
REMARK    2  A    between atoms: C_2  and  C_3
REMARK    3  A    between atoms: C_2  and  C_17
REMARK    4  A    between atoms: C_2  and  N_20
REMARK    5  A    between atoms: C_3  and  C_4
REMARK    6  A    between atoms: C_4  and  O_5
REMARK    7  A    between atoms: O_5  and  C_6
REMARK    8  A    between atoms: C_9  and  N_13
REMARK                            x       y       z     vdW  Elec       q    Type
REMARK                         _______ _______ _______ _____ _____    ______ ____
ROOT
ATOM      1  C   UNL     1      -0.042  -0.124   2.497  0.00  0.00    +0.228 C 
ENDROOT
BRANCH   1   2
ATOM      2  C   UNL     1       0.742  -0.511   1.242  0.00  0.00    +0.037 C 
BRANCH   2   4
ATOM      3  C   UNL     1      -0.019   1.526   0.010  0.00  0.00    -0.001 C 
ATOM      4  C   UNL     1       0.002  -0.004   0.002  0.00  0.00    +0.007 C 
BRANCH   4   5
ATOM      5  C   UNL     1       0.707  -0.490  -1.238  0.00  0.00    +0.199 C 
ATOM      6  O   UNL     1       1.889  -0.763  -1.196  0.00  0.00    -0.278 OA
ATOM      7  N   UNL     1       0.026  -0.622  -2.393  0.00  0.00    -0.330 N 
ATOM      8  H   UNL     1      -0.919  -0.404  -2.426  0.00  0.00    +0.145 HD
ATOM      9  H   UNL     1       0.480  -0.934  -3.191  0.00  0.00    +0.145 HD
ENDBRANCH   4   5
BRANCH   4  10
ATOM     10  N   UNL     1      -1.376  -0.512   0.012  0.00  0.00    +0.387 N 
ATOM     11  H   UNL     1      -1.864  -0.178  -0.805  0.00  0.00    -0.089 HD
ATOM     12  H   UNL     1      -1.362  -1.521   0.007  0.00  0.00    -0.089 HD
ATOM     13  H   UNL     1      -1.848  -0.187   0.843  0.00  0.00    -0.089 HD
ENDBRANCH   4  10
ENDBRANCH   2   4
ENDBRANCH   1   2
BRANCH   1  14
ATOM     14  O   UNL     1       0.650  -0.597   3.655  0.00  0.00    -0.490 OA
BRANCH  14  15
ATOM     15  C   UNL     1       0.083  -0.334   4.862  0.00  0.00    +0.148 A 
ATOM     16  C   UNL     1       0.396   0.837   5.537  0.00  0.00    +0.063 A 
ATOM     17  C   UNL     1      -0.182   1.102   6.765  0.00  0.00    +0.051 A 
ATOM     18  C   UNL     1      -1.071   0.200   7.320  0.00  0.00    +0.129 A 
ATOM     19  C   UNL     1      -1.385  -0.967   6.650  0.00  0.00    +0.051 A 
ATOM     20  C   UNL     1      -0.814  -1.234   5.420  0.00  0.00    +0.063 A 
ATOM     21 BR   UNL     1      -1.251  -2.828   4.500  0.00  0.00    -0.046 Br
ATOM     22 BR   UNL     1       1.614   2.070   4.779  0.00  0.00    -0.046 Br
BRANCH  18  23
ATOM     23  N   UNL     1      -1.688   0.486   8.635  0.00  0.00    +0.056 N 
ATOM     24  O   UNL     1      -1.414   1.507   9.223  0.00  0.00    -0.126 OA
ATOM     25  O   UNL     1      -2.466  -0.301   9.122  0.00  0.00    -0.126 OA
ENDBRANCH  18  23
ENDBRANCH  14  15
ENDBRANCH   1  14
TORSDOF 7
