REMARK  Name = ZINC67038707
REMARK  6 active torsions:
REMARK  status: ('A' for Active; 'I' for Inactive)
REMARK    1  A    between atoms: C_6  and  N_7
REMARK    2  A    between atoms: C_8  and  C_10
REMARK    3  A    between atoms: C_10  and  N_11
REMARK    4  A    between atoms: N_14  and  N_15
REMARK    5  A    between atoms: C_16  and  C_18
REMARK    6  A    between atoms: C_18  and  C_19
REMARK                            x       y       z     vdW  Elec       q    Type
REMARK                         _______ _______ _______ _____ _____    ______ ____
ROOT
ATOM      1  N   UNL     1      -4.785   0.085   0.362  0.00  0.00    -0.290 N 
ATOM      2  C   UNL     1      -6.042  -0.387   0.483  0.00  0.00    +0.316 C 
ATOM      3  O   UNL     1      -6.242  -1.586   0.497  0.00  0.00    -0.251 OA
ATOM      4  N   UNL     1      -7.077   0.470   0.587  0.00  0.00    -0.218 N 
ATOM      5  H   UNL     1      -4.625   1.042   0.350  0.00  0.00    +0.151 HD
ATOM      6  H   UNL     1      -7.981   0.131   0.674  0.00  0.00    +0.174 HD
ENDROOT
BRANCH   4   7
ATOM      7  N   UNL     1      -6.846   1.852   0.570  0.00  0.00    -0.233 N 
ATOM      8  C   UNL     1      -7.881   2.709   0.674  0.00  0.00    +0.229 C 
ATOM      9  O   UNL     1      -9.012   2.284   0.782  0.00  0.00    -0.274 OA
ATOM     10  H   UNL     1      -5.942   2.192   0.483  0.00  0.00    +0.173 HD
BRANCH   8  11
ATOM     11  C   UNL     1      -7.633   4.196   0.656  0.00  0.00    +0.101 C 
BRANCH  11  12
ATOM     12  C   UNL     1      -8.965   4.936   0.788  0.00  0.00    -0.002 C 
ATOM     13  C   UNL     1      -9.830   4.655  -0.442  0.00  0.00    +0.004 C 
ATOM     14  C   UNL     1     -11.162   5.396  -0.309  0.00  0.00    +0.000 C 
ATOM     15  C   UNL     1     -10.900   6.900  -0.203  0.00  0.00    +0.000 C 
ATOM     16  C   UNL     1     -10.036   7.181   1.028  0.00  0.00    +0.000 C 
ATOM     17  C   UNL     1      -8.704   6.440   0.895  0.00  0.00    +0.004 C 
ENDBRANCH  11  12
ENDBRANCH   8  11
ENDBRANCH   4   7
BRANCH   1  18
ATOM     18  C   UNL     1      -3.660  -0.846   0.249  0.00  0.00    +0.202 C 
BRANCH  18  20
ATOM     19  N   UNL     1      -1.201  -0.722   0.010  0.00  0.00    -0.282 N 
ATOM     20  C   UNL     1      -2.375  -0.070   0.127  0.00  0.00    +0.234 C 
ATOM     21  O   UNL     1      -2.396   1.143   0.134  0.00  0.00    -0.274 OA
ATOM     22  H   UNL     1      -1.190  -1.688  -0.076  0.00  0.00    +0.155 HD
BRANCH  19  28
ATOM     23  C   UNL     1       0.069   1.238   0.627  0.00  0.00    +0.029 A 
ATOM     24  C   UNL     1       1.257   1.944   0.630  0.00  0.00    +0.043 A 
ATOM     25  C   UNL     1       2.382   1.415   0.021  0.00  0.00    +0.161 A 
ATOM     26  C   UNL     1       2.320   0.173  -0.593  0.00  0.00    +0.195 A 
ATOM     27  C   UNL     1       1.132  -0.538  -0.598  0.00  0.00    +0.182 A 
ATOM     28  C   UNL     1       0.003  -0.005   0.013  0.00  0.00    +0.072 A 
ATOM     29  F   UNL     1       1.070  -1.748  -1.196  0.00  0.00    -0.200 F 
ATOM     30  F   UNL     1       3.418  -0.343  -1.187  0.00  0.00    -0.199 F 
ATOM     31  F   UNL     1       3.541   2.108   0.026  0.00  0.00    -0.202 F 
ENDBRANCH  19  28
ENDBRANCH  18  20
ENDBRANCH   1  18
TORSDOF 6
