REMARK  Name = ZINC45625953
REMARK  10 active torsions:
REMARK  status: ('A' for Active; 'I' for Inactive)
REMARK    1  A    between atoms: C_1  and  C_2
REMARK    2  A    between atoms: C_2  and  C_4
REMARK    3  A    between atoms: C_2  and  O_11
REMARK    4  A    between atoms: N_6  and  C_7
REMARK    5  A    between atoms: C_7  and  C_8
REMARK    6  A    between atoms: C_7  and  C_9
REMARK    7  A    between atoms: C_7  and  C_10
REMARK    8  A    between atoms: O_11  and  C_12
REMARK    9  A    between atoms: C_12  and  C_14
REMARK   10  A    between atoms: C_16  and  N_21
REMARK                            x       y       z     vdW  Elec       q    Type
REMARK                         _______ _______ _______ _____ _____    ______ ____
ROOT
ATOM      1  C   UNL     1      -0.045  -0.697   2.265  0.00  0.00    +0.341 C 
ATOM      2  O   UNL     1      -1.242  -0.493   2.247  0.00  0.00    -0.245 OA
ENDROOT
BRANCH   1   3
ATOM      3  C   UNL     1       0.602  -1.187   3.499  0.00  0.00    +0.075 A 
ATOM      4  C   UNL     1       1.979  -1.417   3.525  0.00  0.00    +0.038 A 
ATOM      5  C   UNL     1       2.578  -1.877   4.687  0.00  0.00    +0.025 A 
ATOM      6  C   UNL     1       1.809  -2.108   5.822  0.00  0.00    +0.024 A 
ATOM      7  C   UNL     1       0.447  -1.880   5.798  0.00  0.00    +0.018 A 
ATOM      8  C   UNL     1      -0.161  -1.416   4.647  0.00  0.00    +0.032 A 
ATOM      9 BR   UNL     1      -2.025  -1.099   4.623  0.00  0.00    -0.049 Br
BRANCH   5  10
ATOM     10  N   UNL     1       3.956  -2.109   4.717  0.00  0.00    -0.358 N 
ATOM     11  H   UNL     1       4.492  -1.948   3.925  0.00  0.00    +0.142 HD
ATOM     12  H   UNL     1       4.376  -2.431   5.530  0.00  0.00    +0.142 HD
ENDBRANCH   5  10
ENDBRANCH   1   3
BRANCH   1  13
ATOM     13  O   UNL     1       0.693  -0.477   1.160  0.00  0.00    -0.449 OA
BRANCH  13  15
ATOM     14  C   UNL     1      -0.019   1.526   0.010  0.00  0.00    +0.062 C 
ATOM     15  C   UNL     1       0.002  -0.004   0.002  0.00  0.00    +0.259 C 
BRANCH  15  16
ATOM     16  C   UNL     1       0.707  -0.490  -1.238  0.00  0.00    +0.254 C 
ATOM     17  O   UNL     1       1.753  -1.097  -1.142  0.00  0.00    -0.272 OA
ATOM     18  N   UNL     1       0.176  -0.250  -2.453  0.00  0.00    -0.308 N 
ATOM     19  H   UNL     1      -0.660   0.235  -2.530  0.00  0.00    +0.149 HD
BRANCH  18  20
ATOM     20  C   UNL     1       0.862  -0.723  -3.658  0.00  0.00    +0.026 C 
ATOM     21  C   UNL     1       0.993  -2.246  -3.607  0.00  0.00    +0.031 C 
ATOM     22  C   UNL     1       0.055  -0.322  -4.895  0.00  0.00    +0.031 C 
ATOM     23  C   UNL     1       2.255  -0.093  -3.733  0.00  0.00    +0.031 C 
ENDBRANCH  18  20
ENDBRANCH  15  16
ENDBRANCH  13  15
ENDBRANCH   1  13
TORSDOF 6
