REMARK  Name = ZINC66202191
REMARK  10 active torsions:
REMARK  status: ('A' for Active; 'I' for Inactive)
REMARK    1  A    between atoms: C_1  and  C_2
REMARK    2  A    between atoms: C_7  and  C_8
REMARK    3  A    between atoms: N_10  and  C_11
REMARK    4  A    between atoms: C_14  and  C_17
REMARK    5  A    between atoms: N_19  and  N_20
REMARK    6  A    between atoms: C_21  and  C_22
REMARK    7  A    between atoms: C_24  and  O_31
REMARK    8  A    between atoms: C_25  and  O_29
REMARK    9  A    between atoms: O_29  and  C_30
REMARK   10  A    between atoms: O_31  and  C_32
REMARK                            x       y       z     vdW  Elec       q    Type
REMARK                         _______ _______ _______ _____ _____    ______ ____
ROOT
ATOM      1  C   UNL     1       0.418  -0.167   4.948  0.00  0.00    +0.034 A 
ATOM      2  C   UNL     1       0.287   1.218   4.975  0.00  0.00    +0.024 A 
ATOM      3  C   UNL     1       0.283   1.888   6.177  0.00  0.00    +0.015 A 
ATOM      4  C   UNL     1       0.412   1.176   7.373  0.00  0.00    +0.038 A 
ATOM      5  C   UNL     1       0.544  -0.216   7.343  0.00  0.00    +0.015 A 
ATOM      6  C   UNL     1       0.541  -0.880   6.137  0.00  0.00    +0.024 A 
ENDROOT
BRANCH   1   9
ATOM      7  C   UNL     1       0.972  -0.266   2.642  0.00  0.00    +0.249 C 
ATOM      8  O   UNL     1       1.549   0.799   2.744  0.00  0.00    -0.270 OA
ATOM      9  N   UNL     1       0.421  -0.842   3.729  0.00  0.00    -0.281 N 
ATOM     10  H   UNL     1       0.027  -1.725   3.663  0.00  0.00    +0.155 HD
BRANCH   7  17
ATOM     11  C   UNL     1       1.902   1.110   0.273  0.00  0.00    +0.044 C 
ATOM     12  C   UNL     1       1.319  -0.276   0.175  0.00  0.00    -0.038 A 
ATOM     13  C   UNL     1       1.231  -0.904  -1.050  0.00  0.00    +0.004 A 
ATOM     14  C   UNL     1       0.696  -2.177  -1.141  0.00  0.00    +0.000 A 
ATOM     15  C   UNL     1       0.247  -2.829  -0.006  0.00  0.00    +0.001 A 
ATOM     16  C   UNL     1       0.330  -2.212   1.225  0.00  0.00    +0.013 A 
ATOM     17  C   UNL     1       0.874  -0.930   1.325  0.00  0.00    +0.040 A 
ENDBRANCH   7  17
ENDBRANCH   1   9
BRANCH   4  18
ATOM     18  C   UNL     1       0.409   1.890   8.664  0.00  0.00    +0.263 C 
ATOM     19  O   UNL     1       0.295   3.101   8.688  0.00  0.00    -0.268 OA
ATOM     20  N   UNL     1       0.534   1.202   9.816  0.00  0.00    -0.203 N 
ATOM     21  H   UNL     1       0.625   0.236   9.796  0.00  0.00    +0.178 HD
BRANCH  20  22
ATOM     22  N   UNL     1       0.531   1.880  11.041  0.00  0.00    -0.187 NA
ATOM     23  C   UNL     1       0.651   1.217  12.151  0.00  0.00    +0.139 C 
BRANCH  23  24
ATOM     24  C   UNL     1       0.648   1.931  13.440  0.00  0.00    +0.017 A 
ATOM     25  C   UNL     1       0.783   1.219  14.636  0.00  0.00    +0.060 A 
ATOM     26  C   UNL     1       0.780   1.893  15.842  0.00  0.00    +0.162 A 
ATOM     27  C   UNL     1       0.643   3.280  15.865  0.00  0.00    +0.163 A 
ATOM     28  C   UNL     1       0.509   3.987  14.680  0.00  0.00    +0.070 A 
ATOM     29  C   UNL     1       0.517   3.322  13.471  0.00  0.00    +0.053 A 
ATOM     30 CL   UNL     1       0.357   4.212  11.989  0.00  0.00    -0.083 Cl
BRANCH  27  31
ATOM     31  O   UNL     1       0.640   3.940  17.053  0.00  0.00    -0.491 OA
ATOM     32  C   UNL     1       0.496   5.361  17.005  0.00  0.00    +0.277 C 
ENDBRANCH  27  31
BRANCH  26  33
ATOM     33  O   UNL     1       0.910   1.203  17.006  0.00  0.00    -0.491 OA
ATOM     34  C   UNL     1       1.046  -0.216  16.908  0.00  0.00    +0.277 C 
ENDBRANCH  26  33
ENDBRANCH  23  24
ENDBRANCH  20  22
ENDBRANCH   4  18
TORSDOF 7
