REMARK  Name = ZINC13782015
REMARK  11 active torsions:
REMARK  status: ('A' for Active; 'I' for Inactive)
REMARK    1  A    between atoms: C_1  and  N_2
REMARK    2  A    between atoms: N_2  and  C_3
REMARK    3  A    between atoms: N_2  and  C_4
REMARK    4  A    between atoms: C_4  and  C_5
REMARK    5  A    between atoms: C_5  and  C_6
REMARK    6  A    between atoms: C_6  and  N_7
REMARK    7  A    between atoms: N_9  and  C_10
REMARK    8  A    between atoms: C_10  and  C_11
REMARK    9  A    between atoms: C_11  and  N_12
REMARK   10  A    between atoms: N_12  and  C_13
REMARK   11  A    between atoms: C_13  and  C_14
REMARK                            x       y       z     vdW  Elec       q    Type
REMARK                         _______ _______ _______ _____ _____    ______ ____
ROOT
ATOM      1  N   UNL     1      -6.157  -9.076  -0.546  0.00  0.00    -0.309 N 
ATOM      2  C   UNL     1      -6.707  -9.536   0.645  0.00  0.00    +0.122 A 
ATOM      3  C   UNL     1      -6.116  -9.189   1.856  0.00  0.00    +0.045 A 
ATOM      4  C   UNL     1      -6.673  -9.653   3.034  0.00  0.00    +0.020 A 
ATOM      5  C   UNL     1      -7.807 -10.453   2.960  0.00  0.00    +0.036 A 
ATOM      6  C   UNL     1      -8.341 -10.758   1.724  0.00  0.00    +0.128 A 
ATOM      7  N   UNL     1      -7.791 -10.296   0.617  0.00  0.00    -0.239 NA
ATOM      8 BR   UNL     1      -8.611 -11.117   4.538  0.00  0.00    -0.049 Br
ENDROOT
BRANCH   1   9
ATOM      9  C   UNL     1      -4.898  -8.327  -0.531  0.00  0.00    +0.125 C 
BRANCH   9  10
ATOM     10  C   UNL     1      -5.195  -6.833  -0.389  0.00  0.00    +0.122 C 
BRANCH  10  13
ATOM     11  N   UNL     1      -2.777  -4.025  -0.239  0.00  0.00    -0.367 N 
ATOM     12  C   UNL     1      -3.951  -4.723  -0.254  0.00  0.00    +0.139 C 
ATOM     13  N   UNL     1      -3.935  -6.085  -0.373  0.00  0.00    -0.323 N 
ATOM     14  S   UNL     1      -5.397  -3.918  -0.125  0.00  0.00    -0.016 SA
ATOM     15  H   UNL     1      -3.091  -6.555  -0.448  0.00  0.00    +0.148 HD
ATOM     16  H   UNL     1      -1.932  -4.496  -0.314  0.00  0.00    +0.161 HD
BRANCH  11  17
ATOM     17  C   UNL     1      -2.794  -2.566  -0.111  0.00  0.00    +0.112 C 
BRANCH  17  18
ATOM     18  C   UNL     1      -1.358  -2.037  -0.122  0.00  0.00    +0.002 C 
BRANCH  18  19
ATOM     19  C   UNL     1      -1.376  -0.512   0.012  0.00  0.00    -0.078 C 
BRANCH  19  21
ATOM     20  C   UNL     1      -0.018   1.465   0.010  0.00  0.00    -0.097 C 
ATOM     21  N   UNL     1       0.002  -0.004   0.002  0.00  0.00    +0.376 N 
ATOM     22  C   UNL     1       0.713  -0.491   1.192  0.00  0.00    -0.097 C 
ATOM     23  H   UNL     1       0.474  -0.330  -0.828  0.00  0.00    -0.083 HD
ENDBRANCH  19  21
ENDBRANCH  18  19
ENDBRANCH  17  18
ENDBRANCH  11  17
ENDBRANCH  10  13
ENDBRANCH   9  10
ENDBRANCH   1   9
BRANCH   1  24
ATOM     24  C   UNL     1      -6.837  -9.340  -1.817  0.00  0.00    +0.141 C 
BRANCH  24  25
ATOM     25  C   UNL     1      -6.346 -10.645  -2.388  0.00  0.00    -0.029 A 
ATOM     26  C   UNL     1      -5.250 -10.662  -3.230  0.00  0.00    +0.007 A 
ATOM     27  C   UNL     1      -4.799 -11.859  -3.755  0.00  0.00    +0.022 A 
ATOM     28  C   UNL     1      -5.444 -13.040  -3.437  0.00  0.00    +0.059 A 
ATOM     29  C   UNL     1      -6.542 -13.023  -2.593  0.00  0.00    +0.060 A 
ATOM     30  C   UNL     1      -6.989 -11.825  -2.064  0.00  0.00    +0.026 A 
ATOM     31 CL   UNL     1      -7.353 -14.505  -2.193  0.00  0.00    -0.082 Cl
ATOM     32 CL   UNL     1      -4.879 -14.543  -4.096  0.00  0.00    -0.082 Cl
ENDBRANCH  24  25
ENDBRANCH   1  24
TORSDOF 9
