REMARK  Name = ZINC62269336
REMARK  3 active torsions:
REMARK  status: ('A' for Active; 'I' for Inactive)
REMARK    1  A    between atoms: C_4  and  N_7
REMARK    2  A    between atoms: C_8  and  C_14
REMARK    3  A    between atoms: C_19  and  C_22
REMARK                            x       y       z     vdW  Elec       q    Type
REMARK                         _______ _______ _______ _____ _____    ______ ____
ROOT
ATOM      1  C   UNL     1       2.743  -2.784  -0.834  0.00  0.00    +0.237 C 
ATOM      2  O   UNL     1       2.032  -2.118  -1.557  0.00  0.00    -0.274 OA
ATOM      3  N   UNL     1       2.627  -4.126  -0.825  0.00  0.00    -0.299 N 
ATOM      4  C   UNL     1       3.417  -5.049   0.003  0.00  0.00    +0.108 C 
ATOM      5  C   UNL     1       2.919  -6.478  -0.301  0.00  0.00    +0.028 C 
ATOM      6  C   UNL     1       1.493  -6.237  -0.862  0.00  0.00    +0.038 C 
ATOM      7  C   UNL     1       1.681  -4.912  -1.638  0.00  0.00    +0.116 C 
ENDROOT
BRANCH   6   8
ATOM      8  C   UNL     1       1.080  -7.354  -1.786  0.00  0.00    -0.039 A 
ATOM      9  C   UNL     1       1.841  -7.642  -2.903  0.00  0.00    +0.008 A 
ATOM     10  C   UNL     1       1.466  -8.666  -3.753  0.00  0.00    +0.050 A 
ATOM     11  C   UNL     1       0.326  -9.406  -3.487  0.00  0.00    +0.166 A 
ATOM     12  C   UNL     1      -0.442  -9.115  -2.361  0.00  0.00    +0.166 A 
ATOM     13  C   UNL     1      -0.057  -8.091  -1.511  0.00  0.00    +0.053 A 
ATOM     14  O   UNL     1      -1.501  -9.975  -2.321  0.00  0.00    -0.453 OA
ATOM     15  C   UNL     1      -1.600 -10.524  -3.649  0.00  0.00    +0.466 C 
ATOM     16  O   UNL     1      -0.253 -10.448  -4.152  0.00  0.00    -0.453 OA
ENDBRANCH   6   8
BRANCH   1  18
ATOM     17  N   UNL     1       3.322  -0.746   0.377  0.00  0.00    -0.260 N 
ATOM     18  C   UNL     1       3.757  -2.109   0.053  0.00  0.00    +0.168 C 
ATOM     19  C   UNL     1       5.100  -1.946  -0.694  0.00  0.00    +0.041 C 
ATOM     20  C   UNL     1       5.600  -0.588  -0.151  0.00  0.00    +0.098 C 
ATOM     21  C   UNL     1       4.337   0.130   0.271  0.00  0.00    +0.221 C 
ATOM     22  O   UNL     1       4.252   1.320   0.484  0.00  0.00    -0.275 OA
BRANCH  17  26
ATOM     23  C   UNL     1      -0.565   0.282   1.469  0.00  0.00    +0.000 A 
ATOM     24  C   UNL     1      -0.034   0.754   0.282  0.00  0.00    +0.002 A 
ATOM     25  C   UNL     1       1.254   0.415  -0.082  0.00  0.00    +0.023 A 
ATOM     26  C   UNL     1       2.017  -0.400   0.744  0.00  0.00    +0.037 A 
ATOM     27  C   UNL     1       1.480  -0.872   1.935  0.00  0.00    +0.023 A 
ATOM     28  C   UNL     1       0.192  -0.530   2.294  0.00  0.00    +0.002 A 
ENDBRANCH  17  26
ENDBRANCH   1  18
TORSDOF 3
