REMARK  Name = ZINC04721121
REMARK  5 active torsions:
REMARK  status: ('A' for Active; 'I' for Inactive)
REMARK    1  A    between atoms: C_6  and  C_7
REMARK    2  A    between atoms: C_7  and  N_8
REMARK    3  A    between atoms: C_12  and  N_58
REMARK    4  A    between atoms: C_18  and  C_21
REMARK    5  A    between atoms: C_18  and  N_60
REMARK                            x       y       z     vdW  Elec       q    Type
REMARK                         _______ _______ _______ _____ _____    ______ ____
ROOT
ATOM      1  C   UNL     1       1.412   2.058   0.289  0.00  0.00    -0.079 C 
ATOM      2  C   UNL     1       0.046   1.369   0.232  0.00  0.00    -0.021 C 
ATOM      3  C   UNL     1       0.242  -0.118  -0.076  0.00  0.00    +0.009 C 
ATOM      4  C   UNL     1       1.003  -0.261  -1.397  0.00  0.00    -0.021 C 
ATOM      5  C   UNL     1       2.340   0.475  -1.293  0.00  0.00    -0.079 C 
ATOM      6  N   UNL     1       2.081   1.905  -1.020  0.00  0.00    +0.388 N 
ATOM      7  H   UNL     1       1.468   2.278  -1.754  0.00  0.00    -0.081 HD
ENDROOT
BRANCH   6  12
ATOM      8  N   UNL     1       3.729   4.499   0.344  0.00  0.00    -0.239 N 
ATOM      9  C   UNL     1       4.424   3.522   0.939  0.00  0.00    +0.221 C 
ATOM     10  O   UNL     1       5.075   3.641   1.954  0.00  0.00    -0.275 OA
ATOM     11  C   UNL     1       4.268   2.244   0.142  0.00  0.00    +0.090 C 
ATOM     12  C   UNL     1       3.352   2.658  -1.028  0.00  0.00    +0.029 C 
ATOM     13  C   UNL     1       3.087   4.125  -0.769  0.00  0.00    +0.209 C 
ATOM     14  O   UNL     1       2.403   4.847  -1.462  0.00  0.00    -0.277 OA
BRANCH   8  15
ATOM     15  C   UNL     1       3.674   5.865   0.870  0.00  0.00    +0.151 C 
BRANCH  15  21
ATOM     16  C   UNL     1       6.022   6.732   0.919  0.00  0.00    +0.008 A 
ATOM     17  C   UNL     1       7.054   7.471   0.374  0.00  0.00    +0.038 A 
ATOM     18  C   UNL     1       6.860   8.166  -0.808  0.00  0.00    +0.123 A 
ATOM     19  C   UNL     1       5.632   8.114  -1.446  0.00  0.00    +0.038 A 
ATOM     20  C   UNL     1       4.603   7.370  -0.902  0.00  0.00    +0.008 A 
ATOM     21  C   UNL     1       4.798   6.677   0.278  0.00  0.00    -0.029 A 
ATOM     22  F   UNL     1       7.867   8.893  -1.338  0.00  0.00    -0.205 F 
ENDBRANCH  15  21
ENDBRANCH   8  15
ENDBRANCH   6  12
BRANCH   3  28
ATOM     23  C   UNL     1      -1.867  -0.563   1.024  0.00  0.00    -0.077 C 
ATOM     24  C   UNL     1      -3.273  -1.132   0.815  0.00  0.00    -0.019 C 
ATOM     25  C   UNL     1      -3.172  -2.627   0.499  0.00  0.00    -0.004 C 
ATOM     26  C   UNL     1      -2.294  -2.820  -0.741  0.00  0.00    -0.019 C 
ATOM     27  C   UNL     1      -0.917  -2.203  -0.486  0.00  0.00    -0.077 C 
ATOM     28  N   UNL     1      -1.081  -0.759  -0.212  0.00  0.00    +0.389 N 
ATOM     29  H   UNL     1      -1.582  -0.327  -0.997  0.00  0.00    -0.080 HD
ENDBRANCH   3  28
BRANCH   3  30
ATOM     30  C   UNL     1       1.034  -0.761   1.033  0.00  0.00    +0.200 C 
ATOM     31  O   UNL     1       1.184  -0.180   2.087  0.00  0.00    -0.278 OA
ATOM     32  N   UNL     1       1.575  -1.983   0.854  0.00  0.00    -0.330 N 
ATOM     33  H   UNL     1       1.398  -2.477   0.038  0.00  0.00    +0.145 HD
ATOM     34  H   UNL     1       2.142  -2.368   1.540  0.00  0.00    +0.145 HD
ENDBRANCH   3  30
TORSDOF 5
