REMARK  Name = ZINC20182421
REMARK  4 active torsions:
REMARK  status: ('A' for Active; 'I' for Inactive)
REMARK    1  A    between atoms: C_3  and  S_6
REMARK    2  A    between atoms: S_6  and  N_9
REMARK    3  A    between atoms: C_13  and  C_16
REMARK    4  A    between atoms: C_16  and  N_17
REMARK                            x       y       z     vdW  Elec       q    Type
REMARK                         _______ _______ _______ _____ _____    ______ ____
ROOT
ATOM      1  N   UNL     1      -0.706   1.562   1.213  0.00  0.00    -0.176 NA
ATOM      2  C   UNL     1      -2.146   1.289   1.351  0.00  0.00    +0.109 C 
ATOM      3  C   UNL     1      -2.868   1.797   0.099  0.00  0.00    +0.017 C 
ATOM      4  C   UNL     1      -2.228   1.174  -1.143  0.00  0.00    +0.004 C 
ATOM      5  C   UNL     1      -0.759   1.596  -1.228  0.00  0.00    -0.013 C 
ATOM      6  C   UNL     1      -0.013   1.086   0.008  0.00  0.00    +0.111 C 
ENDROOT
BRANCH   1   7
ATOM      7  S   UNL     1       0.116   2.392   2.386  0.00  0.00    +0.067 S 
ATOM      8  O   UNL     1      -0.615   2.221   3.593  0.00  0.00    -0.152 OA
ATOM      9  O   UNL     1       1.482   2.021   2.265  0.00  0.00    -0.152 OA
BRANCH   7  12
ATOM     10  C   UNL     1      -0.783   6.320   1.899  0.00  0.00    +0.010 A 
ATOM     11  C   UNL     1      -0.912   5.017   2.342  0.00  0.00    +0.036 A 
ATOM     12  C   UNL     1       0.021   4.104   1.978  0.00  0.00    +0.143 A 
ATOM     13  S   UNL     1       1.132   5.086   0.985  0.00  0.00    -0.077 S 
ATOM     14  C   UNL     1       0.273   6.646   1.114  0.00  0.00    +0.047 A 
ENDBRANCH   7  12
ENDBRANCH   1   7
BRANCH   5  15
ATOM     15  C   UNL     1      -0.129   0.999  -2.488  0.00  0.00    -0.082 C 
BRANCH  15  16
ATOM     16  N   UNL     1      -0.766   1.581  -3.677  0.00  0.00    +0.378 N 
ATOM     17  H   UNL     1      -0.312   1.151  -4.583  0.00  0.00    -0.090 HD
ATOM     18  H   UNL     1      -0.620   2.671  -3.676  0.00  0.00    -0.090 HD
ATOM     19  H   UNL     1      -1.842   1.354  -3.664  0.00  0.00    -0.090 HD
ENDBRANCH  15  16
ENDBRANCH   5  15
TORSDOF 4
