REMARK  Name = ZINC26268488
REMARK  8 active torsions:
REMARK  status: ('A' for Active; 'I' for Inactive)
REMARK    1  A    between atoms: C_15  and  C_17
REMARK    2  A    between atoms: C_17  and  C_19
REMARK    3  A    between atoms: C_17  and  N_26
REMARK    4  A    between atoms: C_19  and  C_20
REMARK    5  A    between atoms: C_29  and  C_34
REMARK    6  A    between atoms: C_34  and  C_35
REMARK    7  A    between atoms: C_35  and  C_36
REMARK    8  A    between atoms: C_36  and  N_37
REMARK                            x       y       z     vdW  Elec       q    Type
REMARK                         _______ _______ _______ _____ _____    ______ ____
ROOT
ATOM      1  C   UNL     1       8.378  -1.387  -0.647  0.00  0.00    +0.172 C 
ENDROOT
BRANCH   1  16
ATOM      2  C   UNL     1      -0.394   0.493  -0.014  0.00  0.00    +0.000 A 
ATOM      3  C   UNL     1       0.719   1.309  -0.095  0.00  0.00    +0.000 A 
ATOM      4  C   UNL     1       1.982   0.753  -0.104  0.00  0.00    +0.004 A 
ATOM      5  C   UNL     1       2.140  -0.622  -0.034  0.00  0.00    -0.038 A 
ATOM      6  C   UNL     1       1.027  -1.438   0.046  0.00  0.00    -0.044 A 
ATOM      7  C   UNL     1      -0.239  -0.878   0.056  0.00  0.00    +0.004 A 
ATOM      8  C   UNL     1       1.458  -2.888   0.111  0.00  0.00    +0.036 C 
ATOM      9  C   UNL     1       2.925  -2.895  -0.371  0.00  0.00    +0.016 C 
ATOM     10  C   UNL     1       3.391  -1.468  -0.026  0.00  0.00    -0.001 C 
ATOM     11  C   UNL     1       4.033  -1.451   1.358  0.00  0.00    +0.030 C 
ATOM     12  C   UNL     1       5.261  -2.368   1.360  0.00  0.00    +0.108 C 
ATOM     13  N   UNL     1       6.152  -1.966   0.263  0.00  0.00    -0.300 N 
ATOM     14  C   UNL     1       5.606  -1.884  -1.099  0.00  0.00    +0.108 C 
ATOM     15  C   UNL     1       4.375  -0.972  -1.082  0.00  0.00    +0.030 C 
ATOM     16  C   UNL     1       7.447  -1.677   0.501  0.00  0.00    +0.237 C 
ATOM     17  O   UNL     1       7.862  -1.649   1.640  0.00  0.00    -0.274 OA
ENDBRANCH   1  16
BRANCH   1  18
ATOM     18  N   UNL     1       9.766  -1.499  -0.191  0.00  0.00    -0.212 N 
ATOM     19  C   UNL     1      10.632  -2.437  -0.623  0.00  0.00    +0.244 C 
ATOM     20  O   UNL     1      10.418  -3.314  -1.431  0.00  0.00    -0.273 OA
ATOM     21  C   UNL     1      11.930  -2.166   0.113  0.00  0.00    +0.161 C 
ATOM     22  N   UNL     1      11.614  -0.997   0.952  0.00  0.00    -0.288 N 
ATOM     23  C   UNL     1      10.332  -0.678   0.702  0.00  0.00    +0.310 C 
ATOM     24  O   UNL     1       9.750   0.249   1.230  0.00  0.00    -0.252 OA
ATOM     25  H   UNL     1      12.216  -0.543   1.563  0.00  0.00    +0.151 HD
BRANCH  21  26
ATOM     26  C   UNL     1      13.050  -1.836  -0.876  0.00  0.00    +0.033 C 
BRANCH  26  27
ATOM     27  C   UNL     1      14.371  -1.690  -0.119  0.00  0.00    +0.023 C 
BRANCH  27  28
ATOM     28  C   UNL     1      15.492  -1.361  -1.108  0.00  0.00    +0.115 C 
BRANCH  28  29
ATOM     29  N   UNL     1      16.757  -1.221  -0.384  0.00  0.00    -0.358 N 
ATOM     30  C   UNL     1      17.906  -0.925  -1.064  0.00  0.00    +0.166 C 
ATOM     31  N   UNL     1      19.057  -0.798  -0.406  0.00  0.00    -0.372 N 
ATOM     32  N   UNL     1      17.874  -0.764  -2.386  0.00  0.00    -0.372 N 
ATOM     33  H   UNL     1      16.780  -1.338   0.579  0.00  0.00    +0.162 HD
ATOM     34  H   UNL     1      19.080  -0.915   0.557  0.00  0.00    +0.159 HD
ATOM     35  H   UNL     1      17.036  -0.857  -2.866  0.00  0.00    +0.159 HD
ATOM     36  H   UNL     1      18.689  -0.554  -2.869  0.00  0.00    +0.159 HD
ATOM     37  H   UNL     1      19.871  -0.588  -0.888  0.00  0.00    +0.159 HD
ENDBRANCH  28  29
ENDBRANCH  27  28
ENDBRANCH  26  27
ENDBRANCH  21  26
ENDBRANCH   1  18
BRANCH   1  38
ATOM     38  C   UNL     1       8.124   0.029  -1.166  0.00  0.00    +0.036 C 
BRANCH  38  39
ATOM     39  C   UNL     1       8.930   0.256  -2.446  0.00  0.00    -0.009 C 
ATOM     40  C   UNL     1      10.422   0.294  -2.110  0.00  0.00    +0.003 C 
ATOM     41  C   UNL     1      11.228   0.521  -3.390  0.00  0.00    +0.000 C 
ATOM     42  C   UNL     1      10.814   1.851  -4.025  0.00  0.00    +0.000 C 
ATOM     43  C   UNL     1       9.322   1.813  -4.361  0.00  0.00    +0.000 C 
ATOM     44  C   UNL     1       8.516   1.586  -3.081  0.00  0.00    +0.003 C 
ENDBRANCH  38  39
ENDBRANCH   1  38
TORSDOF 8
