REMARK  Name = ZINC15659813
REMARK  6 active torsions:
REMARK  status: ('A' for Active; 'I' for Inactive)
REMARK    1  A    between atoms: C_1  and  N_58
REMARK    2  A    between atoms: N_4  and  C_7
REMARK    3  A    between atoms: N_15  and  C_33
REMARK    4  A    between atoms: C_18  and  C_21
REMARK    5  A    between atoms: N_23  and  C_24
REMARK    6  A    between atoms: C_29  and  N_30
REMARK                            x       y       z     vdW  Elec       q    Type
REMARK                         _______ _______ _______ _____ _____    ______ ____
ROOT
ATOM      1  C   UNL     1       0.173   0.269   0.287  0.00  0.00    +0.110 A 
ATOM      2  C   UNL     1       0.040   1.647   0.476  0.00  0.00    +0.149 A 
ATOM      3  C   UNL     1       1.143   2.454   0.475  0.00  0.00    +0.054 A 
ATOM      4  C   UNL     1       2.412   1.902   0.280  0.00  0.00    +0.054 A 
ATOM      5  C   UNL     1       2.559   0.520   0.073  0.00  0.00    +0.116 A 
ATOM      6  C   UNL     1       1.424  -0.290   0.089  0.00  0.00    +0.172 A 
ATOM      7  O   UNL     1       1.578  -1.634  -0.086  0.00  0.00    -0.468 OA
ATOM      8  C   UNL     1       2.862  -2.147   0.298  0.00  0.00    +0.354 C 
ATOM      9  N   UNL     1       3.909  -1.383  -0.391  0.00  0.00    -0.238 N 
ATOM     10  N   UNL     1       3.805  -0.039  -0.145  0.00  0.00    -0.263 N 
ATOM     11  C   UNL     1       4.925   0.704  -0.127  0.00  0.00    +0.125 A 
ATOM     12  C   UNL     1       4.908   2.066   0.076  0.00  0.00    +0.102 A 
ATOM     13  C   UNL     1       3.619   2.745   0.284  0.00  0.00    +0.202 A 
ATOM     14  O   UNL     1       3.553   3.951   0.453  0.00  0.00    -0.286 OA
ATOM     15  C   UNL     1       5.245  -1.881  -0.035  0.00  0.00    +0.154 C 
ATOM     16  F   UNL     1      -1.186   2.185   0.656  0.00  0.00    -0.203 F 
ENDROOT
BRANCH   1  20
ATOM     17  C   UNL     1      -4.942  -1.947   0.482  0.00  0.00    -0.096 C 
ATOM     18  C   UNL     1      -2.850  -1.421   1.585  0.00  0.00    -0.060 C 
ATOM     19  C   UNL     1      -1.664  -0.455   1.585  0.00  0.00    +0.087 C 
ATOM     20  N   UNL     1      -0.960  -0.547   0.298  0.00  0.00    -0.328 N 
ATOM     21  C   UNL     1      -1.859  -0.214  -0.816  0.00  0.00    +0.087 C 
ATOM     22  C   UNL     1      -3.046  -1.181  -0.816  0.00  0.00    -0.060 C 
ATOM     23  N   UNL     1      -3.758  -1.062   0.474  0.00  0.00    +0.380 N 
ATOM     24  H   UNL     1      -4.066  -0.090   0.597  0.00  0.00    -0.082 HD
ENDBRANCH   1  20
BRANCH  12  25
ATOM     25  C   UNL     1       6.163   2.833   0.083  0.00  0.00    +0.253 C 
ATOM     26  O   UNL     1       6.140   4.036   0.262  0.00  0.00    -0.270 OA
ATOM     27  N   UNL     1       7.339   2.203  -0.110  0.00  0.00    -0.280 N 
ATOM     28  H   UNL     1       7.354   1.255  -0.314  0.00  0.00    +0.155 HD
BRANCH  27  29
ATOM     29  C   UNL     1       8.541   2.918  -0.015  0.00  0.00    +0.057 A 
ATOM     30  C   UNL     1       8.570   4.272  -0.312  0.00  0.00    +0.066 A 
ATOM     31  C   UNL     1       9.757   4.977  -0.218  0.00  0.00    +0.160 A 
ATOM     32  C   UNL     1      10.920   4.332   0.174  0.00  0.00    +0.160 A 
ATOM     33  C   UNL     1      10.898   2.981   0.472  0.00  0.00    +0.065 A 
ATOM     34  C   UNL     1       9.710   2.270   0.385  0.00  0.00    +0.049 A 
ATOM     35  F   UNL     1      12.077   5.024   0.266  0.00  0.00    -0.202 F 
ATOM     36  F   UNL     1       9.783   6.296  -0.508  0.00  0.00    -0.202 F 
BRANCH  34  37
ATOM     37  N   UNL     1       9.684   0.904   0.692  0.00  0.00    -0.356 N 
ATOM     38  H   UNL     1       8.854   0.408   0.627  0.00  0.00    +0.142 HD
ATOM     39  H   UNL     1      10.498   0.455   0.970  0.00  0.00    +0.142 HD
ENDBRANCH  34  37
ENDBRANCH  27  29
ENDBRANCH  12  25
TORSDOF 4
