REMARK  Name = ZINC57358747
REMARK  9 active torsions:
REMARK  status: ('A' for Active; 'I' for Inactive)
REMARK    1  A    between atoms: C_1  and  C_2
REMARK    2  A    between atoms: C_5  and  C_7
REMARK    3  A    between atoms: C_10  and  C_12
REMARK    4  A    between atoms: C_12  and  C_13
REMARK    5  A    between atoms: C_13  and  C_14
REMARK    6  A    between atoms: N_16  and  C_17
REMARK    7  A    between atoms: C_21  and  C_23
REMARK    8  A    between atoms: C_23  and  N_24
REMARK    9  A    between atoms: C_28  and  C_30
REMARK                            x       y       z     vdW  Elec       q    Type
REMARK                         _______ _______ _______ _____ _____    ______ ____
ROOT
ATOM      1  C   UNL     1       8.297   3.794   4.332  0.00  0.00    +0.034 A 
ATOM      2  C   UNL     1       7.989   5.146   4.250  0.00  0.00    +0.023 A 
ATOM      3  C   UNL     1       8.991   6.089   4.361  0.00  0.00    +0.002 A 
ATOM      4  C   UNL     1      10.301   5.688   4.552  0.00  0.00    +0.002 A 
ATOM      5  C   UNL     1      10.611   4.343   4.633  0.00  0.00    -0.062 A 
ATOM      6  C   UNL     1       9.612   3.395   4.530  0.00  0.00    +0.025 A 
ENDROOT
BRANCH   1   9
ATOM      7  C   UNL     1       6.244   3.048   3.389  0.00  0.00    +0.218 C 
ATOM      8  O   UNL     1       6.143   4.105   2.802  0.00  0.00    -0.275 OA
ATOM      9  N   UNL     1       7.283   2.836   4.220  0.00  0.00    -0.285 N 
ATOM     10  H   UNL     1       7.329   2.018   4.740  0.00  0.00    +0.155 HD
BRANCH   7  11
ATOM     11  C   UNL     1       5.207   1.973   3.189  0.00  0.00    +0.104 C 
BRANCH  11  12
ATOM     12  C   UNL     1       4.144   2.466   2.205  0.00  0.00    +0.083 C 
BRANCH  12  16
ATOM     13  C   UNL     1       2.058  -0.352   1.188  0.00  0.00    +0.109 A 
ATOM     14  C   UNL     1       1.309   0.112   2.204  0.00  0.00    +0.045 A 
ATOM     15  C   UNL     1       1.985   1.236   2.731  0.00  0.00    +0.045 A 
ATOM     16  C   UNL     1       3.107   1.391   2.005  0.00  0.00    +0.106 A 
ATOM     17  O   UNL     1       3.148   0.423   1.075  0.00  0.00    -0.464 OA
BRANCH  13  21
ATOM     18  C   UNL     1       1.765   0.123  -1.691  0.00  0.00    +0.008 C 
ATOM     19  C   UNL     1       1.576  -1.307  -1.179  0.00  0.00    -0.003 C 
ATOM     20  C   UNL     1       2.811  -2.034  -0.643  0.00  0.00    +0.015 C 
ATOM     21  C   UNL     1       1.731  -1.544   0.325  0.00  0.00    +0.058 C 
ENDBRANCH  13  21
ENDBRANCH  12  16
ENDBRANCH  11  12
ENDBRANCH   7  11
ENDBRANCH   1   9
BRANCH   5  22
ATOM     22  C   UNL     1      12.040   3.912   4.841  0.00  0.00    -0.042 C 
BRANCH  22  23
ATOM     23  N   UNL     1      12.317   3.810   6.280  0.00  0.00    +0.390 N 
ATOM     24  C   UNL     1      11.562   2.674   6.868  0.00  0.00    -0.077 C 
ATOM     25  C   UNL     1      12.354   2.353   8.160  0.00  0.00    -0.020 C 
ATOM     26  C   UNL     1      13.823   2.576   7.730  0.00  0.00    -0.008 C 
ATOM     27  C   UNL     1      13.746   3.504   6.504  0.00  0.00    +0.019 C 
ATOM     28  H   UNL     1      12.068   4.671   6.744  0.00  0.00    -0.080 HD
BRANCH  27  29
ATOM     29  C   UNL     1      14.507   4.777   6.776  0.00  0.00    +0.197 C 
ATOM     30  O   UNL     1      13.926   5.841   6.784  0.00  0.00    -0.278 OA
ATOM     31  N   UNL     1      15.834   4.732   7.009  0.00  0.00    -0.331 N 
ATOM     32  H   UNL     1      16.299   3.881   7.003  0.00  0.00    +0.145 HD
ATOM     33  H   UNL     1      16.323   5.551   7.184  0.00  0.00    +0.145 HD
ENDBRANCH  27  29
ENDBRANCH  22  23
ENDBRANCH   5  22
TORSDOF 8
