REMARK  Name = ZINC47629021
REMARK  8 active torsions:
REMARK  status: ('A' for Active; 'I' for Inactive)
REMARK    1  A    between atoms: C_1  and  C_2
REMARK    2  A    between atoms: C_2  and  C_4
REMARK    3  A    between atoms: C_2  and  N_18
REMARK    4  A    between atoms: N_6  and  C_7
REMARK    5  A    between atoms: C_11  and  C_13
REMARK    6  A    between atoms: N_18  and  C_19
REMARK    7  A    between atoms: N_18  and  C_20
REMARK    8  A    between atoms: C_20  and  C_21
REMARK                            x       y       z     vdW  Elec       q    Type
REMARK                         _______ _______ _______ _____ _____    ______ ____
ROOT
ATOM      1  C   UNL     1       0.040  -0.309   1.522  0.00  0.00    +0.203 C 
ATOM      2  O   UNL     1      -0.899  -0.777   2.130  0.00  0.00    -0.277 OA
ATOM      3  N   UNL     1       1.256  -0.254   2.100  0.00  0.00    -0.287 N 
ATOM      4  H   UNL     1       1.992   0.181   1.641  0.00  0.00    +0.155 HD
ENDROOT
BRANCH   3   5
ATOM      5  C   UNL     1       1.458  -0.826   3.361  0.00  0.00    +0.034 A 
ATOM      6  C   UNL     1       0.737  -1.951   3.739  0.00  0.00    +0.025 A 
ATOM      7  C   UNL     1       0.938  -2.513   4.984  0.00  0.00    +0.022 A 
ATOM      8  C   UNL     1       1.857  -1.956   5.856  0.00  0.00    +0.053 A 
ATOM      9  C   UNL     1       2.577  -0.835   5.482  0.00  0.00    +0.075 A 
ATOM     10  C   UNL     1       2.384  -0.272   4.235  0.00  0.00    +0.037 A 
ATOM     11 CL   UNL     1       2.107  -2.664   7.421  0.00  0.00    -0.083 Cl
BRANCH   9  12
ATOM     12  C   UNL     1       3.577  -0.231   6.434  0.00  0.00    +0.419 C 
ATOM     13  F   UNL     1       4.174   0.885   5.837  0.00  0.00    -0.166 F 
ATOM     14  F   UNL     1       2.926   0.162   7.608  0.00  0.00    -0.166 F 
ATOM     15  F   UNL     1       4.560  -1.178   6.741  0.00  0.00    -0.166 F 
ENDBRANCH   9  12
ENDBRANCH   3   5
BRANCH   1  17
ATOM     16  C   UNL     1      -0.468   1.708   0.171  0.00  0.00    -0.004 C 
ATOM     17  C   UNL     1      -0.153   0.211   0.121  0.00  0.00    +0.017 C 
BRANCH  17  18
ATOM     18  N   UNL     1      -1.267  -0.502  -0.518  0.00  0.00    +0.391 N 
ATOM     19  C   UNL     1      -0.958  -1.938  -0.578  0.00  0.00    -0.094 C 
ATOM     20  H   UNL     1      -2.109  -0.362   0.020  0.00  0.00    -0.080 HD
BRANCH  18  21
ATOM     21  C   UNL     1      -1.463   0.014  -1.879  0.00  0.00    +0.019 C 
BRANCH  21  22
ATOM     22  C   UNL     1      -2.681  -0.630  -2.489  0.00  0.00    +0.194 C 
ATOM     23  O   UNL     1      -3.322  -1.440  -1.853  0.00  0.00    -0.278 OA
ATOM     24  N   UNL     1      -3.058  -0.307  -3.742  0.00  0.00    -0.331 N 
ATOM     25  H   UNL     1      -2.545   0.341  -4.251  0.00  0.00    +0.145 HD
ATOM     26  H   UNL     1      -3.842  -0.721  -4.135  0.00  0.00    +0.145 HD
ENDBRANCH  21  22
ENDBRANCH  18  21
ENDBRANCH  17  18
ENDBRANCH   1  17
TORSDOF 6
