REMARK  Name = ZINC60552883
REMARK  9 active torsions:
REMARK  status: ('A' for Active; 'I' for Inactive)
REMARK    1  A    between atoms: C_1  and  C_2
REMARK    2  A    between atoms: N_4  and  C_5
REMARK    3  A    between atoms: C_12  and  C_15
REMARK    4  A    between atoms: N_17  and  C_18
REMARK    5  A    between atoms: C_18  and  C_19
REMARK    6  A    between atoms: C_19  and  C_20
REMARK    7  A    between atoms: C_19  and  N_26
REMARK    8  A    between atoms: N_26  and  C_27
REMARK    9  A    between atoms: N_26  and  C_28
REMARK                            x       y       z     vdW  Elec       q    Type
REMARK                         _______ _______ _______ _____ _____    ______ ____
ROOT
ATOM      1  C   UNL     1      -4.335  -4.865  -0.522  0.00  0.00    +0.219 C 
ATOM      2  O   UNL     1      -5.292  -4.167  -0.265  0.00  0.00    -0.275 OA
ATOM      3  N   UNL     1      -4.467  -6.206  -0.551  0.00  0.00    -0.316 N 
ATOM      4  H   UNL     1      -3.701  -6.765  -0.757  0.00  0.00    +0.149 HD
ENDROOT
BRANCH   1  12
ATOM      5  C   UNL     1      -1.761  -2.071  -1.006  0.00  0.00    +0.036 C 
ATOM      6  C   UNL     1      -0.734  -2.566   0.013  0.00  0.00    +0.029 C 
ATOM      7  C   UNL     1      -0.611  -4.088  -0.083  0.00  0.00    -0.008 C 
ATOM      8  C   UNL     1      -0.158  -4.475  -1.493  0.00  0.00    +0.007 C 
ATOM      9  C   UNL     1      -1.185  -3.980  -2.513  0.00  0.00    -0.008 C 
ATOM     10  C   UNL     1      -1.308  -2.458  -2.416  0.00  0.00    +0.029 C 
ATOM     11  C   UNL     1      -2.543  -4.621  -2.220  0.00  0.00    +0.020 C 
ATOM     12  C   UNL     1      -2.997  -4.234  -0.811  0.00  0.00    +0.049 C 
ATOM     13  C   UNL     1      -1.969  -4.729   0.209  0.00  0.00    +0.020 C 
ATOM     14  C   UNL     1      -3.119  -2.712  -0.714  0.00  0.00    +0.042 C 
BRANCH   5  18
ATOM     15  C   UNL     1      -0.921   1.663  -1.039  0.00  0.00    +0.109 C 
ATOM     16  C   UNL     1      -0.800   0.164  -1.134  0.00  0.00    +0.210 C 
ATOM     17  O   UNL     1       0.267  -0.342  -1.409  0.00  0.00    -0.276 OA
ATOM     18  N   UNL     1      -1.879  -0.614  -0.914  0.00  0.00    -0.310 N 
ATOM     19  H   UNL     1      -2.732  -0.209  -0.694  0.00  0.00    +0.149 HD
ENDBRANCH   5  18
ENDBRANCH   1  12
BRANCH   3  20
ATOM     20  C   UNL     1      -5.768  -6.820  -0.271  0.00  0.00    +0.089 C 
BRANCH  20  21
ATOM     21  C   UNL     1      -5.603  -8.337  -0.161  0.00  0.00    -0.049 C 
BRANCH  21  22
ATOM     22  C   UNL     1      -6.979  -8.991  -0.024  0.00  0.00    -0.023 C 
ATOM     23  C   UNL     1      -6.810 -10.496   0.190  0.00  0.00    +0.002 C 
ATOM     24  C   UNL     1      -8.186 -11.150   0.327  0.00  0.00    +0.000 C 
ATOM     25  C   UNL     1      -8.997 -10.905  -0.947  0.00  0.00    +0.000 C 
ATOM     26  C   UNL     1      -9.166  -9.399  -1.161  0.00  0.00    +0.000 C 
ATOM     27  C   UNL     1      -7.790  -8.745  -1.298  0.00  0.00    +0.002 C 
ENDBRANCH  21  22
BRANCH  21  28
ATOM     28  N   UNL     1      -4.789  -8.657   1.019  0.00  0.00    +0.379 N 
ATOM     29  C   UNL     1      -3.429  -8.135   0.832  0.00  0.00    -0.096 C 
ATOM     30  C   UNL     1      -5.390  -8.043   2.210  0.00  0.00    -0.096 C 
ATOM     31  H   UNL     1      -4.751  -9.658   1.140  0.00  0.00    -0.082 HD
ENDBRANCH  21  28
ENDBRANCH  20  21
ENDBRANCH   3  20
TORSDOF 6
