REMARK  Name = ZINC43145402
REMARK  11 active torsions:
REMARK  status: ('A' for Active; 'I' for Inactive)
REMARK    1  A    between atoms: C_1  and  N_2
REMARK    2  A    between atoms: N_2  and  C_3
REMARK    3  A    between atoms: N_2  and  C_4
REMARK    4  A    between atoms: C_4  and  C_6
REMARK    5  A    between atoms: C_4  and  C_22
REMARK    6  A    between atoms: C_6  and  N_7
REMARK    7  A    between atoms: N_10  and  C_11
REMARK    8  A    between atoms: C_11  and  C_12
REMARK    9  A    between atoms: C_12  and  C_13
REMARK   10  A    between atoms: C_16  and  S_18
REMARK   11  A    between atoms: S_18  and  N_21
REMARK                            x       y       z     vdW  Elec       q    Type
REMARK                         _______ _______ _______ _____ _____    ______ ____
ROOT
ATOM      1  N   UNL     1       0.044  -2.014   1.012  0.00  0.00    -0.301 N 
ATOM      2  C   UNL     1       0.458  -3.278   1.232  0.00  0.00    +0.300 C 
ATOM      3  O   UNL     1       0.107  -4.171   0.484  0.00  0.00    -0.253 OA
ATOM      4  N   UNL     1       1.260  -3.553   2.279  0.00  0.00    -0.299 N 
ATOM      5  H   UNL     1       0.325  -1.302   1.609  0.00  0.00    +0.150 HD
ATOM      6  H   UNL     1       1.540  -2.841   2.875  0.00  0.00    +0.150 HD
ENDROOT
BRANCH   1   7
ATOM      7  C   UNL     1      -0.828  -1.716  -0.126  0.00  0.00    +0.095 C 
BRANCH   7   8
ATOM      8  C   UNL     1      -1.251  -0.247  -0.073  0.00  0.00    -0.014 C 
BRANCH   8   9
ATOM      9  C   UNL     1      -2.103  -0.013   1.148  0.00  0.00    -0.022 A 
ATOM     10  C   UNL     1      -1.753   0.526   2.342  0.00  0.00    +0.009 A 
ATOM     11  C   UNL     1      -2.712   0.645   3.330  0.00  0.00    +0.008 A 
ATOM     12  C   UNL     1      -3.974   0.219   3.076  0.00  0.00    +0.045 A 
ATOM     13  S   UNL     1      -3.835  -0.366   1.395  0.00  0.00    -0.103 S 
ENDBRANCH   8   9
BRANCH   8  15
ATOM     14  C   UNL     1      -2.489   1.475  -1.195  0.00  0.00    -0.096 C 
ATOM     15  N   UNL     1      -2.022   0.085  -1.279  0.00  0.00    +0.382 N 
ATOM     16  C   UNL     1      -1.170  -0.075  -2.465  0.00  0.00    -0.096 C 
ATOM     17  H   UNL     1      -2.817  -0.533  -1.350  0.00  0.00    -0.082 HD
ENDBRANCH   8  15
ENDBRANCH   7   8
ENDBRANCH   1   7
BRANCH   4  18
ATOM     18  C   UNL     1       1.709  -4.927   2.518  0.00  0.00    +0.111 C 
BRANCH  18  19
ATOM     19  C   UNL     1       2.602  -4.963   3.760  0.00  0.00    +0.061 C 
BRANCH  19  20
ATOM     20  C   UNL     1       3.064  -6.377   4.005  0.00  0.00    -0.007 A 
ATOM     21  C   UNL     1       4.175  -7.003   3.545  0.00  0.00    +0.013 A 
ATOM     22  C   UNL     1       4.399  -8.319   3.904  0.00  0.00    +0.036 A 
ATOM     23  C   UNL     1       3.501  -8.944   4.705  0.00  0.00    +0.142 A 
ATOM     24  S   UNL     1       2.295  -7.657   4.982  0.00  0.00    -0.073 S 
BRANCH  23  25
ATOM     25  S   UNL     1       3.522 -10.596   5.318  0.00  0.00    +0.062 S 
ATOM     26  O   UNL     1       2.175 -10.938   5.611  0.00  0.00    -0.153 OA
ATOM     27  O   UNL     1       4.322 -11.352   4.420  0.00  0.00    -0.153 OA
BRANCH  25  28
ATOM     28  N   UNL     1       4.329 -10.571   6.764  0.00  0.00    -0.203 NA
ATOM     29  H   UNL     1       4.103 -11.211   7.457  0.00  0.00    +0.144 HD
ATOM     30  H   UNL     1       5.028  -9.916   6.918  0.00  0.00    +0.144 HD
ENDBRANCH  25  28
ENDBRANCH  23  25
ENDBRANCH  19  20
ENDBRANCH  18  19
ENDBRANCH   4  18
TORSDOF 9
