REMARK  Name = ZINC63659127
REMARK  12 active torsions:
REMARK  status: ('A' for Active; 'I' for Inactive)
REMARK    1  A    between atoms: C_1  and  C_2
REMARK    2  A    between atoms: C_7  and  C_33
REMARK    3  A    between atoms: C_9  and  C_12
REMARK    4  A    between atoms: C_12  and  C_13
REMARK    5  A    between atoms: C_13  and  N_14
REMARK    6  A    between atoms: N_14  and  C_15
REMARK    7  A    between atoms: N_14  and  C_22
REMARK    8  A    between atoms: C_15  and  C_16
REMARK    9  A    between atoms: C_22  and  N_24
REMARK   10  A    between atoms: N_24  and  C_25
REMARK   11  A    between atoms: C_27  and  C_32
REMARK   12  A    between atoms: C_30  and  C_31
REMARK                            x       y       z     vdW  Elec       q    Type
REMARK                         _______ _______ _______ _____ _____    ______ ____
ROOT
ATOM      1  N   UNL     1       0.025  -1.412   5.428  0.00  0.00    -0.306 N 
ENDROOT
BRANCH   1   2
ATOM      2  C   UNL     1      -1.122  -1.308   6.128  0.00  0.00    +0.137 C 
ATOM      3  S   UNL     1      -2.576  -1.947   5.489  0.00  0.00    -0.018 S 
BRANCH   2   4
ATOM      4  N   UNL     1      -1.124  -0.702   7.332  0.00  0.00    -0.297 N 
ATOM      5  H   UNL     1      -0.289  -0.411   7.730  0.00  0.00    +0.154 HD
BRANCH   4   6
ATOM      6  C   UNL     1      -2.331  -0.492   8.007  0.00  0.00    +0.036 A 
ATOM      7  C   UNL     1      -3.439  -0.012   7.320  0.00  0.00    +0.027 A 
ATOM      8  C   UNL     1      -4.629   0.193   7.990  0.00  0.00    -0.049 A 
ATOM      9  C   UNL     1      -4.719  -0.078   9.343  0.00  0.00    +0.004 A 
ATOM     10  C   UNL     1      -3.618  -0.555  10.030  0.00  0.00    +0.005 A 
ATOM     11  C   UNL     1      -2.426  -0.769   9.365  0.00  0.00    -0.029 A 
ATOM     12  C   UNL     1      -1.229  -1.295  10.113  0.00  0.00    +0.045 C 
ATOM     13  C   UNL     1      -5.832   0.714   7.245  0.00  0.00    +0.044 C 
ENDBRANCH   4   6
ENDBRANCH   2   4
ENDBRANCH   1   2
BRANCH   1  14
ATOM     14  C   UNL     1       0.027  -2.071   4.120  0.00  0.00    +0.111 C 
BRANCH  14  15
ATOM     15  C   UNL     1       0.303  -3.565   4.301  0.00  0.00    +0.052 C 
BRANCH  15  23
ATOM     16  C   UNL     1      -0.625  -0.574  -0.377  0.00  0.00    +0.044 C 
ATOM     17  C   UNL     1      -0.341  -1.995   0.038  0.00  0.00    -0.050 A 
ATOM     18  C   UNL     1      -0.253  -2.989  -0.946  0.00  0.00    +0.005 A 
ATOM     19  C   UNL     1      -0.001  -4.282  -0.655  0.00  0.00    +0.026 A 
ATOM     20  C   UNL     1       0.188  -4.692   0.693  0.00  0.00    +0.043 A 
ATOM     21  N   UNL     1       0.438  -5.866   1.222  0.00  0.00    -0.378 N 
ATOM     22  C   UNL     1       0.537  -5.711   2.678  0.00  0.00    +0.103 C 
ATOM     23  C   UNL     1       0.305  -4.243   2.956  0.00  0.00    -0.037 C 
ATOM     24  C   UNL     1       0.100  -3.662   1.752  0.00  0.00    -0.001 A 
ATOM     25  C   UNL     1      -0.172  -2.276   1.350  0.00  0.00    +0.013 A 
ATOM     26  C   UNL     1       1.929  -6.127   3.159  0.00  0.00    +0.035 C 
ATOM     27  H   UNL     1       0.541  -6.697   0.733  0.00  0.00    +0.160 HD
ENDBRANCH  15  23
ENDBRANCH  14  15
ENDBRANCH   1  14
BRANCH   1  28
ATOM     28  C   UNL     1       1.269  -0.865   5.975  0.00  0.00    +0.162 C 
BRANCH  28  29
ATOM     29  C   UNL     1       1.424   0.568   5.535  0.00  0.00    +0.058 A 
ATOM     30  C   UNL     1       1.001   1.588   6.366  0.00  0.00    +0.025 A 
ATOM     31  C   UNL     1       1.149   2.902   5.952  0.00  0.00    +0.003 A 
ATOM     32  C   UNL     1       1.719   3.143   4.711  0.00  0.00    +0.020 A 
ATOM     33  C   UNL     1       2.118   2.072   3.934  0.00  0.00    +0.111 A 
ATOM     34  N   UNL     1       1.967   0.834   4.363  0.00  0.00    -0.258 NA
ENDBRANCH  28  29
ENDBRANCH   1  28
TORSDOF 8
