REMARK  Name = ZINC15919368
REMARK  10 active torsions:
REMARK  status: ('A' for Active; 'I' for Inactive)
REMARK    1  A    between atoms: C_1  and  C_2
REMARK    2  A    between atoms: C_2  and  O_3
REMARK    3  A    between atoms: O_3  and  C_4
REMARK    4  A    between atoms: C_9  and  N_10
REMARK    5  A    between atoms: C_11  and  C_13
REMARK    6  A    between atoms: C_17  and  N_18
REMARK    7  A    between atoms: C_19  and  C_21
REMARK    8  A    between atoms: C_21  and  N_59
REMARK    9  A    between atoms: C_22  and  C_23
REMARK   10  A    between atoms: C_22  and  N_59
REMARK                            x       y       z     vdW  Elec       q    Type
REMARK                         _______ _______ _______ _____ _____    ______ ____
ROOT
ATOM      1  C   UNL     1      -3.446   5.234   8.719  0.00  0.00    +0.069 A 
ATOM      2  C   UNL     1      -2.623   5.605   9.870  0.00  0.00    -0.023 A 
ATOM      3  C   UNL     1      -1.295   5.552   9.663  0.00  0.00    -0.004 A 
ATOM      4  S   UNL     1      -1.121   5.017   7.978  0.00  0.00    -0.077 S 
ATOM      5  C   UNL     1      -2.792   4.874   7.553  0.00  0.00    +0.084 A 
ATOM      6  C   UNL     1      -0.517   5.943  10.890  0.00  0.00    +0.043 C 
ATOM      7  C   UNL     1      -1.536   5.840  12.046  0.00  0.00    +0.010 C 
ATOM      8  C   UNL     1      -2.871   6.061  11.308  0.00  0.00    +0.037 C 
ENDROOT
BRANCH   1  10
ATOM      9  N   UNL     1      -5.595   6.360   8.484  0.00  0.00    -0.278 N 
ATOM     10  C   UNL     1      -4.910   5.243   8.798  0.00  0.00    +0.251 C 
ATOM     11  O   UNL     1      -5.506   4.241   9.147  0.00  0.00    -0.270 OA
ATOM     12  H   UNL     1      -5.119   7.181   8.284  0.00  0.00    +0.155 HD
BRANCH   9  18
ATOM     13  C   UNL     1      -7.719   7.511   8.634  0.00  0.00    +0.142 A 
ATOM     14  C   UNL     1      -9.104   7.481   8.596  0.00  0.00    +0.047 A 
ATOM     15  C   UNL     1      -9.764   6.287   8.373  0.00  0.00    +0.004 A 
ATOM     16  C   UNL     1      -9.046   5.120   8.186  0.00  0.00    +0.002 A 
ATOM     17  C   UNL     1      -7.664   5.142   8.217  0.00  0.00    +0.027 A 
ATOM     18  C   UNL     1      -6.995   6.336   8.447  0.00  0.00    +0.076 A 
BRANCH  13  19
ATOM     19  O   UNL     1      -7.069   8.685   8.853  0.00  0.00    -0.490 OA
BRANCH  19  21
ATOM     20  C   UNL     1      -6.974  11.064   9.268  0.00  0.00    +0.048 C 
ATOM     21  C   UNL     1      -7.876   9.849   9.036  0.00  0.00    +0.226 C 
ENDBRANCH  19  21
ENDBRANCH  13  19
ENDBRANCH   9  18
ENDBRANCH   1  10
BRANCH   5  22
ATOM     22  N   UNL     1      -3.343   4.486   6.341  0.00  0.00    -0.281 N 
ATOM     23  C   UNL     1      -2.540   4.169   5.306  0.00  0.00    +0.201 C 
ATOM     24  O   UNL     1      -1.335   4.222   5.436  0.00  0.00    -0.278 OA
ATOM     25  H   UNL     1      -4.307   4.443   6.238  0.00  0.00    +0.155 HD
BRANCH  23  26
ATOM     26  C   UNL     1      -3.138   3.748   3.989  0.00  0.00    +0.015 C 
BRANCH  26  27
ATOM     27  N   UNL     1      -2.051   3.459   3.035  0.00  0.00    +0.386 N 
ATOM     28  H   UNL     1      -1.464   2.704   3.408  0.00  0.00    -0.085 HD
ATOM     29  H   UNL     1      -1.482   4.303   2.905  0.00  0.00    -0.085 HD
BRANCH  27  30
ATOM     30  C   UNL     1      -2.609   3.043   1.734  0.00  0.00    -0.050 C 
BRANCH  30  31
ATOM     31  C   UNL     1      -1.461   2.751   0.766  0.00  0.00    +0.101 C 
ATOM     32  C   UNL     1      -2.007   2.432  -0.649  0.00  0.00    +0.032 C 
ATOM     33  C   UNL     1      -0.863   1.582  -1.254  0.00  0.00    +0.030 C 
ATOM     34  C   UNL     1      -0.089   1.061  -0.027  0.00  0.00    +0.160 C 
ATOM     35  O   UNL     1      -0.771   1.538   1.146  0.00  0.00    -0.378 OA
ENDBRANCH  30  31
ENDBRANCH  27  30
ENDBRANCH  26  27
ENDBRANCH  23  26
ENDBRANCH   5  22
TORSDOF 9
