REMARK  Name = ZINC16958097
REMARK  8 active torsions:
REMARK  status: ('A' for Active; 'I' for Inactive)
REMARK    1  A    between atoms: C_4  and  C_7
REMARK    2  A    between atoms: C_7  and  C_9
REMARK    3  A    between atoms: C_7  and  C_23
REMARK    4  A    between atoms: C_9  and  C_10
REMARK    5  A    between atoms: C_10  and  C_16
REMARK    6  A    between atoms: N_11  and  N_12
REMARK    7  A    between atoms: C_16  and  C_17
REMARK    8  A    between atoms: C_17  and  N_18
REMARK                            x       y       z     vdW  Elec       q    Type
REMARK                         _______ _______ _______ _____ _____    ______ ____
ROOT
ATOM      1  C   UNL     1       3.951  -1.550   1.153  0.00  0.00    +0.065 C 
ENDROOT
BRANCH   1   2
ATOM      2  C   UNL     1       3.678  -0.762   2.408  0.00  0.00    +0.038 C 
ATOM      3  N   UNL     1       3.619   0.516   2.361  0.00  0.00    -0.181 NA
BRANCH   3   4
ATOM      4  N   UNL     1       3.475   1.254   3.543  0.00  0.00    -0.249 N 
ATOM      5  C   UNL     1       3.301   2.612   3.486  0.00  0.00    +0.187 C 
ATOM      6  N   UNL     1       3.262   3.326   4.610  0.00  0.00    -0.370 N 
ATOM      7  N   UNL     1       3.172   3.218   2.307  0.00  0.00    -0.370 N 
ATOM      8  H   UNL     1       3.498   0.804   4.402  0.00  0.00    +0.192 HD
ATOM      9  H   UNL     1       3.139   4.288   4.569  0.00  0.00    +0.159 HD
ATOM     10  H   UNL     1       3.127   2.692   1.493  0.00  0.00    +0.159 HD
ATOM     11  H   UNL     1       3.123   4.186   2.261  0.00  0.00    +0.159 HD
ATOM     12  H   UNL     1       3.356   2.885   5.468  0.00  0.00    +0.159 HD
ENDBRANCH   3   4
BRANCH   2  13
ATOM     13  C   UNL     1       3.474  -1.478   3.718  0.00  0.00    +0.034 C 
BRANCH  13  14
ATOM     14  C   UNL     1       4.819  -1.628   4.432  0.00  0.00    -0.073 C 
BRANCH  14  15
ATOM     15  N   UNL     1       4.637  -2.416   5.658  0.00  0.00    +0.380 N 
ATOM     16  C   UNL     1       4.309  -3.824   5.319  0.00  0.00    -0.079 C 
ATOM     17  C   UNL     1       4.703  -4.599   6.601  0.00  0.00    -0.020 C 
ATOM     18  C   UNL     1       5.979  -3.864   7.071  0.00  0.00    -0.020 C 
ATOM     19  C   UNL     1       5.902  -2.470   6.423  0.00  0.00    -0.079 C 
ATOM     20  H   UNL     1       3.905  -2.014   6.225  0.00  0.00    -0.082 HD
ENDBRANCH  14  15
ENDBRANCH  13  14
ENDBRANCH   2  13
ENDBRANCH   1   2
BRANCH   1  21
ATOM     21  C   UNL     1       3.974  -0.603  -0.049  0.00  0.00    +0.065 C 
BRANCH  21  22
ATOM     22  C   UNL     1       4.405  -1.361  -1.278  0.00  0.00    +0.092 A 
ATOM     23  C   UNL     1       5.465  -0.919  -2.021  0.00  0.00    +0.200 A 
ATOM     24  C   UNL     1       5.846  -1.696  -3.211  0.00  0.00    +0.065 A 
ATOM     25  C   UNL     1       6.918  -1.302  -4.015  0.00  0.00    +0.015 A 
ATOM     26  C   UNL     1       7.249  -2.051  -5.122  0.00  0.00    +0.001 A 
ATOM     27  C   UNL     1       6.523  -3.190  -5.440  0.00  0.00    +0.004 A 
ATOM     28  C   UNL     1       5.462  -3.590  -4.655  0.00  0.00    +0.047 A 
ATOM     29  C   UNL     1       5.112  -2.849  -3.533  0.00  0.00    +0.143 A 
ATOM     30  O   UNL     1       4.077  -3.226  -2.752  0.00  0.00    -0.422 OA
ATOM     31  C   UNL     1       3.725  -2.527  -1.661  0.00  0.00    +0.345 A 
ATOM     32  O   UNL     1       2.785  -2.914  -0.988  0.00  0.00    -0.245 OA
ATOM     33  O   UNL     1       6.142   0.198  -1.672  0.00  0.00    -0.287 OA
ENDBRANCH  21  22
BRANCH  21  37
ATOM     34  C   UNL     1       0.065   1.005  -0.670  0.00  0.00    +0.000 A 
ATOM     35  C   UNL     1       1.180   1.752  -1.000  0.00  0.00    +0.000 A 
ATOM     36  C   UNL     1       2.445   1.232  -0.799  0.00  0.00    +0.004 A 
ATOM     37  C   UNL     1       2.595  -0.036  -0.267  0.00  0.00    -0.039 A 
ATOM     38  C   UNL     1       1.480  -0.782   0.064  0.00  0.00    +0.004 A 
ATOM     39  C   UNL     1       0.215  -0.263  -0.139  0.00  0.00    +0.000 A 
ENDBRANCH  21  37
ENDBRANCH   1  21
TORSDOF 8
