REMARK  Name = ZINC22756876
REMARK  8 active torsions:
REMARK  status: ('A' for Active; 'I' for Inactive)
REMARK    1  A    between atoms: C_1  and  C_2
REMARK    2  A    between atoms: C_5  and  N_9
REMARK    3  A    between atoms: C_6  and  C_8
REMARK    4  A    between atoms: C_13  and  C_15
REMARK    5  A    between atoms: C_15  and  C_17
REMARK    6  A    between atoms: C_15  and  N_18
REMARK    7  A    between atoms: N_21  and  C_24
REMARK    8  A    between atoms: C_27  and  O_30
REMARK                            x       y       z     vdW  Elec       q    Type
REMARK                         _______ _______ _______ _____ _____    ______ ____
ROOT
ATOM      1  C   UNL     1       0.003  -0.004  -0.032  0.00  0.00    +0.017 C 
ATOM      2  C   UNL     1       0.746  -0.523   1.201  0.00  0.00    -0.004 C 
ENDROOT
BRANCH   1   7
ATOM      3  N   UNL     1       2.279   4.230   0.003  0.00  0.00    -0.269 N 
ATOM      4  C   UNL     1       1.121   3.540   0.007  0.00  0.00    +0.310 C 
ATOM      5  O   UNL     1       0.061   4.133   0.028  0.00  0.00    -0.252 OA
ATOM      6  N   UNL     1       1.140   2.192  -0.013  0.00  0.00    -0.241 N 
ATOM      7  C   UNL     1      -0.018   1.502  -0.010  0.00  0.00    +0.207 C 
ATOM      8  O   UNL     1      -1.076   2.094   0.006  0.00  0.00    -0.277 OA
ATOM      9  H   UNL     1       3.238   3.696   0.077  0.00  0.00    +0.156 HD
ATOM     10  H   UNL     1       2.100   1.656  -0.033  0.00  0.00    +0.159 HD
BRANCH   3  15
ATOM     11  C   UNL     1       2.207   9.889  -0.393  0.00  0.00    +0.044 C 
ATOM     12  C   UNL     1       2.227   8.386  -0.288  0.00  0.00    -0.050 A 
ATOM     13  C   UNL     1       1.168   7.646  -0.782  0.00  0.00    +0.005 A 
ATOM     14  C   UNL     1       1.182   6.268  -0.687  0.00  0.00    +0.024 A 
ATOM     15  C   UNL     1       2.261   5.626  -0.095  0.00  0.00    +0.038 A 
ATOM     16  C   UNL     1       3.321   6.372   0.405  0.00  0.00    -0.029 A 
ATOM     17  C   UNL     1       3.303   7.749   0.302  0.00  0.00    +0.008 A 
ATOM     18  C   UNL     1       4.491   5.679   1.054  0.00  0.00    +0.045 C 
ENDBRANCH   3  15
ENDBRANCH   1   7
BRANCH   1  19
ATOM     19  N   UNL     1      -1.375  -0.513  -0.023  0.00  0.00    +0.389 N 
ATOM     20  C   UNL     1      -2.084  -0.093   1.194  0.00  0.00    -0.059 C 
ATOM     21  C   UNL     1      -3.535  -0.575   1.128  0.00  0.00    +0.086 C 
ATOM     22  N   UNL     1      -3.557  -2.037   0.987  0.00  0.00    -0.333 N 
ATOM     23  C   UNL     1      -2.849  -2.457  -0.230  0.00  0.00    +0.086 C 
ATOM     24  C   UNL     1      -1.397  -1.976  -0.164  0.00  0.00    -0.059 C 
ATOM     25  H   UNL     1      -1.899  -0.080  -0.888  0.00  0.00    -0.081 HD
BRANCH  22  26
ATOM     26  C   UNL     1      -4.870  -2.522   0.995  0.00  0.00    +0.030 A 
ATOM     27  C   UNL     1      -5.336  -3.286  -0.067  0.00  0.00    +0.026 A 
ATOM     28  C   UNL     1      -6.630  -3.768  -0.055  0.00  0.00    +0.047 A 
ATOM     29  C   UNL     1      -7.468  -3.481   1.012  0.00  0.00    +0.117 A 
ATOM     30  C   UNL     1      -7.005  -2.714   2.071  0.00  0.00    +0.047 A 
ATOM     31  C   UNL     1      -5.710  -2.235   2.063  0.00  0.00    +0.026 A 
BRANCH  29  32
ATOM     32  O   UNL     1      -8.744  -3.951   1.020  0.00  0.00    -0.507 OA
ATOM     33  H   UNL     1      -9.409  -3.724   1.866  0.00  0.00    +0.292 HD
ENDBRANCH  29  32
ENDBRANCH  22  26
ENDBRANCH   1  19
TORSDOF 5
