REMARK  Name = ZINC42958540
REMARK  9 active torsions:
REMARK  status: ('A' for Active; 'I' for Inactive)
REMARK    1  A    between atoms: C_1  and  C_2
REMARK    2  A    between atoms: C_2  and  C_3
REMARK    3  A    between atoms: C_3  and  C_5
REMARK    4  A    between atoms: C_3  and  N_22
REMARK    5  A    between atoms: C_5  and  C_7
REMARK    6  A    between atoms: C_5  and  O_14
REMARK    7  A    between atoms: O_14  and  C_15
REMARK    8  A    between atoms: C_15  and  C_16
REMARK    9  A    between atoms: C_16  and  C_17
REMARK                            x       y       z     vdW  Elec       q    Type
REMARK                         _______ _______ _______ _____ _____    ______ ____
ROOT
ATOM      1  C   UNL     1       0.634  -2.025   1.304  0.00  0.00    +0.134 C 
ENDROOT
BRANCH   1   2
ATOM      2  C   UNL     1      -0.800  -2.437   1.516  0.00  0.00    -0.020 A 
ATOM      3  C   UNL     1      -1.354  -2.385   2.782  0.00  0.00    +0.007 A 
ATOM      4  C   UNL     1      -2.669  -2.762   2.977  0.00  0.00    +0.015 A 
ATOM      5  C   UNL     1      -3.432  -3.192   1.906  0.00  0.00    +0.018 A 
ATOM      6  C   UNL     1      -2.877  -3.244   0.639  0.00  0.00    +0.015 A 
ATOM      7  C   UNL     1      -1.563  -2.861   0.444  0.00  0.00    +0.007 A 
ATOM      8 BR   UNL     1      -5.231  -3.709   2.172  0.00  0.00    -0.050 Br
ENDBRANCH   1   2
BRANCH   1   9
ATOM      9  C   UNL     1       0.723  -0.499   1.245  0.00  0.00    -0.042 C 
BRANCH   9  10
ATOM     10  N   UNL     1       2.133  -0.093   1.176  0.00  0.00    +0.382 N 
ATOM     11  H   UNL     1       2.196   0.913   1.222  0.00  0.00    -0.090 HD
ATOM     12  H   UNL     1       2.637  -0.497   1.951  0.00  0.00    -0.090 HD
ATOM     13  H   UNL     1       2.534  -0.416   0.308  0.00  0.00    -0.090 HD
ENDBRANCH   9  10
BRANCH   9  15
ATOM     14  C   UNL     1      -0.034   1.538   0.011  0.00  0.00    +0.002 C 
ATOM     15  C   UNL     1      -0.015   0.008   0.004  0.00  0.00    -0.017 C 
ENDBRANCH   9  15
ENDBRANCH   1   9
BRANCH   1  16
ATOM     16  O   UNL     1       1.433  -2.508   2.385  0.00  0.00    -0.373 OA
BRANCH  16  17
ATOM     17  C   UNL     1       2.058  -3.767   2.130  0.00  0.00    +0.165 C 
BRANCH  17  18
ATOM     18  C   UNL     1       2.980  -4.125   3.297  0.00  0.00    +0.070 C 
BRANCH  18  19
ATOM     19  C   UNL     1       3.638  -5.454   3.028  0.00  0.00    -0.008 A 
ATOM     20  C   UNL     1       4.812  -5.713   2.401  0.00  0.00    +0.011 A 
ATOM     21  C   UNL     1       5.224  -7.026   2.267  0.00  0.00    +0.008 A 
ATOM     22  C   UNL     1       4.443  -8.015   2.766  0.00  0.00    +0.045 A 
ATOM     23  S   UNL     1       3.079  -7.094   3.458  0.00  0.00    -0.102 S 
ENDBRANCH  18  19
ENDBRANCH  17  18
ENDBRANCH  16  17
ENDBRANCH   1  16
TORSDOF 8
