REMARK  Name = ZINC11878157
REMARK  9 active torsions:
REMARK  status: ('A' for Active; 'I' for Inactive)
REMARK    1  A    between atoms: C_2  and  C_3
REMARK    2  A    between atoms: C_3  and  C_4
REMARK    3  A    between atoms: C_4  and  C_30
REMARK    4  A    between atoms: C_9  and  C_11
REMARK    5  A    between atoms: C_11  and  C_12
REMARK    6  A    between atoms: C_19  and  C_20
REMARK    7  A    between atoms: C_19  and  N_62
REMARK    8  A    between atoms: C_25  and  C_26
REMARK    9  A    between atoms: C_30  and  C_31
REMARK                            x       y       z     vdW  Elec       q    Type
REMARK                         _______ _______ _______ _____ _____    ______ ____
ROOT
ATOM      1  C   UNL     1      -5.345   3.272   2.791  0.00  0.00    +0.028 C 
ATOM      2  C   UNL     1      -4.931   4.663   3.182  0.00  0.00    +0.200 C 
ATOM      3  O   UNL     1      -3.757   4.959   3.117  0.00  0.00    -0.278 OA
ATOM      4  N   UNL     1      -5.803   5.587   3.598  0.00  0.00    -0.318 N 
ATOM      5  C   UNL     1      -7.240   5.343   3.678  0.00  0.00    +0.085 C 
ATOM      6  C   UNL     1      -7.518   3.839   3.669  0.00  0.00    -0.058 C 
ATOM      7  H   UNL     1      -5.465   6.458   3.858  0.00  0.00    +0.149 HD
ATOM      8  N   UNL     1      -6.795   3.247   2.526  0.00  0.00    +0.391 N 
ATOM      9  H   UNL     1      -6.992   3.798   1.683  0.00  0.00    -0.080 HD
ENDROOT
BRANCH   1  10
ATOM     10  C   UNL     1      -4.599   2.858   1.520  0.00  0.00    +0.090 C 
BRANCH  10  16
ATOM     11  C   UNL     1      -0.802   2.280   0.993  0.00  0.00    +0.044 C 
ATOM     12  C   UNL     1      -0.215   2.062  -0.418  0.00  0.00    +0.028 C 
ATOM     13  C   UNL     1      -1.286   2.694  -1.346  0.00  0.00    +0.021 C 
ATOM     14  C   UNL     1      -2.595   2.338  -0.598  0.00  0.00    +0.108 C 
ATOM     15  N   UNL     1      -2.257   2.459   0.832  0.00  0.00    -0.295 N 
ATOM     16  C   UNL     1      -3.133   2.695   1.829  0.00  0.00    +0.215 C 
ATOM     17  O   UNL     1      -2.742   2.776   2.974  0.00  0.00    -0.276 OA
BRANCH  11  18
ATOM     18  C   UNL     1      -0.518   1.058   1.869  0.00  0.00    +0.052 C 
BRANCH  18  20
ATOM     19  C   UNL     1       1.586   0.719   3.059  0.00  0.00    +0.004 C 
ATOM     20  C   UNL     1       0.967   0.803   1.908  0.00  0.00    -0.032 C 
ENDBRANCH  18  20
ENDBRANCH  11  18
BRANCH  11  21
ATOM     21  C   UNL     1      -0.189   3.531   1.624  0.00  0.00    +0.052 C 
BRANCH  21  22
ATOM     22  C   UNL     1      -0.508   4.732   0.772  0.00  0.00    -0.032 C 
ATOM     23  C   UNL     1      -1.181   5.735   1.279  0.00  0.00    +0.004 C 
ENDBRANCH  21  22
ENDBRANCH  11  21
ENDBRANCH  10  16
ENDBRANCH   1  10
BRANCH   8  24
ATOM     24  C   UNL     1      -7.246   1.853   2.306  0.00  0.00    -0.041 C 
BRANCH  24  25
ATOM     25  C   UNL     1      -8.746   1.837   2.159  0.00  0.00    -0.052 A 
ATOM     26  C   UNL     1      -9.540   1.455   3.224  0.00  0.00    +0.002 A 
ATOM     27  C   UNL     1     -10.916   1.445   3.091  0.00  0.00    +0.000 A 
ATOM     28  C   UNL     1     -11.497   1.806   1.890  0.00  0.00    +0.001 A 
ATOM     29  C   UNL     1     -10.702   2.183   0.823  0.00  0.00    +0.012 A 
ATOM     30  C   UNL     1      -9.326   2.198   0.958  0.00  0.00    +0.056 A 
BRANCH  30  31
ATOM     31  C   UNL     1      -8.460   2.608  -0.205  0.00  0.00    +0.418 C 
ATOM     32  F   UNL     1      -9.270   2.926  -1.300  0.00  0.00    -0.166 F 
ATOM     33  F   UNL     1      -7.699   3.726   0.153  0.00  0.00    -0.166 F 
ATOM     34  F   UNL     1      -7.607   1.553  -0.545  0.00  0.00    -0.166 F 
ENDBRANCH  30  31
ENDBRANCH  24  25
ENDBRANCH   8  24
TORSDOF 9
