REMARK  Name = ZINC67157295
REMARK  8 active torsions:
REMARK  status: ('A' for Active; 'I' for Inactive)
REMARK    1  A    between atoms: C_1  and  C_2
REMARK    2  A    between atoms: N_5  and  C_8
REMARK    3  A    between atoms: C_8  and  C_10
REMARK    4  A    between atoms: C_8  and  C_11
REMARK    5  A    between atoms: C_11  and  N_12
REMARK    6  A    between atoms: C_13  and  C_15
REMARK    7  A    between atoms: C_15  and  N_16
REMARK    8  A    between atoms: C_17  and  C_19
REMARK                            x       y       z     vdW  Elec       q    Type
REMARK                         _______ _______ _______ _____ _____    ______ ____
ROOT
ATOM      1  N   UNL     1       1.955  -3.921   2.403  0.00  0.00    -0.316 N 
ATOM      2  C   UNL     1       2.600  -4.105   3.572  0.00  0.00    +0.230 C 
ATOM      3  O   UNL     1       3.700  -4.617   3.584  0.00  0.00    -0.274 OA
ATOM      4  H   UNL     1       1.076  -3.512   2.393  0.00  0.00    +0.149 HD
ENDROOT
BRANCH   1   5
ATOM      5  C   UNL     1       2.582  -4.341   1.147  0.00  0.00    +0.089 C 
BRANCH   5   6
ATOM      6  C   UNL     1       1.710  -3.900  -0.030  0.00  0.00    -0.054 C 
ATOM      7  C   UNL     1       2.420  -4.233  -1.344  0.00  0.00    -0.012 C 
BRANCH   6  12
ATOM      8  C   UNL     1       1.235   1.728  -0.822  0.00  0.00    +0.007 C 
ATOM      9  C   UNL     1       1.521   0.239  -1.027  0.00  0.00    -0.018 C 
ATOM     10  C   UNL     1       2.531  -0.238   0.020  0.00  0.00    -0.016 C 
ATOM     11  C   UNL     1       2.752  -1.744  -0.140  0.00  0.00    -0.078 C 
ATOM     12  N   UNL     1       1.479  -2.451   0.048  0.00  0.00    +0.382 N 
ATOM     13  C   UNL     1       0.528  -2.052  -0.997  0.00  0.00    -0.078 C 
ATOM     14  C   UNL     1       0.223  -0.558  -0.869  0.00  0.00    -0.016 C 
ATOM     15  H   UNL     1       1.099  -2.221   0.953  0.00  0.00    -0.081 HD
ENDBRANCH   6  12
ENDBRANCH   5   6
ENDBRANCH   1   5
BRANCH   2  16
ATOM     16  C   UNL     1       1.956  -3.673   4.864  0.00  0.00    +0.200 C 
BRANCH  16  17
ATOM     17  N   UNL     1       2.852  -3.978   5.983  0.00  0.00    -0.303 N 
ATOM     18  C   UNL     1       2.482  -3.678   7.243  0.00  0.00    +0.244 C 
ATOM     19  O   UNL     1       1.405  -3.154   7.453  0.00  0.00    -0.270 OA
ATOM     20  H   UNL     1       3.711  -4.397   5.816  0.00  0.00    +0.150 HD
BRANCH  18  21
ATOM     21  C   UNL     1       3.386  -3.987   8.372  0.00  0.00    +0.037 A 
ATOM     22  C   UNL     1       4.625  -4.583   8.136  0.00  0.00    +0.013 A 
ATOM     23  C   UNL     1       5.462  -4.867   9.194  0.00  0.00    +0.004 A 
ATOM     24  C   UNL     1       5.079  -4.563  10.492  0.00  0.00    -0.044 A 
ATOM     25  C   UNL     1       3.852  -3.971  10.732  0.00  0.00    -0.043 A 
ATOM     26  C   UNL     1       3.007  -3.678   9.678  0.00  0.00    +0.017 A 
ATOM     27  C   UNL     1       3.676  -3.744  12.219  0.00  0.00    +0.036 C 
ATOM     28  C   UNL     1       4.727  -4.652  12.893  0.00  0.00    +0.009 C 
ATOM     29  C   UNL     1       5.811  -4.772  11.801  0.00  0.00    +0.036 C 
ENDBRANCH  18  21
ENDBRANCH  16  17
ENDBRANCH   2  16
TORSDOF 6
