REMARK  Name = ZINC09219033
REMARK  5 active torsions:
REMARK  status: ('A' for Active; 'I' for Inactive)
REMARK    1  A    between atoms: C_8  and  C_25
REMARK    2  A    between atoms: C_11  and  C_12
REMARK    3  A    between atoms: C_11  and  N_47
REMARK    4  A    between atoms: N_14  and  C_15
REMARK    5  A    between atoms: C_16  and  C_23
REMARK                            x       y       z     vdW  Elec       q    Type
REMARK                         _______ _______ _______ _____ _____    ______ ____
ROOT
ATOM      1  C   UNL     1       3.272 -10.313   0.175  0.00  0.00    +0.000 A 
ATOM      2  C   UNL     1       3.693  -9.268   0.977  0.00  0.00    +0.000 A 
ATOM      3  C   UNL     1       2.813  -8.257   1.306  0.00  0.00    +0.002 A 
ATOM      4  C   UNL     1       1.508  -8.282   0.837  0.00  0.00    -0.061 A 
ATOM      5  C   UNL     1       1.090  -9.323   0.035  0.00  0.00    -0.047 A 
ATOM      6  C   UNL     1       1.974 -10.339  -0.293  0.00  0.00    +0.004 A 
ATOM      7  C   UNL     1      -0.315  -9.388  -0.507  0.00  0.00    +0.029 C 
ATOM      8  C   UNL     1      -1.222  -8.442   0.279  0.00  0.00    +0.024 C 
ATOM      9  C   UNL     1       0.584  -7.158   1.226  0.00  0.00    -0.041 C 
ATOM     10  N   UNL     1      -0.571  -7.116   0.314  0.00  0.00    +0.396 N 
ATOM     11  H   UNL     1      -0.245  -6.877  -0.629  0.00  0.00    -0.080 HD
ENDROOT
BRANCH   8  12
ATOM     12  C   UNL     1      -2.556  -8.328  -0.414  0.00  0.00    +0.197 C 
ATOM     13  O   UNL     1      -2.704  -7.533  -1.318  0.00  0.00    -0.278 OA
ATOM     14  N   UNL     1      -3.584  -9.110  -0.029  0.00  0.00    -0.331 N 
ATOM     15  H   UNL     1      -3.466  -9.745   0.694  0.00  0.00    +0.145 HD
ATOM     16  H   UNL     1      -4.442  -9.036  -0.475  0.00  0.00    +0.145 HD
ENDBRANCH   8  12
BRANCH  10  17
ATOM     17  C   UNL     1      -1.536  -6.088   0.764  0.00  0.00    +0.020 C 
BRANCH  17  18
ATOM     18  C   UNL     1      -1.015  -4.729   0.376  0.00  0.00    +0.201 C 
ATOM     19  O   UNL     1       0.048  -4.628  -0.200  0.00  0.00    -0.278 OA
ATOM     20  N   UNL     1      -1.730  -3.624   0.669  0.00  0.00    -0.281 N 
ATOM     21  H   UNL     1      -2.579  -3.705   1.130  0.00  0.00    +0.155 HD
BRANCH  20  22
ATOM     22  C   UNL     1      -1.250  -2.372   0.312  0.00  0.00    +0.090 A 
ATOM     23  C   UNL     1      -1.833  -1.135   0.524  0.00  0.00    +0.084 A 
ATOM     24  C   UNL     1      -1.115   0.044   0.044  0.00  0.00    -0.018 A 
ATOM     25  C   UNL     1       0.059  -0.210  -0.563  0.00  0.00    -0.004 A 
ATOM     26  S   UNL     1       0.222  -1.978  -0.508  0.00  0.00    -0.077 S 
ATOM     27  C   UNL     1       0.740   1.050  -1.025  0.00  0.00    +0.043 C 
ATOM     28  C   UNL     1       0.037   2.181  -0.242  0.00  0.00    +0.010 C 
ATOM     29  C   UNL     1      -1.343   1.556   0.042  0.00  0.00    +0.037 C 
BRANCH  23  30
ATOM     30  C   UNL     1      -3.095  -1.015   1.190  0.00  0.00    +0.102 C 
ATOM     31  N   UNL     1      -4.096  -0.919   1.718  0.00  0.00    -0.191 NA
ENDBRANCH  23  30
ENDBRANCH  20  22
ENDBRANCH  17  18
ENDBRANCH  10  17
TORSDOF 5
