REMARK  Name = ZINC19470829
REMARK  4 active torsions:
REMARK  status: ('A' for Active; 'I' for Inactive)
REMARK    1  A    between atoms: C_4  and  O_10
REMARK    2  A    between atoms: C_5  and  C_7
REMARK    3  A    between atoms: O_10  and  C_11
REMARK    4  A    between atoms: C_11  and  C_12
REMARK                            x       y       z     vdW  Elec       q    Type
REMARK                         _______ _______ _______ _____ _____    ______ ____
ROOT
ATOM      1  C   UNL     1      -5.315   4.335   1.938  0.00  0.00    +0.001 A 
ATOM      2  C   UNL     1      -4.853   4.081   0.657  0.00  0.00    +0.004 A 
ATOM      3  C   UNL     1      -3.657   3.419   0.465  0.00  0.00    +0.046 A 
ATOM      4  C   UNL     1      -2.915   2.994   1.557  0.00  0.00    +0.131 A 
ATOM      5  C   UNL     1      -3.378   3.250   2.853  0.00  0.00    +0.054 A 
ATOM      6  C   UNL     1      -4.586   3.925   3.034  0.00  0.00    +0.015 A 
ENDROOT
BRANCH   5   7
ATOM      7  C   UNL     1      -2.592   2.808   4.024  0.00  0.00    +0.098 C 
ATOM      8  N   UNL     1      -1.464   2.178   3.852  0.00  0.00    -0.387 N 
ATOM      9  N   UNL     1      -3.052   3.061   5.299  0.00  0.00    -0.344 N 
ATOM     10  H   UNL     1      -0.879   1.849   4.723  0.00  0.00    +0.157 HD
ATOM     11  H   UNL     1      -2.467   2.732   6.170  0.00  0.00    +0.144 HD
ATOM     12  H   UNL     1      -4.004   3.593   5.444  0.00  0.00    +0.144 HD
ATOM     13  H   UNL     1      -1.097   1.976   2.835  0.00  0.00    +0.157 HD
ENDBRANCH   5   7
BRANCH   4  14
ATOM     14  O   UNL     1      -1.741   2.339   1.370  0.00  0.00    -0.487 OA
BRANCH  14  15
ATOM     15  C   UNL     1      -1.332   2.114   0.020  0.00  0.00    +0.264 C 
BRANCH  15  16
ATOM     16  C   UNL     1      -0.017   1.378   0.010  0.00  0.00    -0.010 A 
ATOM     17  C   UNL     1       1.171   2.086   0.002  0.00  0.00    +0.008 A 
ATOM     18  C   UNL     1       2.377   1.412  -0.013  0.00  0.00    +0.015 A 
ATOM     19  C   UNL     1       2.397   0.029  -0.021  0.00  0.00    +0.018 A 
ATOM     20  C   UNL     1       1.208  -0.679  -0.013  0.00  0.00    +0.015 A 
ATOM     21  C   UNL     1       0.002  -0.004   0.002  0.00  0.00    +0.008 A 
ATOM     22 BR   UNL     1       4.047  -0.894  -0.041  0.00  0.00    -0.050 Br
ENDBRANCH  15  16
ENDBRANCH  14  15
ENDBRANCH   4  14
TORSDOF 4
