REMARK  Name = ZINC35427196
REMARK  5 active torsions:
REMARK  status: ('A' for Active; 'I' for Inactive)
REMARK    1  A    between atoms: C_1  and  N_2
REMARK    2  A    between atoms: C_16  and  C_30
REMARK    3  A    between atoms: N_22  and  C_23
REMARK    4  A    between atoms: C_33  and  O_36
REMARK    5  A    between atoms: O_36  and  C_37
REMARK                            x       y       z     vdW  Elec       q    Type
REMARK                         _______ _______ _______ _____ _____    ______ ____
ROOT
ATOM      1  C   UNL     1      -0.457   1.313  -1.404  0.00  0.00    -0.096 C 
ATOM      2  N   UNL     1      -0.369  -0.132  -1.154  0.00  0.00    +0.381 N 
ATOM      3  C   UNL     1      -1.710  -0.726  -1.241  0.00  0.00    -0.074 C 
ATOM      4  C   UNL     1      -1.614  -2.253  -1.302  0.00  0.00    +0.018 C 
ATOM      5  C   UNL     1      -0.757  -2.718  -0.127  0.00  0.00    -0.034 A 
ATOM      6  C   UNL     1      -0.746  -4.048   0.335  0.00  0.00    +0.004 A 
ATOM      7  C   UNL     1       0.073  -4.322   1.387  0.00  0.00    +0.090 A 
ATOM      8  S   UNL     1       0.825  -2.773   1.782  0.00  0.00    -0.077 S 
ATOM      9  C   UNL     1       0.036  -1.817   0.514  0.00  0.00    -0.021 A 
ATOM     10  C   UNL     1       0.184  -0.366   0.193  0.00  0.00    -0.036 C 
ATOM     11  N   UNL     1       0.228  -5.586   1.944  0.00  0.00    -0.312 N 
ATOM     12  C   UNL     1       0.248  -5.999   3.233  0.00  0.00    +0.092 A 
ATOM     13  C   UNL     1       0.357  -7.348   3.237  0.00  0.00    +0.020 A 
ATOM     14  C   UNL     1       0.425  -7.774   1.893  0.00  0.00    +0.025 A 
ATOM     15  C   UNL     1       0.369  -6.679   1.121  0.00  0.00    +0.049 A 
ATOM     16  C   UNL     1       0.480  -6.557  -0.369  0.00  0.00    +0.155 C 
ATOM     17  N   UNL     1      -0.806  -6.154  -0.987  0.00  0.00    -0.268 N 
ATOM     18  C   UNL     1      -1.600  -5.141  -0.268  0.00  0.00    +0.148 C 
ATOM     19  C   UNL     1      -1.229  -6.687  -2.150  0.00  0.00    +0.308 C 
ATOM     20  O   UNL     1      -0.551  -7.521  -2.719  0.00  0.00    -0.252 OA
ATOM     21  N   UNL     1      -2.404  -6.297  -2.682  0.00  0.00    -0.269 N 
ATOM     22  H   UNL     1      -2.910  -5.580  -2.268  0.00  0.00    +0.156 HD
ATOM     23  H   UNL     1       0.232  -0.557  -1.844  0.00  0.00    -0.082 HD
ENDROOT
BRANCH  21  24
ATOM     24  C   UNL     1      -2.894  -6.926  -3.833  0.00  0.00    +0.037 A 
ATOM     25  C   UNL     1      -3.622  -6.199  -4.766  0.00  0.00    +0.023 A 
ATOM     26  C   UNL     1      -4.105  -6.821  -5.901  0.00  0.00    +0.005 A 
ATOM     27  C   UNL     1      -3.865  -8.166  -6.109  0.00  0.00    +0.038 A 
ATOM     28  C   UNL     1      -3.141  -8.895  -5.181  0.00  0.00    +0.125 A 
ATOM     29  C   UNL     1      -2.650  -8.275  -4.045  0.00  0.00    +0.061 A 
ATOM     30  F   UNL     1      -2.909 -10.210  -5.386  0.00  0.00    -0.205 F 
ENDBRANCH  21  24
BRANCH  16  31
ATOM     31  C   UNL     1       1.527  -5.525  -0.701  0.00  0.00    -0.021 A 
ATOM     32  C   UNL     1       2.625  -5.366   0.124  0.00  0.00    +0.009 A 
ATOM     33  C   UNL     1       3.586  -4.420  -0.178  0.00  0.00    +0.046 A 
ATOM     34  C   UNL     1       3.448  -3.630  -1.310  0.00  0.00    +0.120 A 
ATOM     35  C   UNL     1       2.345  -3.791  -2.136  0.00  0.00    +0.046 A 
ATOM     36  C   UNL     1       1.390  -4.742  -1.832  0.00  0.00    +0.009 A 
BRANCH  34  37
ATOM     37  O   UNL     1       4.392  -2.699  -1.608  0.00  0.00    -0.495 OA
ATOM     38  C   UNL     1       4.185  -1.921  -2.789  0.00  0.00    +0.277 C 
ENDBRANCH  34  37
ENDBRANCH  16  31
TORSDOF 3
