REMARK  Name = ZINC20495065
REMARK  6 active torsions:
REMARK  status: ('A' for Active; 'I' for Inactive)
REMARK    1  A    between atoms: C_5  and  C_7
REMARK    2  A    between atoms: C_7  and  N_8
REMARK    3  A    between atoms: N_11  and  C_14
REMARK    4  A    between atoms: C_14  and  C_15
REMARK    5  A    between atoms: N_17  and  C_18
REMARK    6  A    between atoms: C_23  and  C_24
REMARK                            x       y       z     vdW  Elec       q    Type
REMARK                         _______ _______ _______ _____ _____    ______ ____
ROOT
ATOM      1  C   UNL     1       1.416   2.002  -0.809  0.00  0.00    +0.019 C 
ENDROOT
BRANCH   1   5
ATOM      2  N   UNL     1       5.285   0.488  -0.049  0.00  0.00    -0.302 NA
ATOM      3  C   UNL     1       5.136   1.497  -1.106  0.00  0.00    +0.066 C 
ATOM      4  C   UNL     1       3.822   2.255  -0.903  0.00  0.00    -0.063 C 
ATOM      5  N   UNL     1       2.703   1.303  -0.925  0.00  0.00    +0.387 N 
ATOM      6  C   UNL     1       2.852   0.294   0.133  0.00  0.00    -0.063 C 
ATOM      7  C   UNL     1       4.166  -0.464  -0.071  0.00  0.00    +0.066 C 
ATOM      8  H   UNL     1       2.717   0.783  -1.895  0.00  0.00    -0.081 HD
BRANCH   2   9
ATOM      9  C   UNL     1       6.572  -0.211  -0.165  0.00  0.00    +0.120 C 
BRANCH   9  14
ATOM     10  C   UNL     1       6.555  -3.616   1.465  0.00  0.00    +0.000 A 
ATOM     11  C   UNL     1       6.792  -3.291   2.788  0.00  0.00    +0.001 A 
ATOM     12  C   UNL     1       6.959  -1.970   3.155  0.00  0.00    +0.020 A 
ATOM     13  C   UNL     1       6.888  -0.972   2.200  0.00  0.00    +0.045 A 
ATOM     14  C   UNL     1       6.650  -1.298   0.876  0.00  0.00    -0.015 A 
ATOM     15  C   UNL     1       6.479  -2.619   0.511  0.00  0.00    +0.006 A 
ATOM     16 CL   UNL     1       7.096   0.689   2.661  0.00  0.00    -0.083 Cl
ENDBRANCH   9  14
ENDBRANCH   2   9
ENDBRANCH   1   5
BRANCH   1  17
ATOM     17  C   UNL     1       0.292   1.034  -1.080  0.00  0.00    +0.201 C 
ATOM     18  O   UNL     1       0.540  -0.123  -1.344  0.00  0.00    -0.278 OA
ATOM     19  N   UNL     1      -0.987   1.456  -1.034  0.00  0.00    -0.286 N 
ATOM     20  H   UNL     1      -1.215   2.484  -0.716  0.00  0.00    +0.155 HD
BRANCH  19  21
ATOM     21  C   UNL     1      -2.019   0.592  -1.390  0.00  0.00    +0.045 A 
ATOM     22  C   UNL     1      -1.788  -0.434  -2.297  0.00  0.00    +0.024 A 
ATOM     23  C   UNL     1      -2.811  -1.293  -2.644  0.00  0.00    +0.002 A 
ATOM     24  C   UNL     1      -4.076  -1.134  -2.101  0.00  0.00    +0.001 A 
ATOM     25  C   UNL     1      -4.324  -0.118  -1.204  0.00  0.00    +0.015 A 
ATOM     26  C   UNL     1      -3.298   0.756  -0.838  0.00  0.00    +0.058 A 
BRANCH  26  27
ATOM     27  C   UNL     1      -3.558   1.845   0.122  0.00  0.00    +0.243 C 
ATOM     28  O   UNL     1      -2.668   2.620   0.417  0.00  0.00    -0.270 OA
ATOM     29  N   UNL     1      -4.780   1.982   0.671  0.00  0.00    -0.325 N 
ATOM     30  H   UNL     1      -4.974   2.794   1.387  0.00  0.00    +0.145 HD
ATOM     31  H   UNL     1      -5.585   1.281   0.404  0.00  0.00    +0.145 HD
ENDBRANCH  26  27
ENDBRANCH  19  21
ENDBRANCH   1  17
TORSDOF 6
