REMARK  Name = ZINC35361184
REMARK  10 active torsions:
REMARK  status: ('A' for Active; 'I' for Inactive)
REMARK    1  A    between atoms: C_1  and  C_2
REMARK    2  A    between atoms: C_2  and  C_3
REMARK    3  A    between atoms: C_3  and  C_4
REMARK    4  A    between atoms: C_4  and  N_5
REMARK    5  A    between atoms: C_6  and  C_7
REMARK    6  A    between atoms: C_10  and  O_38
REMARK    7  A    between atoms: C_13  and  O_37
REMARK    8  A    between atoms: C_22  and  C_36
REMARK    9  A    between atoms: C_23  and  O_35
REMARK   10  A    between atoms: C_26  and  C_28
REMARK                            x       y       z     vdW  Elec       q    Type
REMARK                         _______ _______ _______ _____ _____    ______ ____
ROOT
ATOM      1  C   UNL     1      -2.183  -3.675  -2.349  0.00  0.00    +0.038 C 
ATOM      2  C   UNL     1      -2.169  -5.192  -2.547  0.00  0.00    +0.018 C 
ATOM      3  C   UNL     1      -1.554  -5.861  -1.317  0.00  0.00    +0.032 C 
ATOM      4  C   UNL     1      -0.121  -5.359  -1.125  0.00  0.00    +0.117 C 
ATOM      5  C   UNL     1      -0.135  -3.842  -0.927  0.00  0.00    +0.067 C 
ATOM      6  C   UNL     1      -0.750  -3.172  -2.157  0.00  0.00    +0.079 C 
ATOM      7  C   UNL     1      -0.767  -1.655  -1.957  0.00  0.00    +0.036 C 
ATOM      8  C   UNL     1      -1.382  -0.985  -3.187  0.00  0.00    +0.009 C 
ATOM      9  C   UNL     1      -2.813  -1.490  -3.383  0.00  0.00    +0.025 C 
ATOM     10  C   UNL     1      -2.798  -3.005  -3.579  0.00  0.00    +0.009 C 
ATOM     11  C   UNL     1      -4.243  -3.487  -3.748  0.00  0.00    +0.005 C 
ATOM     12  C   UNL     1      -4.817  -2.864  -5.018  0.00  0.00    +0.010 C 
ATOM     13  C   UNL     1      -4.857  -1.339  -4.903  0.00  0.00    +0.003 C 
ATOM     14  C   UNL     1      -3.459  -0.800  -4.560  0.00  0.00    +0.075 C 
ATOM     15  C   UNL     1      -2.655  -0.973  -5.861  0.00  0.00    +0.036 C 
ATOM     16  C   UNL     1      -3.676  -0.614  -6.966  0.00  0.00    +0.011 C 
ATOM     17  C   UNL     1      -5.093  -0.790  -6.336  0.00  0.00    +0.043 C 
ATOM     18  C   UNL     1      -5.943  -0.874  -3.931  0.00  0.00    +0.014 C 
ENDROOT
BRANCH  17  19
ATOM     19  C   UNL     1      -5.867  -1.813  -7.169  0.00  0.00    +0.204 C 
ATOM     20  C   UNL     1      -6.114  -1.272  -8.557  0.00  0.00    +0.024 C 
ATOM     21  C   UNL     1      -7.434  -1.213  -8.719  0.00  0.00    +0.091 C 
ATOM     22  C   UNL     1      -8.087  -1.693  -7.497  0.00  0.00    +0.332 C 
ATOM     23  O   UNL     1      -9.289  -1.764  -7.327  0.00  0.00    -0.246 OA
ATOM     24  O   UNL     1      -7.155  -2.045  -6.590  0.00  0.00    -0.454 OA
ENDBRANCH  17  19
BRANCH   1  26
ATOM     25  N   UNL     1      -3.736  -4.229  -0.583  0.00  0.00    -0.295 NA
ATOM     26  C   UNL     1      -3.001  -3.335  -1.130  0.00  0.00    +0.087 C 
BRANCH  25  27
ATOM     27  C   UNL     1      -4.490  -5.168  -1.417  0.00  0.00    +0.141 C 
BRANCH  27  28
ATOM     28  C   UNL     1      -3.883  -6.566  -1.289  0.00  0.00    +0.023 C 
BRANCH  28  30
ATOM     29  C   UNL     1      -4.373  -8.959  -0.765  0.00  0.00    +0.004 C 
ATOM     30  C   UNL     1      -4.952  -7.543  -0.795  0.00  0.00    -0.002 C 
ENDBRANCH  28  30
ENDBRANCH  27  28
ENDBRANCH  25  27
ENDBRANCH   1  26
BRANCH  14  31
ATOM     31  O   UNL     1      -3.574   0.596  -4.280  0.00  0.00    -0.388 OA
ATOM     32  H   UNL     1      -2.729   1.034  -4.107  0.00  0.00    +0.210 HD
ENDBRANCH  14  31
BRANCH   6  33
ATOM     33  O   UNL     1       0.026  -3.492  -3.313  0.00  0.00    -0.388 OA
ATOM     34  H   UNL     1       0.947  -3.202  -3.261  0.00  0.00    +0.210 HD
ENDBRANCH   6  33
BRANCH   4  35
ATOM     35  O   UNL     1       0.655  -5.682  -2.281  0.00  0.00    -0.392 OA
ATOM     36  H   UNL     1       0.707  -6.629  -2.468  0.00  0.00    +0.210 HD
ENDBRANCH   4  35
TORSDOF 8
