REMARK  Name = ZINC59960181
REMARK  9 active torsions:
REMARK  status: ('A' for Active; 'I' for Inactive)
REMARK    1  A    between atoms: C_1  and  C_2
REMARK    2  A    between atoms: C_7  and  N_8
REMARK    3  A    between atoms: C_9  and  C_11
REMARK    4  A    between atoms: N_13  and  N_14
REMARK    5  A    between atoms: C_15  and  C_16
REMARK    6  A    between atoms: C_19  and  O_22
REMARK    7  A    between atoms: O_22  and  C_23
REMARK    8  A    between atoms: C_23  and  C_24
REMARK    9  A    between atoms: N_26  and  C_27
REMARK                            x       y       z     vdW  Elec       q    Type
REMARK                         _______ _______ _______ _____ _____    ______ ____
ROOT
ATOM      1  C   UNL     1      -0.591   0.132   9.631  0.00  0.00    -0.005 A 
ATOM      2  C   UNL     1      -0.607   1.530   9.639  0.00  0.00    +0.013 A 
ATOM      3  C   UNL     1      -0.698   2.209  10.834  0.00  0.00    +0.046 A 
ATOM      4  C   UNL     1      -0.774   1.507  12.031  0.00  0.00    +0.121 A 
ATOM      5  C   UNL     1      -0.759   0.117  12.028  0.00  0.00    +0.046 A 
ATOM      6  C   UNL     1      -0.673  -0.570  10.837  0.00  0.00    +0.013 A 
ENDROOT
BRANCH   1   8
ATOM      7  N   UNL     1      -0.418   0.056   7.236  0.00  0.00    -0.187 NA
ATOM      8  C   UNL     1      -0.494  -0.599   8.356  0.00  0.00    +0.138 C 
BRANCH   7  11
ATOM      9  C   UNL     1      -0.247   0.040   4.862  0.00  0.00    +0.318 C 
ATOM     10  O   UNL     1      -0.255   1.254   4.867  0.00  0.00    -0.263 OA
ATOM     11  N   UNL     1      -0.326  -0.639   6.023  0.00  0.00    -0.199 N 
ATOM     12  H   UNL     1      -0.320  -1.609   6.019  0.00  0.00    +0.178 HD
BRANCH   9  14
ATOM     13  N   UNL     1      -0.070  -0.021   2.409  0.00  0.00    -0.277 N 
ATOM     14  C   UNL     1      -0.149  -0.700   3.571  0.00  0.00    +0.305 C 
ATOM     15  O   UNL     1      -0.141  -1.914   3.566  0.00  0.00    -0.265 OA
ATOM     16  H   UNL     1      -0.007   0.947   2.417  0.00  0.00    +0.155 HD
BRANCH  13  23
ATOM     17  C   UNL     1      -1.373   1.189   0.188  0.00  0.00    +0.045 C 
ATOM     18  C   UNL     1      -0.703  -0.157   0.084  0.00  0.00    -0.029 A 
ATOM     19  C   UNL     1      -0.705  -0.839  -1.117  0.00  0.00    +0.006 A 
ATOM     20  C   UNL     1      -0.092  -2.074  -1.214  0.00  0.00    +0.020 A 
ATOM     21  C   UNL     1       0.527  -2.632  -0.108  0.00  0.00    +0.043 A 
ATOM     22  C   UNL     1       0.532  -1.955   1.096  0.00  0.00    +0.043 A 
ATOM     23  C   UNL     1      -0.079  -0.711   1.194  0.00  0.00    +0.038 A 
ATOM     24 CL   UNL     1       1.295  -4.184  -0.235  0.00  0.00    -0.083 Cl
ENDBRANCH  13  23
ENDBRANCH   9  14
ENDBRANCH   7  11
ENDBRANCH   1   8
BRANCH   4  25
ATOM     25  O   UNL     1      -0.863   2.180  13.207  0.00  0.00    -0.483 OA
BRANCH  25  26
ATOM     26  C   UNL     1      -0.938   1.397  14.399  0.00  0.00    +0.324 C 
BRANCH  26  27
ATOM     27  C   UNL     1      -1.031   2.309  15.595  0.00  0.00    +0.255 C 
ATOM     28  O   UNL     1      -1.033   3.512  15.441  0.00  0.00    -0.272 OA
ATOM     29  N   UNL     1      -1.112   1.789  16.835  0.00  0.00    -0.281 N 
ATOM     30  H   UNL     1      -1.030   0.831  16.966  0.00  0.00    +0.155 HD
BRANCH  29  31
ATOM     31  C   UNL     1      -1.316   2.630  17.936  0.00  0.00    +0.052 A 
ATOM     32  C   UNL     1      -1.931   3.863  17.765  0.00  0.00    +0.025 A 
ATOM     33  C   UNL     1      -2.131   4.690  18.852  0.00  0.00    +0.002 A 
ATOM     34  C   UNL     1      -1.719   4.293  20.111  0.00  0.00    +0.002 A 
ATOM     35  C   UNL     1      -1.105   3.066  20.285  0.00  0.00    +0.022 A 
ATOM     36  C   UNL     1      -0.907   2.231  19.202  0.00  0.00    +0.062 A 
ATOM     37 CL   UNL     1      -0.144   0.687  19.423  0.00  0.00    -0.082 Cl
ENDBRANCH  29  31
ENDBRANCH  26  27
ENDBRANCH  25  26
ENDBRANCH   4  25
TORSDOF 8
