REMARK  Name = ZINC51675969
REMARK  7 active torsions:
REMARK  status: ('A' for Active; 'I' for Inactive)
REMARK    1  A    between atoms: C_1  and  O_2
REMARK    2  A    between atoms: O_2  and  C_3
REMARK    3  A    between atoms: C_6  and  C_9
REMARK    4  A    between atoms: C_9  and  C_11
REMARK    5  A    between atoms: C_9  and  N_25
REMARK    6  A    between atoms: C_11  and  N_12
REMARK    7  A    between atoms: C_19  and  C_22
REMARK                            x       y       z     vdW  Elec       q    Type
REMARK                         _______ _______ _______ _____ _____    ______ ____
ROOT
ATOM      1  C   UNL     1       3.804  -2.967  -3.943  0.00  0.00    +0.095 C 
ENDROOT
BRANCH   1   2
ATOM      2  N   UNL     1       4.721  -1.837  -3.781  0.00  0.00    -0.300 N 
ATOM      3  C   UNL     1       6.021  -2.058  -3.501  0.00  0.00    +0.302 C 
ATOM      4  O   UNL     1       6.415  -3.190  -3.300  0.00  0.00    -0.253 OA
ATOM      5  N   UNL     1       6.883  -1.024  -3.443  0.00  0.00    -0.281 N 
ATOM      6  C   UNL     1       8.325  -1.250  -3.254  0.00  0.00    +0.137 C 
ATOM      7  C   UNL     1       9.083  -0.464  -4.331  0.00  0.00    +0.180 C 
ATOM      8  O   UNL     1       8.646   0.897  -4.315  0.00  0.00    -0.364 OA
ATOM      9  C   UNL     1       7.262   1.071  -4.629  0.00  0.00    +0.221 C 
ATOM     10  C   UNL     1       6.412   0.364  -3.574  0.00  0.00    +0.150 C 
ATOM     11  H   UNL     1       4.393  -0.929  -3.876  0.00  0.00    +0.150 HD
BRANCH   9  12
ATOM     12  C   UNL     1       6.931   2.541  -4.645  0.00  0.00    +0.241 C 
ATOM     13  O   UNL     1       7.769   3.355  -4.322  0.00  0.00    -0.273 OA
ATOM     14  N   UNL     1       5.702   2.951  -5.017  0.00  0.00    -0.327 N 
ATOM     15  H   UNL     1       5.031   2.299  -5.275  0.00  0.00    +0.145 HD
ATOM     16  H   UNL     1       5.488   3.897  -5.027  0.00  0.00    +0.145 HD
ENDBRANCH   9  12
ENDBRANCH   1   2
BRANCH   1  17
ATOM     17  C   UNL     1       2.429  -2.451  -4.372  0.00  0.00    -0.020 C 
BRANCH  17  21
ATOM     18  C   UNL     1       0.750  -0.091  -1.230  0.00  0.00    +0.120 A 
ATOM     19  C   UNL     1       1.358   0.526  -2.313  0.00  0.00    +0.046 A 
ATOM     20  C   UNL     1       1.900  -0.239  -3.328  0.00  0.00    +0.005 A 
ATOM     21  C   UNL     1       1.837  -1.619  -3.264  0.00  0.00    -0.059 A 
ATOM     22  C   UNL     1       1.231  -2.236  -2.185  0.00  0.00    +0.005 A 
ATOM     23  C   UNL     1       0.692  -1.476  -1.166  0.00  0.00    +0.046 A 
BRANCH  18  25
ATOM     24  C   UNL     1       0.311   2.079  -0.364  0.00  0.00    +0.277 C 
ATOM     25  O   UNL     1       0.216   0.659  -0.231  0.00  0.00    -0.495 OA
ENDBRANCH  18  25
ENDBRANCH  17  21
BRANCH  17  26
ATOM     26  N   UNL     1       1.545  -3.590  -4.655  0.00  0.00    +0.385 N 
ATOM     27  C   UNL     1       0.258  -3.111  -5.221  0.00  0.00    -0.078 C 
ATOM     28  C   UNL     1      -0.288  -4.357  -5.963  0.00  0.00    -0.020 C 
ATOM     29  C   UNL     1       0.989  -4.995  -6.556  0.00  0.00    -0.020 C 
ATOM     30  C   UNL     1       2.145  -4.456  -5.693  0.00  0.00    -0.078 C 
ATOM     31  H   UNL     1       1.379  -4.120  -3.812  0.00  0.00    -0.081 HD
ENDBRANCH  17  26
ENDBRANCH   1  17
TORSDOF 6
