REMARK  Name = ZINC12205197
REMARK  10 active torsions:
REMARK  status: ('A' for Active; 'I' for Inactive)
REMARK    1  A    between atoms: C_1  and  C_2
REMARK    2  A    between atoms: C_2  and  C_3
REMARK    3  A    between atoms: C_2  and  C_4
REMARK    4  A    between atoms: C_4  and  C_5
REMARK    5  A    between atoms: C_5  and  N_65
REMARK    6  A    between atoms: C_17  and  N_22
REMARK    7  A    between atoms: C_19  and  O_21
REMARK    8  A    between atoms: C_23  and  C_25
REMARK    9  A    between atoms: C_25  and  O_26
REMARK   10  A    between atoms: O_26  and  C_27
REMARK                            x       y       z     vdW  Elec       q    Type
REMARK                         _______ _______ _______ _____ _____    ______ ____
ROOT
ATOM      1  C   UNL     1      -5.675  -6.697   0.728  0.00  0.00    -0.078 C 
ATOM      2  C   UNL     1      -4.689  -6.809  -0.438  0.00  0.00    -0.005 C 
ATOM      3  C   UNL     1      -3.970  -5.475  -0.621  0.00  0.00    +0.021 C 
ATOM      4  C   UNL     1      -4.984  -4.354  -0.838  0.00  0.00    -0.005 C 
ATOM      5  C   UNL     1      -5.960  -4.320   0.342  0.00  0.00    -0.078 C 
ATOM      6  C   UNL     1      -3.009  -5.548  -1.782  0.00  0.00    -0.034 A 
ATOM      7  C   UNL     1      -3.161  -6.087  -3.048  0.00  0.00    +0.004 A 
ATOM      8  C   UNL     1      -2.122  -6.035  -3.957  0.00  0.00    +0.000 A 
ATOM      9  C   UNL     1      -0.924  -5.443  -3.602  0.00  0.00    +0.000 A 
ATOM     10  C   UNL     1      -0.769  -4.905  -2.340  0.00  0.00    +0.006 A 
ATOM     11  C   UNL     1      -1.809  -4.956  -1.427  0.00  0.00    -0.021 A 
ATOM     12  C   UNL     1      -1.891  -4.446  -0.004  0.00  0.00    +0.133 C 
ATOM     13  C   UNL     1      -3.106  -5.169   0.616  0.00  0.00    +0.149 C 
ATOM     14  N   UNL     1      -6.649  -5.625   0.430  0.00  0.00    +0.380 N 
ATOM     15  H   UNL     1      -7.099  -5.826  -0.471  0.00  0.00    -0.082 HD
ENDROOT
BRANCH  12  16
ATOM     16  N   UNL     1      -2.102  -2.997   0.006  0.00  0.00    -0.303 N 
ATOM     17  C   UNL     1      -1.044  -2.161   0.000  0.00  0.00    +0.251 C 
ATOM     18  O   UNL     1       0.082  -2.610  -0.013  0.00  0.00    -0.272 OA
ATOM     19  H   UNL     1      -3.003  -2.638   0.017  0.00  0.00    +0.149 HD
BRANCH  17  20
ATOM     20  C   UNL     1      -1.262  -0.670   0.011  0.00  0.00    +0.324 C 
BRANCH  20  21
ATOM     21  O   UNL     1       0.002  -0.004   0.002  0.00  0.00    -0.483 OA
BRANCH  21  22
ATOM     22  C   UNL     1      -0.016   1.355   0.009  0.00  0.00    +0.121 A 
ATOM     23  C   UNL     1      -1.226   2.033   0.019  0.00  0.00    +0.045 A 
ATOM     24  C   UNL     1      -1.242   3.414   0.031  0.00  0.00    +0.004 A 
ATOM     25  C   UNL     1      -0.054   4.121   0.024  0.00  0.00    +0.000 A 
ATOM     26  C   UNL     1       1.153   3.447   0.009  0.00  0.00    +0.004 A 
ATOM     27  C   UNL     1       1.175   2.066   0.002  0.00  0.00    +0.045 A 
ENDBRANCH  21  22
ENDBRANCH  20  21
ENDBRANCH  17  20
ENDBRANCH  12  16
BRANCH  13  28
ATOM     28  O   UNL     1      -2.702  -6.374   1.270  0.00  0.00    -0.389 OA
ATOM     29  H   UNL     1      -2.087  -6.237   2.003  0.00  0.00    +0.210 HD
ENDBRANCH  13  28
BRANCH  14  30
ATOM     30  C   UNL     1      -7.685  -5.579   1.482  0.00  0.00    -0.079 C 
BRANCH  30  31
ATOM     31  C   UNL     1      -8.515  -4.305   1.311  0.00  0.00    -0.016 C 
BRANCH  31  33
ATOM     32  C   UNL     1     -10.360  -2.932   2.289  0.00  0.00    +0.007 C 
ATOM     33  C   UNL     1      -9.610  -4.262   2.380  0.00  0.00    -0.019 C 
ATOM     34  C   UNL     1     -10.588  -5.417   2.154  0.00  0.00    +0.007 C 
ENDBRANCH  31  33
ENDBRANCH  30  31
ENDBRANCH  14  30
TORSDOF 8
