REMARK  Name = ZINC66955666
REMARK  11 active torsions:
REMARK  status: ('A' for Active; 'I' for Inactive)
REMARK    1  A    between atoms: C_1  and  C_2
REMARK    2  A    between atoms: C_2  and  C_4
REMARK    3  A    between atoms: C_2  and  S_7
REMARK    4  A    between atoms: C_4  and  C_5
REMARK    5  A    between atoms: S_7  and  C_8
REMARK    6  A    between atoms: C_13  and  N_14
REMARK    7  A    between atoms: N_17  and  C_18
REMARK    8  A    between atoms: C_18  and  C_19
REMARK    9  A    between atoms: C_19  and  C_20
REMARK   10  A    between atoms: C_20  and  C_21
REMARK   11  A    between atoms: C_21  and  N_22
REMARK                            x       y       z     vdW  Elec       q    Type
REMARK                         _______ _______ _______ _____ _____    ______ ____
ROOT
ATOM      1  N   UNL     1      -4.159  -1.285   1.406  0.00  0.00    -0.268 N 
ATOM      2  C   UNL     1      -5.325  -1.783   1.863  0.00  0.00    +0.304 C 
ATOM      3  O   UNL     1      -5.793  -1.373   2.908  0.00  0.00    -0.253 OA
ATOM      4  N   UNL     1      -5.973  -2.734   1.162  0.00  0.00    -0.299 N 
ATOM      5  H   UNL     1      -3.828  -1.549   0.533  0.00  0.00    +0.156 HD
ATOM      6  H   UNL     1      -5.600  -3.061   0.328  0.00  0.00    +0.150 HD
ENDROOT
BRANCH   1  12
ATOM      7  C   UNL     1      -2.534   0.503   1.590  0.00  0.00    +0.029 A 
ATOM      8  C   UNL     1      -1.813   1.394   2.374  0.00  0.00    +0.016 A 
ATOM      9  C   UNL     1      -1.976   1.394   3.746  0.00  0.00    +0.001 A 
ATOM     10  C   UNL     1      -2.855   0.508   4.343  0.00  0.00    +0.002 A 
ATOM     11  C   UNL     1      -3.576  -0.383   3.570  0.00  0.00    +0.024 A 
ATOM     12  C   UNL     1      -3.424  -0.387   2.192  0.00  0.00    +0.048 A 
BRANCH   7  13
ATOM     13  S   UNL     1      -2.329   0.500  -0.160  0.00  0.00    -0.119 S 
BRANCH  13  15
ATOM     14  C   UNL     1      -1.912   3.203  -0.233  0.00  0.00    +0.020 C 
ATOM     15  C   UNL     1      -1.188   1.876  -0.471  0.00  0.00    +0.062 C 
BRANCH  15  16
ATOM     16  C   UNL     1      -0.698   1.815  -1.919  0.00  0.00    +0.132 C 
BRANCH  16  17
ATOM     17  C   UNL     1       0.101   0.594  -2.115  0.00  0.00    +0.064 C 
ATOM     18  N   UNL     1       0.717  -0.348  -2.267  0.00  0.00    -0.197 NA
ENDBRANCH  16  17
ENDBRANCH  15  16
ENDBRANCH  13  15
ENDBRANCH   7  13
ENDBRANCH   1  12
BRANCH   4  19
ATOM     19  C   UNL     1      -7.240  -3.275   1.659  0.00  0.00    +0.106 C 
BRANCH  19  20
ATOM     20  C   UNL     1      -7.762  -4.332   0.683  0.00  0.00    +0.020 C 
BRANCH  20  21
ATOM     21  C   UNL     1      -9.085  -4.897   1.202  0.00  0.00    +0.020 C 
BRANCH  21  22
ATOM     22  C   UNL     1      -9.607  -5.953   0.226  0.00  0.00    +0.103 C 
BRANCH  22  23
ATOM     23  N   UNL     1     -10.874  -6.494   0.723  0.00  0.00    -0.331 N 
ATOM     24  C   UNL     1     -11.542  -7.475   0.000  0.00  0.00    +0.096 A 
ATOM     25  C   UNL     1     -10.999  -7.944  -1.192  0.00  0.00    +0.041 A 
ATOM     26  C   UNL     1     -11.674  -8.920  -1.901  0.00  0.00    +0.005 A 
ATOM     27  C   UNL     1     -12.875  -9.398  -1.393  0.00  0.00    +0.018 A 
ATOM     28  C   UNL     1     -13.356  -8.888  -0.204  0.00  0.00    +0.084 A 
ATOM     29  N   UNL     1     -12.688  -7.960   0.455  0.00  0.00    -0.350 N 
ATOM     30  H   UNL     1     -11.247  -6.168   1.557  0.00  0.00    +0.147 HD
ATOM     31  H   UNL     1     -13.046  -7.622   1.290  0.00  0.00    +0.166 HD
ENDBRANCH  22  23
ENDBRANCH  21  22
ENDBRANCH  20  21
ENDBRANCH  19  20
ENDBRANCH   4  19
TORSDOF 10
