REMARK  Name = ZINC36984030
REMARK  6 active torsions:
REMARK  status: ('A' for Active; 'I' for Inactive)
REMARK    1  A    between atoms: C_6  and  C_7
REMARK    2  A    between atoms: C_7  and  C_9
REMARK    3  A    between atoms: C_7  and  N_11
REMARK    4  A    between atoms: C_9  and  N_10
REMARK    5  A    between atoms: N_14  and  C_17
REMARK    6  A    between atoms: C_17  and  C_18
REMARK                            x       y       z     vdW  Elec       q    Type
REMARK                         _______ _______ _______ _____ _____    ______ ____
ROOT
ATOM      1  C   UNL     1      -0.791  -0.043  -0.666  0.00  0.00    +0.069 C 
ENDROOT
BRANCH   1   7
ATOM      2  C   UNL     1       1.551  -0.302   0.176  0.00  0.00    +0.006 A 
ATOM      3  C   UNL     1       2.866   0.117   0.258  0.00  0.00    +0.020 A 
ATOM      4  C   UNL     1       3.271   1.257  -0.414  0.00  0.00    +0.041 A 
ATOM      5  C   UNL     1       2.359   1.976  -1.168  0.00  0.00    +0.020 A 
ATOM      6  C   UNL     1       1.045   1.555  -1.248  0.00  0.00    +0.006 A 
ATOM      7  C   UNL     1       0.641   0.416  -0.577  0.00  0.00    -0.032 A 
ATOM      8 CL   UNL     1       4.921   1.785  -0.312  0.00  0.00    -0.084 Cl
ENDBRANCH   1   7
BRANCH   1   9
ATOM      9  N   UNL     1      -0.863  -1.271  -1.468  0.00  0.00    -0.295 NA
ATOM     10  C   UNL     1       0.033  -2.304  -0.931  0.00  0.00    +0.100 C 
ATOM     11  C   UNL     1      -0.130  -3.591  -1.744  0.00  0.00    +0.100 C 
ATOM     12  N   UNL     1       0.173  -3.316  -3.155  0.00  0.00    -0.292 NA
ATOM     13  C   UNL     1      -0.723  -2.283  -3.693  0.00  0.00    +0.100 C 
ATOM     14  C   UNL     1      -0.560  -0.997  -2.880  0.00  0.00    +0.100 C 
BRANCH  12  15
ATOM     15  C   UNL     1       0.101  -4.545  -3.958  0.00  0.00    +0.198 C 
BRANCH  15  16
ATOM     16  C   UNL     1       1.329  -5.412  -3.674  0.00  0.00    +0.402 C 
ATOM     17  F   UNL     1       1.287  -5.862  -2.350  0.00  0.00    -0.169 F 
ATOM     18  F   UNL     1       1.335  -6.511  -4.540  0.00  0.00    -0.169 F 
ATOM     19  F   UNL     1       2.490  -4.656  -3.873  0.00  0.00    -0.169 F 
ENDBRANCH  15  16
ENDBRANCH  12  15
ENDBRANCH   1   9
BRANCH   1  20
ATOM     20  C   UNL     1      -1.326  -0.320   0.741  0.00  0.00    -0.063 C 
BRANCH  20  21
ATOM     21  N   UNL     1      -2.681  -0.880   0.647  0.00  0.00    +0.379 N 
ATOM     22  H   UNL     1      -2.654  -1.741   0.122  0.00  0.00    -0.090 HD
ATOM     23  H   UNL     1      -3.034  -1.063   1.575  0.00  0.00    -0.090 HD
ATOM     24  H   UNL     1      -3.286  -0.221   0.181  0.00  0.00    -0.090 HD
ENDBRANCH  20  21
ENDBRANCH   1  20
TORSDOF 6
