REMARK  Name = ZINC30499304
REMARK  11 active torsions:
REMARK  status: ('A' for Active; 'I' for Inactive)
REMARK    1  A    between atoms: C_1  and  C_2
REMARK    2  A    between atoms: C_2  and  C_3
REMARK    3  A    between atoms: N_5  and  C_6
REMARK    4  A    between atoms: C_9  and  C_12
REMARK    5  A    between atoms: C_12  and  C_14
REMARK    6  A    between atoms: C_12  and  N_15
REMARK    7  A    between atoms: N_15  and  C_16
REMARK    8  A    between atoms: C_16  and  C_18
REMARK    9  A    between atoms: C_16  and  C_19
REMARK   10  A    between atoms: N_24  and  C_25
REMARK   11  A    between atoms: C_28  and  C_31
REMARK                            x       y       z     vdW  Elec       q    Type
REMARK                         _______ _______ _______ _____ _____    ______ ____
ROOT
ATOM      1  N   UNL     1       5.092  -6.720  -0.580  0.00  0.00    +0.391 N 
ATOM      2  H   UNL     1       5.467  -6.930   0.432  0.00  0.00    -0.084 HD
ATOM      3  H   UNL     1       5.733  -5.965  -1.059  0.00  0.00    -0.084 HD
ENDROOT
BRANCH   1   4
ATOM      4  C   UNL     1       5.111  -7.954  -1.376  0.00  0.00    -0.043 C 
ATOM      5  C   UNL     1       6.277  -8.835  -0.924  0.00  0.00    -0.009 C 
BRANCH   4   9
ATOM      6  C   UNL     1       5.582  -6.975  -5.510  0.00  0.00    +0.033 A 
ATOM      7  C   UNL     1       4.715  -7.991  -5.130  0.00  0.00    +0.023 A 
ATOM      8  C   UNL     1       4.565  -8.305  -3.793  0.00  0.00    +0.004 A 
ATOM      9  C   UNL     1       5.277  -7.609  -2.834  0.00  0.00    -0.062 A 
ATOM     10  C   UNL     1       6.138  -6.594  -3.208  0.00  0.00    +0.004 A 
ATOM     11  C   UNL     1       6.296  -6.279  -4.544  0.00  0.00    +0.023 A 
BRANCH   6  14
ATOM     12  C   UNL     1       4.693  -6.777  -7.707  0.00  0.00    +0.217 C 
ATOM     13  O   UNL     1       3.598  -7.073  -7.279  0.00  0.00    -0.275 OA
ATOM     14  N   UNL     1       5.736  -6.654  -6.863  0.00  0.00    -0.286 N 
ATOM     15  H   UNL     1       6.709  -6.303  -7.238  0.00  0.00    +0.155 HD
BRANCH  12  17
ATOM     16  C   UNL     1       3.556  -6.745  -9.911  0.00  0.00    +0.013 C 
ATOM     17  C   UNL     1       4.887  -6.545  -9.184  0.00  0.00    +0.093 C 
ENDBRANCH  12  17
ENDBRANCH   6  14
ENDBRANCH   4   9
ENDBRANCH   1   4
BRANCH   1  18
ATOM     18  C   UNL     1       3.729  -6.182  -0.474  0.00  0.00    +0.014 C 
ATOM     19  C   UNL     1       3.026  -6.808   0.732  0.00  0.00    -0.004 C 
BRANCH  18  20
ATOM     20  C   UNL     1       3.791  -4.686  -0.299  0.00  0.00    +0.206 C 
ATOM     21  O   UNL     1       4.864  -4.124  -0.266  0.00  0.00    -0.277 OA
ATOM     22  N   UNL     1       2.653  -3.974  -0.180  0.00  0.00    -0.241 N 
ATOM     23  C   UNL     1       2.708  -2.637  -0.023  0.00  0.00    +0.310 C 
ATOM     24  O   UNL     1       3.785  -2.073   0.010  0.00  0.00    -0.252 OA
ATOM     25  N   UNL     1       1.571  -1.924   0.096  0.00  0.00    -0.269 N 
ATOM     26  H   UNL     1       1.679  -4.484  -0.210  0.00  0.00    +0.159 HD
ATOM     27  H   UNL     1       0.601  -2.442   0.152  0.00  0.00    +0.156 HD
BRANCH  25  28
ATOM     28  C   UNL     1       1.622  -0.527   0.149  0.00  0.00    +0.035 A 
ATOM     29  C   UNL     1       2.595   0.161  -0.565  0.00  0.00    +0.023 A 
ATOM     30  C   UNL     1       2.643   1.540  -0.511  0.00  0.00    +0.005 A 
ATOM     31  C   UNL     1       1.723   2.236   0.253  0.00  0.00    -0.050 A 
ATOM     32  C   UNL     1       0.754   1.554   0.965  0.00  0.00    +0.005 A 
ATOM     33  C   UNL     1       0.701   0.175   0.915  0.00  0.00    +0.023 A 
ATOM     34  C   UNL     1       1.779   3.741   0.310  0.00  0.00    +0.044 C 
ENDBRANCH  25  28
ENDBRANCH  18  20
ENDBRANCH   1  18
TORSDOF 7
