REMARK  Name = ZINC38979882
REMARK  7 active torsions:
REMARK  status: ('A' for Active; 'I' for Inactive)
REMARK    1  A    between atoms: C_1  and  C_2
REMARK    2  A    between atoms: C_2  and  C_3
REMARK    3  A    between atoms: C_2  and  C_4
REMARK    4  A    between atoms: C_7  and  N_10
REMARK    5  A    between atoms: N_10  and  C_11
REMARK    6  A    between atoms: N_14  and  S_15
REMARK    7  A    between atoms: S_15  and  C_18
REMARK                            x       y       z     vdW  Elec       q    Type
REMARK                         _______ _______ _______ _____ _____    ______ ____
ROOT
ATOM      1  C   UNL     1       3.916  -2.572  -4.548  0.00  0.00    +0.237 C 
ATOM      2  C   UNL     1       3.849  -3.750  -5.493  0.00  0.00    +0.192 C 
ATOM      3  N   UNL     1       2.898  -4.629  -5.385  0.00  0.00    -0.110 NA
ATOM      4  N   UNL     1       4.786  -3.874  -6.447  0.00  0.00    -0.226 NA
ATOM      5  C   UNL     1       5.759  -2.996  -6.577  0.00  0.00    +0.089 A 
ATOM      6  C   UNL     1       6.732  -3.159  -7.595  0.00  0.00    +0.030 A 
ATOM      7  C   UNL     1       7.733  -2.262  -7.733  0.00  0.00    +0.002 A 
ATOM      8  C   UNL     1       7.869  -1.141  -6.898  0.00  0.00    +0.002 A 
ATOM      9  C   UNL     1       6.997  -0.891  -5.896  0.00  0.00    +0.027 A 
ATOM     10  C   UNL     1       5.878  -1.821  -5.679  0.00  0.00    +0.063 A 
ATOM     11  N   UNL     1       5.017  -1.612  -4.724  0.00  0.00    -0.359 N 
ATOM     12  H   UNL     1       5.101  -0.840  -4.142  0.00  0.00    +0.162 HD
ENDROOT
BRANCH   3  13
ATOM     13  S   UNL     1       2.836  -5.915  -6.427  0.00  0.00    +0.102 S 
ATOM     14  O   UNL     1       2.570  -5.380  -7.717  0.00  0.00    -0.146 OA
ATOM     15  O   UNL     1       3.980  -6.713  -6.156  0.00  0.00    -0.146 OA
BRANCH  13  16
ATOM     16  C   UNL     1       1.431  -6.880  -5.982  0.00  0.00    +0.132 A 
ATOM     17  C   UNL     1       0.373  -7.007  -6.862  0.00  0.00    +0.050 A 
ATOM     18  C   UNL     1      -0.731  -7.765  -6.513  0.00  0.00    +0.043 A 
ATOM     19  C   UNL     1      -0.775  -8.395  -5.282  0.00  0.00    +0.021 A 
ATOM     20  C   UNL     1       0.282  -8.267  -4.401  0.00  0.00    +0.023 A 
ATOM     21  C   UNL     1       1.389  -7.514  -4.753  0.00  0.00    +0.068 A 
ATOM     22 CL   UNL     1       2.720  -7.360  -3.651  0.00  0.00    -0.082 Cl
ATOM     23 CL   UNL     1      -2.059  -7.925  -7.618  0.00  0.00    -0.083 Cl
ENDBRANCH  13  16
ENDBRANCH   3  13
BRANCH   1  24
ATOM     24  N   UNL     1       2.656  -1.833  -4.664  0.00  0.00    -0.318 N 
ATOM     25  H   UNL     1       2.329  -1.567  -5.537  0.00  0.00    +0.148 HD
BRANCH  24  29
ATOM     26  C   UNL     1       0.481  -0.877  -1.244  0.00  0.00    -0.045 A 
ATOM     27  C   UNL     1       1.748  -1.419  -1.127  0.00  0.00    +0.006 A 
ATOM     28  C   UNL     1       2.472  -1.738  -2.259  0.00  0.00    +0.023 A 
ATOM     29  C   UNL     1       1.926  -1.513  -3.517  0.00  0.00    +0.029 A 
ATOM     30  C   UNL     1       0.653  -0.968  -3.631  0.00  0.00    +0.023 A 
ATOM     31  C   UNL     1      -0.067  -0.658  -2.494  0.00  0.00    +0.006 A 
BRANCH  26  33
ATOM     32  C   UNL     1      -0.513  -1.792   0.835  0.00  0.00    +0.012 C 
ATOM     33  C   UNL     1      -0.306  -0.531  -0.007  0.00  0.00    +0.013 C 
ATOM     34  C   UNL     1       0.462   0.508   0.812  0.00  0.00    +0.012 C 
ENDBRANCH  26  33
ENDBRANCH  24  29
ENDBRANCH   1  24
TORSDOF 5
