REMARK  Name = ZINC09781566
REMARK  11 active torsions:
REMARK  status: ('A' for Active; 'I' for Inactive)
REMARK    1  A    between atoms: C_1  and  C_2
REMARK    2  A    between atoms: C_2  and  C_4
REMARK    3  A    between atoms: C_2  and  N_61
REMARK    4  A    between atoms: C_7  and  S_16
REMARK    5  A    between atoms: N_8  and  C_9
REMARK    6  A    between atoms: S_16  and  C_17
REMARK    7  A    between atoms: C_17  and  C_18
REMARK    8  A    between atoms: N_20  and  C_21
REMARK    9  A    between atoms: C_22  and  C_31
REMARK   10  A    between atoms: C_33  and  N_61
REMARK   11  A    between atoms: C_34  and  N_61
REMARK                            x       y       z     vdW  Elec       q    Type
REMARK                         _______ _______ _______ _____ _____    ______ ____
ROOT
ATOM      1  C   UNL     1       1.049   0.363   4.642  0.00  0.00    +0.125 A 
ATOM      2  N   UNL     1       1.755  -0.122   3.659  0.00  0.00    -0.135 NA
ATOM      3  N   UNL     1       1.244   0.226   2.533  0.00  0.00    -0.122 NA
ATOM      4  C   UNL     1       0.174   0.961   2.735  0.00  0.00    +0.197 A 
ATOM      5  N   UNL     1       0.018   1.076   4.089  0.00  0.00    -0.275 N 
ENDROOT
BRANCH   5   6
ATOM      6  C   UNL     1      -0.989   1.776   4.770  0.00  0.00    +0.050 A 
ATOM      7  C   UNL     1      -0.664   2.877   5.551  0.00  0.00    +0.029 A 
ATOM      8  C   UNL     1      -1.658   3.569   6.215  0.00  0.00    +0.040 A 
ATOM      9  C   UNL     1      -2.976   3.157   6.113  0.00  0.00    +0.124 A 
ATOM     10  C   UNL     1      -3.301   2.055   5.340  0.00  0.00    +0.040 A 
ATOM     11  C   UNL     1      -2.311   1.365   4.669  0.00  0.00    +0.029 A 
ATOM     12  F   UNL     1      -3.946   3.831   6.769  0.00  0.00    -0.205 F 
ENDBRANCH   5   6
BRANCH   1  14
ATOM     13  C   UNL     1       2.501   1.060   6.527  0.00  0.00    -0.005 C 
ATOM     14  C   UNL     1       1.321   0.179   6.113  0.00  0.00    -0.003 C 
BRANCH  14  17
ATOM     15  C   UNL     1       1.914  -1.446   7.806  0.00  0.00    -0.096 C 
ATOM     16  C   UNL     1       0.570  -2.113   5.906  0.00  0.00    -0.096 C 
ATOM     17  N   UNL     1       1.667  -1.236   6.364  0.00  0.00    +0.382 N 
ATOM     18  H   UNL     1       2.520  -1.468   5.842  0.00  0.00    -0.082 HD
ENDBRANCH  14  17
ENDBRANCH   1  14
BRANCH   4  19
ATOM     19  S   UNL     1      -0.860   1.669   1.497  0.00  0.00    -0.076 S 
BRANCH  19  20
ATOM     20  C   UNL     1      -0.013   1.086   0.008  0.00  0.00    +0.173 C 
BRANCH  20  21
ATOM     21  C   UNL     1      -0.742   1.585  -1.213  0.00  0.00    +0.228 C 
ATOM     22  O   UNL     1      -1.736   2.268  -1.088  0.00  0.00    -0.275 OA
ATOM     23  N   UNL     1      -0.288   1.272  -2.443  0.00  0.00    -0.278 N 
ATOM     24  H   UNL     1       0.507   0.726  -2.543  0.00  0.00    +0.155 HD
BRANCH  23  25
ATOM     25  C   UNL     1      -0.960   1.732  -3.568  0.00  0.00    +0.090 A 
ATOM     26  C   UNL     1      -0.649   1.524  -4.901  0.00  0.00    +0.084 A 
ATOM     27  C   UNL     1      -1.525   2.115  -5.902  0.00  0.00    -0.018 A 
ATOM     28  C   UNL     1      -2.558   2.830  -5.404  0.00  0.00    -0.004 A 
ATOM     29  S   UNL     1      -2.386   2.712  -3.644  0.00  0.00    -0.077 S 
ATOM     30  C   UNL     1      -3.609   3.573  -6.168  0.00  0.00    +0.043 C 
ATOM     31  C   UNL     1      -4.184   2.659  -7.258  0.00  0.00    +0.005 C 
ATOM     32  C   UNL     1      -3.350   2.834  -8.523  0.00  0.00    +0.001 C 
ATOM     33  C   UNL     1      -1.894   3.118  -8.158  0.00  0.00    +0.005 C 
ATOM     34  C   UNL     1      -1.296   1.939  -7.398  0.00  0.00    +0.037 C 
BRANCH  26  35
ATOM     35  C   UNL     1       0.494   0.750  -5.282  0.00  0.00    +0.102 C 
ATOM     36  N   UNL     1       1.401   0.137  -5.585  0.00  0.00    -0.191 NA
ENDBRANCH  26  35
ENDBRANCH  23  25
ENDBRANCH  20  21
ENDBRANCH  19  20
ENDBRANCH   4  19
TORSDOF 8
