REMARK  Name = ZINC06077496
REMARK  12 active torsions:
REMARK  status: ('A' for Active; 'I' for Inactive)
REMARK    1  A    between atoms: C_1  and  C_2
REMARK    2  A    between atoms: C_2  and  C_3
REMARK    3  A    between atoms: C_3  and  C_4
REMARK    4  A    between atoms: C_3  and  C_5
REMARK    5  A    between atoms: C_3  and  N_6
REMARK    6  A    between atoms: C_7  and  C_11
REMARK    7  A    between atoms: C_11  and  C_13
REMARK    8  A    between atoms: C_11  and  N_73
REMARK    9  A    between atoms: C_16  and  C_26
REMARK   10  A    between atoms: C_19  and  C_25
REMARK   11  A    between atoms: N_29  and  C_32
REMARK   12  A    between atoms: C_35  and  N_38
REMARK                            x       y       z     vdW  Elec       q    Type
REMARK                         _______ _______ _______ _____ _____    ______ ____
ROOT
ATOM      1  C   UNL     1       3.676   1.652   3.699  0.00  0.00    +0.039 C 
ENDROOT
BRANCH   1   2
ATOM      2  C   UNL     1       2.235   2.087   3.768  0.00  0.00    +0.011 A 
ATOM      3  C   UNL     1       1.423   1.909   2.697  0.00  0.00    +0.018 A 
ATOM      4  C   UNL     1       0.028   2.343   2.796  0.00  0.00    +0.002 A 
ATOM      5  C   UNL     1      -0.857   2.186   1.725  0.00  0.00    -0.041 A 
ATOM      6  C   UNL     1      -2.151   2.605   1.848  0.00  0.00    +0.004 A 
ATOM      7  C   UNL     1      -2.599   3.177   3.032  0.00  0.00    +0.005 A 
ATOM      8  C   UNL     1      -1.744   3.341   4.100  0.00  0.00    -0.026 A 
ATOM      9  C   UNL     1      -0.421   2.926   3.996  0.00  0.00    +0.052 A 
ATOM     10  N   UNL     1       0.455   3.078   5.050  0.00  0.00    -0.322 N 
ATOM     11  H   UNL     1       0.135   3.492   5.902  0.00  0.00    +0.169 HD
ATOM     12  C   UNL     1       1.735   2.677   4.949  0.00  0.00    +0.251 A 
ATOM     13  O   UNL     1       2.481   2.826   5.901  0.00  0.00    -0.268 OA
ATOM     14  C   UNL     1      -2.242   3.969   5.377  0.00  0.00    +0.046 C 
ATOM     15  C   UNL     1      -0.383   1.563   0.437  0.00  0.00    +0.044 C 
ENDBRANCH   1   2
BRANCH   1  21
ATOM     16  C   UNL     1       4.281   3.931   3.149  0.00  0.00    -0.058 C 
ATOM     17  C   UNL     1       5.149   5.116   3.578  0.00  0.00    +0.086 C 
ATOM     18  N   UNL     1       6.566   4.728   3.520  0.00  0.00    -0.333 N 
ATOM     19  C   UNL     1       6.832   3.584   4.403  0.00  0.00    +0.086 C 
ATOM     20  C   UNL     1       5.963   2.399   3.974  0.00  0.00    -0.058 C 
ATOM     21  N   UNL     1       4.542   2.795   4.058  0.00  0.00    +0.391 N 
ATOM     22  H   UNL     1       4.332   3.083   5.021  0.00  0.00    -0.080 HD
BRANCH  18  23
ATOM     23  C   UNL     1       7.394   5.807   3.836  0.00  0.00    +0.030 A 
ATOM     24  C   UNL     1       8.309   5.701   4.876  0.00  0.00    +0.025 A 
ATOM     25  C   UNL     1       9.130   6.769   5.182  0.00  0.00    +0.034 A 
ATOM     26  C   UNL     1       9.034   7.946   4.463  0.00  0.00    +0.126 A 
ATOM     27  C   UNL     1       8.120   8.057   3.432  0.00  0.00    +0.034 A 
ATOM     28  C   UNL     1       7.300   6.991   3.116  0.00  0.00    +0.025 A 
BRANCH  26  29
ATOM     29  N   UNL     1       9.912   9.089   4.798  0.00  0.00    +0.056 N 
ATOM     30  O   UNL     1       9.829  10.127   4.165  0.00  0.00    -0.126 OA
ATOM     31  O   UNL     1      10.717   8.993   5.707  0.00  0.00    -0.126 OA
ENDBRANCH  26  29
ENDBRANCH  18  23
ENDBRANCH   1  21
BRANCH   1  33
ATOM     32  N   UNL     1       4.161  -0.756   4.386  0.00  0.00    -0.225 N 
ATOM     33  C   UNL     1       3.911   0.533   4.681  0.00  0.00    +0.143 A 
ATOM     34  N   UNL     1       3.917   0.628   5.988  0.00  0.00    -0.115 NA
ATOM     35  N   UNL     1       4.151  -0.543   6.471  0.00  0.00    -0.023 NA
ATOM     36  N   UNL     1       4.302  -1.381   5.506  0.00  0.00    -0.043 NA
BRANCH  32  37
ATOM     37  C   UNL     1       4.257  -1.339   3.046  0.00  0.00    +0.061 C 
ATOM     38  C   UNL     1       2.956  -1.080   2.283  0.00  0.00    +0.036 C 
ATOM     39  C   UNL     1       5.425  -0.700   2.293  0.00  0.00    +0.036 C 
BRANCH  37  41
ATOM     40  C   UNL     1       4.588  -3.457   1.761  0.00  0.00    +0.006 C 
ATOM     41  C   UNL     1       4.488  -2.847   3.161  0.00  0.00    +0.026 C 
ENDBRANCH  37  41
ENDBRANCH  32  37
ENDBRANCH   1  33
TORSDOF 7
