REMARK  Name = ZINC21762008
REMARK  10 active torsions:
REMARK  status: ('A' for Active; 'I' for Inactive)
REMARK    1  A    between atoms: C_1  and  C_2
REMARK    2  A    between atoms: C_2  and  C_26
REMARK    3  A    between atoms: N_5  and  C_9
REMARK    4  A    between atoms: C_9  and  C_10
REMARK    5  A    between atoms: N_12  and  C_13
REMARK    6  A    between atoms: N_12  and  C_18
REMARK    7  A    between atoms: C_13  and  C_14
REMARK    8  A    between atoms: C_14  and  C_15
REMARK    9  A    between atoms: C_21  and  O_24
REMARK   10  A    between atoms: O_24  and  C_25
REMARK                            x       y       z     vdW  Elec       q    Type
REMARK                         _______ _______ _______ _____ _____    ______ ____
ROOT
ATOM      1  C   UNL     1      -6.279  -4.617  -0.176  0.00  0.00    +0.214 C 
ENDROOT
BRANCH   1   6
ATOM      2  C   UNL     1      -6.862  -9.034  -1.664  0.00  0.00    +0.047 C 
ATOM      3  C   UNL     1      -5.737  -8.179  -1.075  0.00  0.00    +0.135 C 
ATOM      4  C   UNL     1      -5.928  -6.723  -1.449  0.00  0.00    +0.251 C 
ATOM      5  O   UNL     1      -5.947  -6.250  -2.565  0.00  0.00    -0.272 OA
ATOM      6  N   UNL     1      -6.071  -6.063  -0.283  0.00  0.00    -0.215 N 
ATOM      7  C   UNL     1      -6.006  -6.892   0.765  0.00  0.00    +0.310 C 
ATOM      8  O   UNL     1      -6.112  -6.531   1.921  0.00  0.00    -0.252 OA
ATOM      9  N   UNL     1      -5.809  -8.171   0.397  0.00  0.00    -0.281 N 
ATOM     10  H   UNL     1      -5.705  -9.111   0.958  0.00  0.00    +0.152 HD
BRANCH   3  11
ATOM     11  C   UNL     1      -4.394  -8.682  -1.537  0.00  0.00    -0.013 A 
ATOM     12  C   UNL     1      -3.849  -8.210  -2.717  0.00  0.00    +0.009 A 
ATOM     13  C   UNL     1      -2.615  -8.665  -3.141  0.00  0.00    +0.041 A 
ATOM     14  C   UNL     1      -1.928  -9.603  -2.389  0.00  0.00    +0.158 A 
ATOM     15  C   UNL     1      -2.477 -10.080  -1.209  0.00  0.00    +0.159 A 
ATOM     16  C   UNL     1      -3.711  -9.618  -0.784  0.00  0.00    +0.047 A 
ATOM     17  F   UNL     1      -1.808 -10.996  -0.474  0.00  0.00    -0.202 F 
ATOM     18  F   UNL     1      -0.724 -10.053  -2.806  0.00  0.00    -0.202 F 
ENDBRANCH   3  11
ENDBRANCH   1   6
BRANCH   1  19
ATOM     19  C   UNL     1      -4.945  -3.924  -0.072  0.00  0.00    +0.238 C 
ATOM     20  O   UNL     1      -3.921  -4.574  -0.086  0.00  0.00    -0.274 OA
ATOM     21  N   UNL     1      -4.890  -2.581   0.037  0.00  0.00    -0.270 N 
BRANCH  21  22
ATOM     22  C   UNL     1      -3.650  -1.929   0.032  0.00  0.00    +0.037 A 
ATOM     23  C   UNL     1      -2.877  -1.916  -1.122  0.00  0.00    +0.027 A 
ATOM     24  C   UNL     1      -1.655  -1.272  -1.126  0.00  0.00    +0.047 A 
ATOM     25  C   UNL     1      -1.201  -0.638   0.021  0.00  0.00    +0.120 A 
ATOM     26  C   UNL     1      -1.970  -0.655   1.175  0.00  0.00    +0.047 A 
ATOM     27  C   UNL     1      -3.195  -1.294   1.179  0.00  0.00    +0.027 A 
BRANCH  25  28
ATOM     28  O   UNL     1       0.003  -0.005   0.016  0.00  0.00    -0.495 OA
ATOM     29  C   UNL     1       0.409   0.626   1.232  0.00  0.00    +0.277 C 
ENDBRANCH  25  28
ENDBRANCH  21  22
BRANCH  21  30
ATOM     30  C   UNL     1      -6.126  -1.805   0.160  0.00  0.00    +0.123 C 
BRANCH  30  31
ATOM     31  C   UNL     1      -6.625  -1.416  -1.233  0.00  0.00    +0.115 C 
BRANCH  31  32
ATOM     32  C   UNL     1      -7.897  -0.617  -1.106  0.00  0.00    +0.212 C 
ATOM     33  O   UNL     1      -8.358  -0.382  -0.010  0.00  0.00    -0.276 OA
ATOM     34  N   UNL     1      -8.521  -0.163  -2.211  0.00  0.00    -0.329 N 
ATOM     35  H   UNL     1      -9.449   0.420  -2.119  0.00  0.00    +0.145 HD
ATOM     36  H   UNL     1      -8.102  -0.376  -3.206  0.00  0.00    +0.145 HD
ENDBRANCH  31  32
ENDBRANCH  30  31
ENDBRANCH  21  30
ENDBRANCH   1  19
TORSDOF 8
