REMARK  Name = ZINC45156578
REMARK  7 active torsions:
REMARK  status: ('A' for Active; 'I' for Inactive)
REMARK    1  A    between atoms: C_1  and  C_2
REMARK    2  A    between atoms: N_4  and  C_5
REMARK    3  A    between atoms: C_9  and  N_11
REMARK    4  A    between atoms: N_11  and  C_12
REMARK    5  A    between atoms: C_12  and  N_14
REMARK    6  A    between atoms: N_14  and  N_15
REMARK    7  A    between atoms: C_16  and  C_18
REMARK                            x       y       z     vdW  Elec       q    Type
REMARK                         _______ _______ _______ _____ _____    ______ ____
ROOT
ATOM      1  C   UNL     1      -3.395  -6.137   0.428  0.00  0.00    +0.151 C 
ATOM      2  S   UNL     1      -1.880  -6.931   0.501  0.00  0.00    -0.017 S 
ENDROOT
BRANCH   1   3
ATOM      3  N   UNL     1      -3.449  -4.806   0.224  0.00  0.00    -0.296 N 
ATOM      4  H   UNL     1      -4.306  -4.368   0.101  0.00  0.00    +0.154 HD
BRANCH   3   9
ATOM      5  C   UNL     1      -0.940  -2.310  -0.790  0.00  0.00    +0.035 A 
ATOM      6  C   UNL     1       0.071  -2.573   0.126  0.00  0.00    +0.023 A 
ATOM      7  C   UNL     1      -0.088  -3.571   1.067  0.00  0.00    +0.004 A 
ATOM      8  C   UNL     1      -1.254  -4.312   1.101  0.00  0.00    +0.023 A 
ATOM      9  C   UNL     1      -2.270  -4.055   0.189  0.00  0.00    +0.034 A 
ATOM     10  C   UNL     1      -2.114  -3.049  -0.755  0.00  0.00    +0.046 A 
BRANCH   5  14
ATOM     11  C   UNL     1      -1.645   0.593  -3.080  0.00  0.00    +0.109 C 
ATOM     12  C   UNL     1      -1.837  -0.561  -2.130  0.00  0.00    +0.214 C 
ATOM     13  O   UNL     1      -2.945  -0.826  -1.714  0.00  0.00    -0.276 OA
ATOM     14  N   UNL     1      -0.778  -1.298  -1.742  0.00  0.00    -0.286 N 
ATOM     15  H   UNL     1       0.098  -1.127  -2.124  0.00  0.00    +0.155 HD
ENDBRANCH   5  14
ENDBRANCH   3   9
ENDBRANCH   1   3
BRANCH   1  16
ATOM     16  N   UNL     1      -4.534  -6.843   0.576  0.00  0.00    -0.245 N 
ATOM     17  H   UNL     1      -4.495  -7.801   0.723  0.00  0.00    +0.172 HD
BRANCH  16  18
ATOM     18  N   UNL     1      -5.774  -6.193   0.516  0.00  0.00    -0.231 N 
ATOM     19  C   UNL     1      -6.912  -6.899   0.663  0.00  0.00    +0.263 C 
ATOM     20  O   UNL     1      -6.863  -8.100   0.848  0.00  0.00    -0.269 OA
ATOM     21  H   UNL     1      -5.813  -5.235   0.368  0.00  0.00    +0.173 HD
BRANCH  19  22
ATOM     22  C   UNL     1      -8.219  -6.214   0.600  0.00  0.00    +0.075 A 
ATOM     23  C   UNL     1      -8.279  -4.836   0.382  0.00  0.00    +0.036 A 
ATOM     24  C   UNL     1      -9.504  -4.202   0.324  0.00  0.00    +0.042 A 
ATOM     25  C   UNL     1     -10.673  -4.929   0.481  0.00  0.00    +0.023 A 
ATOM     26  C   UNL     1     -10.622  -6.293   0.697  0.00  0.00    +0.040 A 
ATOM     27  C   UNL     1      -9.402  -6.943   0.752  0.00  0.00    +0.136 A 
ATOM     28  F   UNL     1      -9.354  -8.277   0.958  0.00  0.00    -0.205 F 
ATOM     29 CL   UNL     1      -9.580  -2.489   0.053  0.00  0.00    -0.084 Cl
ENDBRANCH  19  22
ENDBRANCH  16  18
ENDBRANCH   1  16
TORSDOF 6
