REMARK  Name = ZINC35194043
REMARK  2 active torsions:
REMARK  status: ('A' for Active; 'I' for Inactive)
REMARK    1  A    between atoms: C_4  and  C_7
REMARK    2  A    between atoms: C_13  and  C_15
REMARK                            x       y       z     vdW  Elec       q    Type
REMARK                         _______ _______ _______ _____ _____    ______ ____
ROOT
ATOM      1  C   UNL     1       2.906  -0.480   2.452  0.00  0.00    +0.220 C 
ATOM      2  O   UNL     1       3.364   0.309   3.250  0.00  0.00    -0.275 OA
ATOM      3  N   UNL     1       3.049  -1.805   2.656  0.00  0.00    -0.280 N 
ATOM      4  C   UNL     1       2.512  -2.802   1.705  0.00  0.00    +0.178 C 
ATOM      5  S   UNL     1       3.563  -4.270   2.092  0.00  0.00    -0.139 S 
ATOM      6  C   UNL     1       3.825  -3.873   3.878  0.00  0.00    +0.102 C 
ATOM      7  C   UNL     1       3.745  -2.328   3.820  0.00  0.00    +0.173 C 
ENDROOT
BRANCH   7   8
ATOM      8  C   UNL     1       3.036  -1.843   5.059  0.00  0.00    +0.237 C 
ATOM      9  O   UNL     1       2.055  -1.137   4.959  0.00  0.00    -0.274 OA
ATOM     10  N   UNL     1       3.492  -2.195   6.277  0.00  0.00    -0.300 N 
ATOM     11  C   UNL     1       4.668  -3.036   6.542  0.00  0.00    +0.108 C 
ATOM     12  C   UNL     1       4.787  -3.188   8.073  0.00  0.00    +0.020 C 
ATOM     13  C   UNL     1       3.346  -2.892   8.565  0.00  0.00    +0.020 C 
ATOM     14  C   UNL     1       2.898  -1.794   7.566  0.00  0.00    +0.108 C 
ENDBRANCH   7   8
BRANCH   1  18
ATOM     15  C   UNL     1      -0.019   1.526   0.010  0.00  0.00    +0.000 C 
ATOM     16  C   UNL     1       1.417   2.055  -0.000  0.00  0.00    +0.001 C 
ATOM     17  C   UNL     1       2.157   1.548   1.239  0.00  0.00    +0.013 C 
ATOM     18  C   UNL     1       2.178   0.019   1.231  0.00  0.00    +0.075 C 
ATOM     19  C   UNL     1       0.742  -0.511   1.242  0.00  0.00    +0.013 C 
ATOM     20  C   UNL     1       0.002  -0.004   0.002  0.00  0.00    +0.001 C 
ENDBRANCH   1  18
TORSDOF 2
