REMARK  Name = ZINC63350824
REMARK  8 active torsions:
REMARK  status: ('A' for Active; 'I' for Inactive)
REMARK    1  A    between atoms: C_1  and  O_2
REMARK    2  A    between atoms: O_2  and  C_3
REMARK    3  A    between atoms: C_8  and  N_9
REMARK    4  A    between atoms: N_12  and  C_13
REMARK    5  A    between atoms: C_13  and  C_15
REMARK    6  A    between atoms: C_13  and  C_25
REMARK    7  A    between atoms: C_15  and  C_16
REMARK    8  A    between atoms: N_27  and  N_28
REMARK                            x       y       z     vdW  Elec       q    Type
REMARK                         _______ _______ _______ _____ _____    ______ ____
ROOT
ATOM      1  C   UNL     1      -0.611  -6.322   0.566  0.00  0.00    +0.166 C 
ENDROOT
BRANCH   1   5
ATOM      2  N   UNL     1       0.095  -2.777  -0.112  0.00  0.00    -0.266 N 
ATOM      3  C   UNL     1       0.060  -4.120  -0.232  0.00  0.00    +0.305 C 
ATOM      4  O   UNL     1       0.600  -4.659  -1.178  0.00  0.00    -0.252 OA
ATOM      5  N   UNL     1      -0.573  -4.863   0.697  0.00  0.00    -0.287 N 
ATOM      6  H   UNL     1      -0.263  -2.352   0.683  0.00  0.00    +0.156 HD
ATOM      7  H   UNL     1      -1.004  -4.432   1.452  0.00  0.00    +0.151 HD
BRANCH   2  13
ATOM      8  C   UNL     1       1.156  -0.730  -0.851  0.00  0.00    +0.141 A 
ATOM      9  C   UNL     1       1.708   0.035  -1.865  0.00  0.00    +0.047 A 
ATOM     10  C   UNL     1       1.750  -0.456  -3.157  0.00  0.00    +0.004 A 
ATOM     11  C   UNL     1       1.242  -1.710  -3.441  0.00  0.00    +0.002 A 
ATOM     12  C   UNL     1       0.690  -2.480  -2.435  0.00  0.00    +0.027 A 
ATOM     13  C   UNL     1       0.650  -1.996  -1.135  0.00  0.00    +0.077 A 
BRANCH   8  15
ATOM     14  C   UNL     1       1.651   1.057   0.637  0.00  0.00    +0.277 C 
ATOM     15  O   UNL     1       1.114  -0.249   0.420  0.00  0.00    -0.493 OA
ENDBRANCH   8  15
ENDBRANCH   2  13
ENDBRANCH   1   5
BRANCH   1  16
ATOM     16  C   UNL     1      -1.760  -6.716  -0.325  0.00  0.00    +0.247 C 
ATOM     17  O   UNL     1      -2.477  -5.863  -0.803  0.00  0.00    -0.272 OA
ATOM     18  N   UNL     1      -1.992  -8.018  -0.590  0.00  0.00    -0.252 N 
ATOM     19  H   UNL     1      -1.418  -8.700  -0.207  0.00  0.00    +0.169 HD
BRANCH  18  20
ATOM     20  N   UNL     1      -3.034  -8.375  -1.397  0.00  0.00    -0.254 NA
ATOM     21  H   UNL     1      -2.968  -7.920  -2.295  0.00  0.00    +0.140 HD
ATOM     22  H   UNL     1      -3.081  -9.378  -1.503  0.00  0.00    +0.140 HD
ENDBRANCH  18  20
ENDBRANCH   1  16
BRANCH   1  23
ATOM     23  C   UNL     1      -0.796  -6.953   1.948  0.00  0.00    +0.065 C 
BRANCH  23  24
ATOM     24  C   UNL     1       0.412  -6.660   2.800  0.00  0.00    -0.039 C 
ATOM     25  C   UNL     1       0.556  -5.648   3.686  0.00  0.00    -0.001 A 
ATOM     26  C   UNL     1      -0.334  -4.558   4.104  0.00  0.00    +0.010 A 
ATOM     27  C   UNL     1       0.101  -3.677   5.033  0.00  0.00    +0.001 A 
ATOM     28  C   UNL     1       1.377  -3.777   5.605  0.00  0.00    +0.002 A 
ATOM     29  C   UNL     1       2.251  -4.751   5.271  0.00  0.00    +0.026 A 
ATOM     30  C   UNL     1       1.898  -5.732   4.305  0.00  0.00    +0.043 A 
ATOM     31  N   UNL     1       2.558  -6.757   3.820  0.00  0.00    -0.380 N 
ATOM     32  C   UNL     1       1.706  -7.442   2.842  0.00  0.00    +0.144 C 
ATOM     33  H   UNL     1       3.458  -7.020   4.069  0.00  0.00    +0.160 HD
ENDBRANCH  23  24
ENDBRANCH   1  23
TORSDOF 7
