REMARK  Name = ZINC13127515
REMARK  7 active torsions:
REMARK  status: ('A' for Active; 'I' for Inactive)
REMARK    1  A    between atoms: C_1  and  C_2
REMARK    2  A    between atoms: C_2  and  C_4
REMARK    3  A    between atoms: C_2  and  N_53
REMARK    4  A    between atoms: N_6  and  C_7
REMARK    5  A    between atoms: C_8  and  C_12
REMARK    6  A    between atoms: N_18  and  S_21
REMARK    7  A    between atoms: S_21  and  C_24
REMARK                            x       y       z     vdW  Elec       q    Type
REMARK                         _______ _______ _______ _____ _____    ______ ____
ROOT
ATOM      1  C   UNL     1       3.381  -1.736  -0.961  0.00  0.00    -0.076 C 
ATOM      2  C   UNL     1       4.753  -1.446  -0.393  0.00  0.00    -0.001 C 
ATOM      3  C   UNL     1       5.742  -2.531  -0.851  0.00  0.00    +0.107 C 
ATOM      4  N   UNL     1       5.120  -3.869  -0.825  0.00  0.00    -0.178 NA
ATOM      5  C   UNL     1       4.258  -4.306   0.254  0.00  0.00    +0.091 C 
ATOM      6  C   UNL     1       2.791  -3.933  -0.067  0.00  0.00    -0.060 C 
ATOM      7  N   UNL     1       2.622  -2.507   0.069  0.00  0.00    +0.388 N 
ATOM      8  H   UNL     1       2.970  -2.232   0.995  0.00  0.00    -0.081 HD
ENDROOT
BRANCH   4   9
ATOM      9  S   UNL     1       5.418  -4.910  -2.078  0.00  0.00    +0.061 S 
ATOM     10  O   UNL     1       6.651  -4.506  -2.658  0.00  0.00    -0.153 OA
ATOM     11  O   UNL     1       5.207  -6.222  -1.575  0.00  0.00    -0.153 OA
BRANCH   9  12
ATOM     12  C   UNL     1       4.174  -4.631  -3.295  0.00  0.00    +0.106 A 
ATOM     13  C   UNL     1       2.994  -5.351  -3.254  0.00  0.00    +0.031 A 
ATOM     14  C   UNL     1       2.016  -5.129  -4.205  0.00  0.00    +0.040 A 
ATOM     15  C   UNL     1       2.222  -4.193  -5.204  0.00  0.00    +0.124 A 
ATOM     16  C   UNL     1       3.406  -3.477  -5.247  0.00  0.00    +0.040 A 
ATOM     17  C   UNL     1       4.381  -3.696  -4.292  0.00  0.00    +0.031 A 
ATOM     18  F   UNL     1       1.268  -3.979  -6.137  0.00  0.00    -0.205 F 
ENDBRANCH   9  12
ENDBRANCH   4   9
BRANCH   7  20
ATOM     19  C   UNL     1       0.500  -2.924  -1.153  0.00  0.00    -0.004 C 
ATOM     20  C   UNL     1       1.199  -2.169  -0.021  0.00  0.00    +0.016 C 
BRANCH  20  21
ATOM     21  C   UNL     1       0.564  -2.538   1.295  0.00  0.00    +0.204 C 
ATOM     22  O   UNL     1       1.153  -3.261   2.071  0.00  0.00    -0.277 OA
ATOM     23  N   UNL     1      -0.658  -2.065   1.610  0.00  0.00    -0.281 N 
ATOM     24  H   UNL     1      -1.129  -1.487   0.990  0.00  0.00    +0.155 HD
BRANCH  23  25
ATOM     25  C   UNL     1      -1.242  -2.405   2.821  0.00  0.00    +0.084 A 
ATOM     26  C   UNL     1      -2.479  -2.016   3.322  0.00  0.00    +0.065 A 
ATOM     27  C   UNL     1      -2.842  -2.526   4.623  0.00  0.00    +0.022 A 
ATOM     28  C   UNL     1      -1.952  -3.323   5.240  0.00  0.00    +0.048 A 
ATOM     29  S   UNL     1      -0.605  -3.410   4.079  0.00  0.00    -0.081 S 
BRANCH  26  30
ATOM     30  C   UNL     1      -3.373  -1.134   2.565  0.00  0.00    +0.244 C 
ATOM     31  O   UNL     1      -3.038  -0.724   1.469  0.00  0.00    -0.270 OA
ATOM     32  N   UNL     1      -4.565  -0.778   3.083  0.00  0.00    -0.325 N 
ATOM     33  H   UNL     1      -4.832  -1.105   3.956  0.00  0.00    +0.145 HD
ATOM     34  H   UNL     1      -5.157  -0.194   2.582  0.00  0.00    +0.145 HD
ENDBRANCH  26  30
ENDBRANCH  23  25
ENDBRANCH  20  21
ENDBRANCH   7  20
TORSDOF 6
