REMARK  Name = ZINC13131002
REMARK  11 active torsions:
REMARK  status: ('A' for Active; 'I' for Inactive)
REMARK    1  A    between atoms: C_1  and  N_2
REMARK    2  A    between atoms: N_2  and  C_3
REMARK    3  A    between atoms: N_2  and  C_19
REMARK    4  A    between atoms: C_3  and  C_4
REMARK    5  A    between atoms: N_6  and  C_7
REMARK    6  A    between atoms: C_7  and  C_8
REMARK    7  A    between atoms: C_8  and  C_9
REMARK    8  A    between atoms: C_12  and  S_15
REMARK    9  A    between atoms: S_15  and  N_18
REMARK   10  A    between atoms: C_19  and  C_20
REMARK   11  A    between atoms: N_22  and  C_23
REMARK                            x       y       z     vdW  Elec       q    Type
REMARK                         _______ _______ _______ _____ _____    ______ ____
ROOT
ATOM      1  C   UNL     1       2.171  -0.104   1.099  0.00  0.00    +0.196 C 
ATOM      2  O   UNL     1       2.568   0.541   0.152  0.00  0.00    -0.278 OA
ATOM      3  N   UNL     1       3.023  -0.450   2.084  0.00  0.00    -0.317 N 
ATOM      4  H   UNL     1       2.705  -0.966   2.842  0.00  0.00    +0.149 HD
ENDROOT
BRANCH   1   5
ATOM      5  C   UNL     1       0.724  -0.519   1.175  0.00  0.00    +0.019 C 
BRANCH   5   7
ATOM      6  C   UNL     1      -0.006   1.446   0.008  0.00  0.00    -0.095 C 
ATOM      7  N   UNL     1       0.010  -0.023  -0.009  0.00  0.00    +0.389 N 
ATOM      8  H   UNL     1       0.477  -0.345  -0.843  0.00  0.00    -0.081 HD
BRANCH   7   9
ATOM      9  C   UNL     1      -1.370  -0.527   0.004  0.00  0.00    +0.019 C 
BRANCH   9  10
ATOM     10  C   UNL     1      -2.066  -0.121  -1.270  0.00  0.00    +0.201 C 
ATOM     11  O   UNL     1      -1.470   0.525  -2.106  0.00  0.00    -0.278 OA
ATOM     12  N   UNL     1      -3.349  -0.476  -1.480  0.00  0.00    -0.286 N 
ATOM     13  H   UNL     1      -3.805  -1.047  -0.842  0.00  0.00    +0.155 HD
BRANCH  12  14
ATOM     14  C   UNL     1      -4.024  -0.020  -2.618  0.00  0.00    +0.052 A 
ATOM     15  C   UNL     1      -3.339   0.140  -3.815  0.00  0.00    +0.025 A 
ATOM     16  C   UNL     1      -4.008   0.589  -4.937  0.00  0.00    +0.002 A 
ATOM     17  C   UNL     1      -5.358   0.880  -4.869  0.00  0.00    +0.002 A 
ATOM     18  C   UNL     1      -6.044   0.722  -3.679  0.00  0.00    +0.022 A 
ATOM     19  C   UNL     1      -5.382   0.267  -2.554  0.00  0.00    +0.062 A 
ATOM     20 CL   UNL     1      -6.244   0.062  -1.062  0.00  0.00    -0.082 Cl
ENDBRANCH  12  14
ENDBRANCH   9  10
ENDBRANCH   7   9
ENDBRANCH   5   7
ENDBRANCH   1   5
BRANCH   3  21
ATOM     21  C   UNL     1       4.429  -0.047   2.011  0.00  0.00    +0.109 C 
BRANCH  21  22
ATOM     22  C   UNL     1       5.173  -0.564   3.244  0.00  0.00    +0.054 C 
BRANCH  22  23
ATOM     23  C   UNL     1       6.620  -0.149   3.169  0.00  0.00    -0.046 A 
ATOM     24  C   UNL     1       7.543  -0.970   2.548  0.00  0.00    +0.005 A 
ATOM     25  C   UNL     1       8.870  -0.589   2.479  0.00  0.00    +0.029 A 
ATOM     26  C   UNL     1       9.274   0.612   3.030  0.00  0.00    +0.105 A 
ATOM     27  C   UNL     1       8.351   1.433   3.650  0.00  0.00    +0.029 A 
ATOM     28  C   UNL     1       7.023   1.055   3.716  0.00  0.00    +0.005 A 
BRANCH  26  29
ATOM     29  S   UNL     1      10.966   1.097   2.943  0.00  0.00    +0.056 S 
ATOM     30  O   UNL     1      11.183   2.008   4.011  0.00  0.00    -0.153 OA
ATOM     31  O   UNL     1      11.723  -0.097   2.793  0.00  0.00    -0.153 OA
BRANCH  29  32
ATOM     32  N   UNL     1      11.157   1.957   1.541  0.00  0.00    -0.204 NA
ATOM     33  H   UNL     1      10.399   2.103   0.954  0.00  0.00    +0.144 HD
ATOM     34  H   UNL     1      12.028   2.316   1.307  0.00  0.00    +0.144 HD
ENDBRANCH  29  32
ENDBRANCH  26  29
ENDBRANCH  22  23
ENDBRANCH  21  22
ENDBRANCH   3  21
TORSDOF 10
