REMARK  Name = ZINC39657120
REMARK  9 active torsions:
REMARK  status: ('A' for Active; 'I' for Inactive)
REMARK    1  A    between atoms: C_1  and  C_2
REMARK    2  A    between atoms: C_2  and  C_4
REMARK    3  A    between atoms: C_2  and  N_11
REMARK    4  A    between atoms: C_12  and  C_14
REMARK    5  A    between atoms: C_25  and  C_27
REMARK    6  A    between atoms: C_29  and  O_35
REMARK    7  A    between atoms: C_32  and  O_33
REMARK    8  A    between atoms: O_33  and  C_34
REMARK    9  A    between atoms: O_35  and  C_36
REMARK                            x       y       z     vdW  Elec       q    Type
REMARK                         _______ _______ _______ _____ _____    ______ ____
ROOT
ATOM      1  C   UNL     1       2.777  -1.101   2.400  0.00  0.00    +0.100 C 
ATOM      2  C   UNL     1       2.275  -2.507   2.794  0.00  0.00    +0.121 C 
ATOM      3  N   UNL     1       3.225  -3.440   2.144  0.00  0.00    -0.296 N 
ATOM      4  C   UNL     1       4.547  -2.790   2.302  0.00  0.00    +0.115 C 
ATOM      5  C   UNL     1       4.270  -1.289   2.081  0.00  0.00    -0.004 C 
ATOM      6  C   UNL     1       5.123  -0.450   3.027  0.00  0.00    -0.010 C 
ATOM      7  C   UNL     1       6.599  -0.608   2.654  0.00  0.00    -0.082 C 
ATOM      8  N   UNL     1       6.804  -0.177   1.266  0.00  0.00    +0.379 N 
ATOM      9  C   UNL     1       6.053  -1.049   0.354  0.00  0.00    -0.082 C 
ATOM     10  C   UNL     1       4.553  -0.909   0.631  0.00  0.00    -0.010 C 
ATOM     11  C   UNL     1       2.949  -4.615   1.544  0.00  0.00    +0.250 C 
ATOM     12  O   UNL     1       1.794  -4.972   1.408  0.00  0.00    -0.270 OA
ATOM     13  H   UNL     1       6.483   0.774   1.159  0.00  0.00    -0.086 HD
ATOM     14  H   UNL     1       7.786  -0.225   1.041  0.00  0.00    -0.086 HD
ENDROOT
BRANCH  11  15
ATOM     15  C   UNL     1       4.047  -5.468   1.052  0.00  0.00    +0.082 A 
ATOM     16  C   UNL     1       5.256  -5.529   1.750  0.00  0.00    +0.062 A 
ATOM     17  C   UNL     1       6.281  -6.331   1.284  0.00  0.00    +0.121 A 
ATOM     18  C   UNL     1       6.112  -7.076   0.123  0.00  0.00    +0.049 A 
ATOM     19  C   UNL     1       4.920  -7.022  -0.573  0.00  0.00    +0.050 A 
ATOM     20  C   UNL     1       3.881  -6.227  -0.114  0.00  0.00    +0.132 A 
BRANCH  20  21
ATOM     21  O   UNL     1       2.709  -6.179  -0.796  0.00  0.00    -0.494 OA
ATOM     22  C   UNL     1       2.612  -6.979  -1.976  0.00  0.00    +0.277 C 
ENDBRANCH  20  21
BRANCH  17  23
ATOM     23  O   UNL     1       7.458  -6.390   1.962  0.00  0.00    -0.495 OA
ATOM     24  C   UNL     1       8.474  -7.239   1.425  0.00  0.00    +0.277 C 
ENDBRANCH  17  23
ENDBRANCH  11  15
BRANCH   1  26
ATOM     25  N   UNL     1       1.833   0.719   1.016  0.00  0.00    -0.308 N 
ATOM     26  C   UNL     1       2.040  -0.602   1.184  0.00  0.00    +0.219 C 
ATOM     27  O   UNL     1       1.634  -1.389   0.356  0.00  0.00    -0.275 OA
ATOM     28  H   UNL     1       2.158   1.349   1.678  0.00  0.00    +0.149 HD
BRANCH  25  30
ATOM     29  C   UNL     1       2.098   1.359  -1.330  0.00  0.00    +0.033 C 
ATOM     30  C   UNL     1       1.116   1.204  -0.166  0.00  0.00    +0.100 C 
BRANCH  30  31
ATOM     31  C   UNL     1       0.486   2.538   0.140  0.00  0.00    -0.027 A 
ATOM     32  C   UNL     1       1.177   3.474   0.887  0.00  0.00    +0.006 A 
ATOM     33  C   UNL     1       0.599   4.697   1.168  0.00  0.00    +0.015 A 
ATOM     34  C   UNL     1      -0.671   4.985   0.702  0.00  0.00    +0.018 A 
ATOM     35  C   UNL     1      -1.363   4.049  -0.045  0.00  0.00    +0.015 A 
ATOM     36  C   UNL     1      -0.782   2.827  -0.330  0.00  0.00    +0.006 A 
ATOM     37 BR   UNL     1      -1.463   6.659   1.087  0.00  0.00    -0.050 Br
ENDBRANCH  30  31
ENDBRANCH  25  30
ENDBRANCH   1  26
TORSDOF 6
