REMARK  Name = ZINC44737103
REMARK  8 active torsions:
REMARK  status: ('A' for Active; 'I' for Inactive)
REMARK    1  A    between atoms: C_1  and  C_2
REMARK    2  A    between atoms: C_9  and  C_11
REMARK    3  A    between atoms: C_11  and  C_13
REMARK    4  A    between atoms: C_11  and  N_14
REMARK    5  A    between atoms: C_15  and  C_17
REMARK    6  A    between atoms: C_28  and  C_30
REMARK    7  A    between atoms: C_35  and  O_36
REMARK    8  A    between atoms: O_36  and  C_37
REMARK                            x       y       z     vdW  Elec       q    Type
REMARK                         _______ _______ _______ _____ _____    ______ ____
ROOT
ATOM      1  C   UNL     1      -1.623  -8.779   0.996  0.00  0.00    +0.100 C 
ATOM      2  C   UNL     1      -0.559  -9.304   0.005  0.00  0.00    +0.121 C 
ATOM      3  N   UNL     1      -0.007 -10.516   0.656  0.00  0.00    -0.296 N 
ATOM      4  C   UNL     1      -1.185 -11.173   1.272  0.00  0.00    +0.115 C 
ATOM      5  C   UNL     1      -2.034 -10.009   1.822  0.00  0.00    -0.004 C 
ATOM      6  C   UNL     1      -3.519 -10.302   1.632  0.00  0.00    -0.010 C 
ATOM      7  C   UNL     1      -3.917 -11.492   2.508  0.00  0.00    -0.082 C 
ATOM      8  N   UNL     1      -3.635 -11.182   3.915  0.00  0.00    +0.379 N 
ATOM      9  C   UNL     1      -2.192 -10.994   4.107  0.00  0.00    -0.082 C 
ATOM     10  C   UNL     1      -1.721  -9.782   3.298  0.00  0.00    -0.010 C 
ATOM     11  C   UNL     1       1.276 -10.928   0.682  0.00  0.00    +0.250 C 
ATOM     12  O   UNL     1       2.149 -10.227   0.209  0.00  0.00    -0.270 OA
ATOM     13  H   UNL     1      -4.121 -10.337   4.176  0.00  0.00    -0.086 HD
ATOM     14  H   UNL     1      -3.954 -11.943   4.496  0.00  0.00    -0.086 HD
ENDROOT
BRANCH  11  15
ATOM     15  C   UNL     1       1.620 -12.231   1.283  0.00  0.00    +0.078 A 
ATOM     16  C   UNL     1       0.744 -13.312   1.166  0.00  0.00    +0.017 A 
ATOM     17  C   UNL     1       1.071 -14.526   1.730  0.00  0.00    +0.001 A 
ATOM     18  C   UNL     1       2.267 -14.680   2.413  0.00  0.00    +0.004 A 
ATOM     19  C   UNL     1       3.142 -13.619   2.537  0.00  0.00    +0.046 A 
ATOM     20  C   UNL     1       2.830 -12.391   1.971  0.00  0.00    +0.132 A 
BRANCH  20  21
ATOM     21  O   UNL     1       3.691 -11.350   2.087  0.00  0.00    -0.494 OA
ATOM     22  C   UNL     1       4.906 -11.588   2.802  0.00  0.00    +0.277 C 
ENDBRANCH  20  21
ENDBRANCH  11  15
BRANCH   1  24
ATOM     23  N   UNL     1      -1.807  -6.729   2.367  0.00  0.00    -0.305 N 
ATOM     24  C   UNL     1      -1.030  -7.721   1.889  0.00  0.00    +0.219 C 
ATOM     25  O   UNL     1       0.147  -7.761   2.179  0.00  0.00    -0.275 OA
ATOM     26  H   UNL     1      -2.749  -6.696   2.135  0.00  0.00    +0.149 HD
BRANCH  23  27
ATOM     27  C   UNL     1      -1.231  -5.700   3.236  0.00  0.00    +0.136 C 
ATOM     28  C   UNL     1      -0.607  -4.598   2.377  0.00  0.00    +0.036 C 
BRANCH  27  37
ATOM     29  C   UNL     1      -5.582  -2.485   8.347  0.00  0.00    +0.044 C 
ATOM     30  C   UNL     1      -5.113  -3.189   7.099  0.00  0.00    -0.048 A 
ATOM     31  C   UNL     1      -6.035  -3.561   6.131  0.00  0.00    +0.005 A 
ATOM     32  C   UNL     1      -5.630  -4.200   4.993  0.00  0.00    +0.030 A 
ATOM     33  C   UNL     1      -4.276  -4.484   4.798  0.00  0.00    +0.089 A 
ATOM     34  C   UNL     1      -3.342  -4.108   5.778  0.00  0.00    +0.067 A 
ATOM     35  C   UNL     1      -3.771  -3.454   6.926  0.00  0.00    +0.031 A 
ATOM     36  N   UNL     1      -2.110  -4.516   5.308  0.00  0.00    -0.340 N 
ATOM     37  C   UNL     1      -2.314  -5.109   4.101  0.00  0.00    +0.128 A 
ATOM     38  N   UNL     1      -3.580  -5.090   3.802  0.00  0.00    -0.231 NA
ATOM     39  H   UNL     1      -1.257  -4.402   5.756  0.00  0.00    +0.167 HD
ENDBRANCH  27  37
ENDBRANCH  23  27
ENDBRANCH   1  24
TORSDOF 5
