REMARK  Name = ZINC12593653
REMARK  6 active torsions:
REMARK  status: ('A' for Active; 'I' for Inactive)
REMARK    1  A    between atoms: C_4  and  C_7
REMARK    2  A    between atoms: C_8  and  C_9
REMARK    3  A    between atoms: C_9  and  N_56
REMARK    4  A    between atoms: C_15  and  C_17
REMARK    5  A    between atoms: C_17  and  C_18
REMARK    6  A    between atoms: N_20  and  C_21
REMARK                            x       y       z     vdW  Elec       q    Type
REMARK                         _______ _______ _______ _____ _____    ______ ____
ROOT
ATOM      1  C   UNL     1       5.640  -1.653   1.230  0.00  0.00    -0.058 C 
ATOM      2  C   UNL     1       7.039  -1.075   1.013  0.00  0.00    +0.085 C 
ATOM      3  N   UNL     1       7.071   0.326   1.424  0.00  0.00    -0.318 N 
ATOM      4  C   UNL     1       5.966   1.064   1.576  0.00  0.00    +0.200 C 
ATOM      5  O   UNL     1       6.085   2.229   1.891  0.00  0.00    -0.278 OA
ATOM      6  C   UNL     1       4.584   0.510   1.372  0.00  0.00    +0.028 C 
ATOM      7  H   UNL     1       7.932   0.739   1.595  0.00  0.00    +0.149 HD
ATOM      8  N   UNL     1       4.665  -0.742   0.598  0.00  0.00    +0.391 N 
ATOM      9  H   UNL     1       4.977  -0.527  -0.357  0.00  0.00    -0.080 HD
ENDROOT
BRANCH   8  10
ATOM     10  C   UNL     1       3.333  -1.386   0.535  0.00  0.00    -0.050 C 
BRANCH  10  12
ATOM     11  C   UNL     1       3.022  -3.779   0.082  0.00  0.00    +0.002 C 
ATOM     12  C   UNL     1       3.414  -2.593  -0.364  0.00  0.00    -0.045 C 
BRANCH  11  16
ATOM     13  C   UNL     1       3.250  -7.181  -2.451  0.00  0.00    +0.000 A 
ATOM     14  C   UNL     1       2.767  -7.313  -1.161  0.00  0.00    +0.001 A 
ATOM     15  C   UNL     1       2.690  -6.212  -0.334  0.00  0.00    +0.008 A 
ATOM     16  C   UNL     1       3.102  -4.963  -0.799  0.00  0.00    -0.025 A 
ATOM     17  C   UNL     1       3.582  -4.835  -2.103  0.00  0.00    +0.008 A 
ATOM     18  C   UNL     1       3.660  -5.945  -2.919  0.00  0.00    +0.001 A 
ENDBRANCH  11  16
ENDBRANCH  10  12
ENDBRANCH   8  10
BRANCH   6  19
ATOM     19  C   UNL     1       3.741   1.523   0.595  0.00  0.00    +0.089 C 
BRANCH  19  20
ATOM     20  C   UNL     1       4.339   1.729  -0.773  0.00  0.00    +0.212 C 
ATOM     21  O   UNL     1       5.390   1.198  -1.062  0.00  0.00    -0.276 OA
ATOM     22  N   UNL     1       3.706   2.506  -1.675  0.00  0.00    -0.312 N 
ATOM     23  H   UNL     1       2.865   2.931  -1.444  0.00  0.00    +0.149 HD
BRANCH  22  24
ATOM     24  C   UNL     1       4.287   2.706  -3.005  0.00  0.00    +0.082 C 
ATOM     25  C   UNL     1       3.804   1.616  -3.985  0.00  0.00    +0.058 C 
ATOM     26  C   UNL     1       3.672   2.324  -5.322  0.00  0.00    -0.042 A 
ATOM     27  C   UNL     1       3.587   1.808  -6.605  0.00  0.00    +0.004 A 
ATOM     28  C   UNL     1       3.470   2.656  -7.689  0.00  0.00    +0.000 A 
ATOM     29  C   UNL     1       3.437   4.024  -7.494  0.00  0.00    +0.000 A 
ATOM     30  C   UNL     1       3.521   4.540  -6.215  0.00  0.00    +0.004 A 
ATOM     31  C   UNL     1       3.639   3.692  -5.127  0.00  0.00    -0.042 A 
ATOM     32  C   UNL     1       3.747   4.001  -3.650  0.00  0.00    +0.058 C 
ENDBRANCH  22  24
ENDBRANCH  19  20
ENDBRANCH   6  19
TORSDOF 6
