REMARK  Name = ZINC03670620
REMARK  12 active torsions:
REMARK  status: ('A' for Active; 'I' for Inactive)
REMARK    1  A    between atoms: C_1  and  C_2
REMARK    2  A    between atoms: C_2  and  O_3
REMARK    3  A    between atoms: O_3  and  C_4
REMARK    4  A    between atoms: C_7  and  N_10
REMARK    5  A    between atoms: C_20  and  C_21
REMARK    6  A    between atoms: C_20  and  O_30
REMARK    7  A    between atoms: N_23  and  C_24
REMARK    8  A    between atoms: C_24  and  C_25
REMARK    9  A    between atoms: C_25  and  C_26
REMARK   10  A    between atoms: C_26  and  N_27
REMARK   11  A    between atoms: N_27  and  C_28
REMARK   12  A    between atoms: N_27  and  C_29
REMARK                            x       y       z     vdW  Elec       q    Type
REMARK                         _______ _______ _______ _____ _____    ______ ____
ROOT
ATOM      1  N   UNL     1       1.103  -5.938  -1.834  0.00  0.00    -0.214 N 
ATOM      2  C   UNL     1       0.673  -6.776  -0.873  0.00  0.00    +0.314 C 
ATOM      3  O   UNL     1       0.190  -6.301   0.137  0.00  0.00    -0.252 OA
ATOM      4  N   UNL     1       0.752  -8.109  -0.977  0.00  0.00    -0.269 N 
ATOM      5  C   UNL     1       1.288  -8.753  -2.093  0.00  0.00    +0.043 A 
ATOM      6  C   UNL     1       1.348 -10.139  -2.151  0.00  0.00    +0.025 A 
ATOM      7  C   UNL     1       1.883 -10.758  -3.264  0.00  0.00    +0.017 A 
ATOM      8  C   UNL     1       2.359 -10.004  -4.322  0.00  0.00    +0.018 A 
ATOM      9  C   UNL     1       2.302  -8.621  -4.268  0.00  0.00    +0.025 A 
ATOM     10  C   UNL     1       1.770  -8.003  -3.160  0.00  0.00    +0.034 A 
ATOM     11  C   UNL     1       1.684  -6.497  -3.066  0.00  0.00    +0.247 C 
ATOM     12 BR   UNL     1       3.090 -10.862  -5.840  0.00  0.00    -0.050 Br
ATOM     13  H   UNL     1       0.422  -8.651  -0.243  0.00  0.00    +0.156 HD
ENDROOT
BRANCH   1  17
ATOM     14  C   UNL     1       0.775  -1.811  -1.336  0.00  0.00    +0.121 A 
ATOM     15  C   UNL     1      -0.306  -2.540  -1.808  0.00  0.00    +0.047 A 
ATOM     16  C   UNL     1      -0.198  -3.907  -1.973  0.00  0.00    +0.027 A 
ATOM     17  C   UNL     1       0.993  -4.551  -1.667  0.00  0.00    +0.042 A 
ATOM     18  C   UNL     1       2.075  -3.821  -1.195  0.00  0.00    +0.027 A 
ATOM     19  C   UNL     1       1.967  -2.453  -1.035  0.00  0.00    +0.047 A 
BRANCH  14  20
ATOM     20  O   UNL     1       0.668  -0.465  -1.173  0.00  0.00    -0.492 OA
BRANCH  20  22
ATOM     21  C   UNL     1      -0.518   1.639  -1.256  0.00  0.00    +0.048 C 
ATOM     22  C   UNL     1      -0.588   0.130  -1.502  0.00  0.00    +0.225 C 
ENDBRANCH  20  22
ENDBRANCH  14  20
ENDBRANCH   1  17
BRANCH  11  23
ATOM     23  C   UNL     1       0.869  -6.000  -4.232  0.00  0.00    +0.269 C 
ATOM     24  O   UNL     1       1.413  -5.418  -5.148  0.00  0.00    -0.270 OA
ATOM     25  N   UNL     1      -0.463  -6.200  -4.257  0.00  0.00    -0.311 N 
ATOM     26  H   UNL     1      -0.898  -6.665  -3.525  0.00  0.00    +0.149 HD
BRANCH  25  27
ATOM     27  C   UNL     1      -1.256  -5.716  -5.391  0.00  0.00    +0.102 C 
BRANCH  27  28
ATOM     28  C   UNL     1      -2.728  -6.071  -5.172  0.00  0.00    +0.000 C 
BRANCH  28  29
ATOM     29  C   UNL     1      -3.555  -5.566  -6.356  0.00  0.00    -0.078 C 
BRANCH  29  30
ATOM     30  N   UNL     1      -4.969  -5.907  -6.146  0.00  0.00    +0.376 N 
ATOM     31  C   UNL     1      -5.479  -5.179  -4.976  0.00  0.00    -0.097 C 
ATOM     32  C   UNL     1      -5.745  -5.529  -7.334  0.00  0.00    -0.097 C 
ATOM     33  H   UNL     1      -5.056  -6.899  -5.989  0.00  0.00    -0.083 HD
ENDBRANCH  29  30
ENDBRANCH  28  29
ENDBRANCH  27  28
ENDBRANCH  25  27
ENDBRANCH  11  23
BRANCH  11  34
ATOM     34  O   UNL     1       3.007  -5.976  -3.205  0.00  0.00    -0.360 OA
ATOM     35  H   UNL     1       3.473  -6.289  -3.992  0.00  0.00    +0.213 HD
ENDBRANCH  11  34
TORSDOF 9
