REMARK  Name = ZINC05271221
REMARK  8 active torsions:
REMARK  status: ('A' for Active; 'I' for Inactive)
REMARK    1  A    between atoms: C_1  and  C_2
REMARK    2  A    between atoms: C_2  and  O_3
REMARK    3  A    between atoms: O_3  and  C_4
REMARK    4  A    between atoms: C_9  and  N_10
REMARK    5  A    between atoms: C_13  and  C_20
REMARK    6  A    between atoms: C_15  and  C_17
REMARK    7  A    between atoms: C_17  and  C_18
REMARK    8  A    between atoms: C_17  and  C_19
REMARK                            x       y       z     vdW  Elec       q    Type
REMARK                         _______ _______ _______ _____ _____    ______ ____
ROOT
ATOM      1  N   UNL     1      -2.430   1.037   0.020  0.00  0.00    -0.241 N 
ATOM      2  C   UNL     1      -3.133   0.635  -1.101  0.00  0.00    +0.170 A 
ATOM      3  C   UNL     1      -4.271  -0.051  -0.638  0.00  0.00    +0.117 A 
ATOM      4  C   UNL     1      -5.161  -0.571  -1.577  0.00  0.00    +0.154 A 
ATOM      5  N   UNL     1      -4.890  -0.400  -2.873  0.00  0.00    -0.225 NA
ATOM      6  C   UNL     1      -3.811   0.243  -3.261  0.00  0.00    +0.135 A 
ATOM      7  N   UNL     1      -2.943   0.751  -2.405  0.00  0.00    -0.212 NA
ATOM      8  N   UNL     1      -4.217  -0.029   0.744  0.00  0.00    -0.303 N 
ATOM      9  H   UNL     1      -4.870  -0.421   1.344  0.00  0.00    +0.171 HD
ATOM     10  C   UNL     1      -3.102   0.630   1.114  0.00  0.00    +0.333 A 
ATOM     11  O   UNL     1      -2.753   0.827   2.263  0.00  0.00    -0.246 OA
ENDROOT
BRANCH   1  17
ATOM     12  C   UNL     1      -1.238   3.146   0.029  0.00  0.00    +0.144 A 
ATOM     13  C   UNL     1      -0.043   3.848   0.021  0.00  0.00    +0.048 A 
ATOM     14  C   UNL     1       1.160   3.166   0.007  0.00  0.00    +0.004 A 
ATOM     15  C   UNL     1       1.175   1.783   0.000  0.00  0.00    +0.002 A 
ATOM     16  C   UNL     1      -0.013   1.076   0.008  0.00  0.00    +0.030 A 
ATOM     17  C   UNL     1      -1.223   1.753   0.017  0.00  0.00    +0.094 A 
BRANCH  12  18
ATOM     18  O   UNL     1      -2.421   3.815   0.043  0.00  0.00    -0.490 OA
BRANCH  18  20
ATOM     19  C   UNL     1      -3.778   5.814   0.065  0.00  0.00    +0.048 C 
ATOM     20  C   UNL     1      -2.359   5.242   0.049  0.00  0.00    +0.226 C 
ENDBRANCH  18  20
ENDBRANCH  12  18
ENDBRANCH   1  17
BRANCH   4  21
ATOM     21  C   UNL     1      -6.377  -1.297  -1.146  0.00  0.00    +0.262 C 
ATOM     22  O   UNL     1      -6.610  -1.445   0.038  0.00  0.00    -0.269 OA
ATOM     23  N   UNL     1      -7.227  -1.793  -2.067  0.00  0.00    -0.324 N 
ATOM     24  H   UNL     1      -7.042  -1.675  -3.011  0.00  0.00    +0.145 HD
ATOM     25  H   UNL     1      -8.024  -2.269  -1.785  0.00  0.00    +0.145 HD
ENDBRANCH   4  21
BRANCH   6  26
ATOM     26  C   UNL     1      -3.555   0.407  -4.737  0.00  0.00    +0.051 C 
ATOM     27  C   UNL     1      -3.439  -0.971  -5.390  0.00  0.00    +0.015 C 
ATOM     28  C   UNL     1      -4.713   1.177  -5.373  0.00  0.00    +0.015 C 
ENDBRANCH   6  26
TORSDOF 5
