REMARK  Name = ZINC21057612
REMARK  6 active torsions:
REMARK  status: ('A' for Active; 'I' for Inactive)
REMARK    1  A    between atoms: C_1  and  C_2
REMARK    2  A    between atoms: C_5  and  C_23
REMARK    3  A    between atoms: N_8  and  C_10
REMARK    4  A    between atoms: C_10  and  C_11
REMARK    5  A    between atoms: N_13  and  C_14
REMARK    6  A    between atoms: C_15  and  N_22
REMARK                            x       y       z     vdW  Elec       q    Type
REMARK                         _______ _______ _______ _____ _____    ______ ____
ROOT
ATOM      1  C   UNL     1       1.073   6.594  -0.175  0.00  0.00    +0.201 C 
ATOM      2  O   UNL     1       2.094   6.003  -0.460  0.00  0.00    -0.278 OA
ATOM      3  N   UNL     1      -0.067   5.907   0.035  0.00  0.00    -0.284 N 
ATOM      4  H   UNL     1      -1.009   6.446   0.212  0.00  0.00    +0.155 HD
ENDROOT
BRANCH   3   5
ATOM      5  C   UNL     1      -0.052   4.504   0.027  0.00  0.00    +0.073 A 
ATOM      6  C   UNL     1       0.213   3.801   1.202  0.00  0.00    +0.049 A 
ATOM      7  C   UNL     1       0.222   2.414   1.189  0.00  0.00    +0.044 A 
ATOM      8  C   UNL     1      -0.021   1.732   0.010  0.00  0.00    +0.044 A 
ATOM      9  C   UNL     1      -0.284   2.429  -1.155  0.00  0.00    +0.042 A 
ATOM     10  C   UNL     1      -0.300   3.812  -1.150  0.00  0.00    +0.065 A 
ATOM     11 CL   UNL     1      -0.631   4.683  -2.615  0.00  0.00    -0.082 Cl
ATOM     12 CL   UNL     1      -0.004  -0.004  -0.004  0.00  0.00    -0.083 Cl
BRANCH   6  13
ATOM     13  N   UNL     1       0.465   4.493   2.391  0.00  0.00    -0.356 N 
ATOM     14  H   UNL     1       0.674   3.937   3.317  0.00  0.00    +0.142 HD
ATOM     15  H   UNL     1       0.454   5.593   2.401  0.00  0.00    +0.142 HD
ENDBRANCH   6  13
ENDBRANCH   3   5
BRANCH   1  16
ATOM     16  C   UNL     1       1.081   8.096  -0.054  0.00  0.00    +0.019 C 
BRANCH  16  22
ATOM     17  C   UNL     1       5.780   8.139   1.398  0.00  0.00    +0.005 C 
ATOM     18  C   UNL     1       4.797   8.581   0.312  0.00  0.00    -0.031 C 
ATOM     19  C   UNL     1       4.849  10.104   0.165  0.00  0.00    +0.003 C 
ATOM     20  C   UNL     1       3.820  10.544  -0.880  0.00  0.00    -0.031 C 
ATOM     21  C   UNL     1       2.430  10.066  -0.454  0.00  0.00    -0.075 C 
ATOM     22  N   UNL     1       2.432   8.603  -0.328  0.00  0.00    +0.386 N 
ATOM     23  C   UNL     1       3.379   8.160   0.704  0.00  0.00    -0.075 C 
ATOM     24  C   UNL     1       4.177   9.932  -2.237  0.00  0.00    +0.005 C 
ATOM     25  H   UNL     1       2.764   8.184  -1.289  0.00  0.00    -0.081 HD
ENDBRANCH  16  22
ENDBRANCH   1  16
TORSDOF 4
