REMARK  Name = ZINC48019882
REMARK  7 active torsions:
REMARK  status: ('A' for Active; 'I' for Inactive)
REMARK    1  A    between atoms: C_5  and  C_7
REMARK    2  A    between atoms: C_7  and  C_8
REMARK    3  A    between atoms: C_8  and  N_9
REMARK    4  A    between atoms: N_12  and  C_13
REMARK    5  A    between atoms: C_13  and  C_14
REMARK    6  A    between atoms: C_18  and  S_20
REMARK    7  A    between atoms: S_20  and  N_23
REMARK                            x       y       z     vdW  Elec       q    Type
REMARK                         _______ _______ _______ _____ _____    ______ ____
ROOT
ATOM      1  N   UNL     1       1.394  -4.168   1.402  0.00  0.00    -0.299 N 
ATOM      2  C   UNL     1       1.516  -4.847   2.560  0.00  0.00    +0.300 C 
ATOM      3  O   UNL     1       1.610  -4.244   3.611  0.00  0.00    -0.253 OA
ATOM      4  N   UNL     1       1.534  -6.194   2.552  0.00  0.00    -0.295 N 
ATOM      5  H   UNL     1       1.319  -4.649   0.563  0.00  0.00    +0.150 HD
ATOM      6  H   UNL     1       1.459  -6.675   1.713  0.00  0.00    +0.151 HD
ENDROOT
BRANCH   1   7
ATOM      7  C   UNL     1       1.375  -2.703   1.411  0.00  0.00    +0.110 C 
BRANCH   7   8
ATOM      8  C   UNL     1       1.228  -2.186  -0.022  0.00  0.00    +0.057 C 
BRANCH   8  13
ATOM      9  C   UNL     1      -0.017   1.378   0.010  0.00  0.00    +0.000 A 
ATOM     10  C   UNL     1       1.171   2.087   0.002  0.00  0.00    +0.003 A 
ATOM     11  C   UNL     1       2.377   1.414  -0.013  0.00  0.00    +0.038 A 
ATOM     12  C   UNL     1       2.397   0.029  -0.021  0.00  0.00    +0.127 A 
ATOM     13  C   UNL     1       1.208  -0.679  -0.013  0.00  0.00    -0.011 A 
ATOM     14  C   UNL     1       0.002  -0.004   0.002  0.00  0.00    +0.006 A 
ATOM     15  F   UNL     1       3.577  -0.630  -0.036  0.00  0.00    -0.205 F 
ENDBRANCH   8  13
ENDBRANCH   7   8
ENDBRANCH   1   7
BRANCH   4  16
ATOM     16  C   UNL     1       1.667  -6.932   3.811  0.00  0.00    +0.141 C 
BRANCH  16  17
ATOM     17  C   UNL     1       1.660  -8.413   3.528  0.00  0.00    -0.028 A 
ATOM     18  C   UNL     1       0.465  -9.107   3.508  0.00  0.00    +0.005 A 
ATOM     19  C   UNL     1       0.458 -10.465   3.249  0.00  0.00    +0.002 A 
ATOM     20  C   UNL     1       1.647 -11.128   3.009  0.00  0.00    +0.028 A 
ATOM     21  C   UNL     1       2.842 -10.434   3.027  0.00  0.00    +0.105 A 
ATOM     22  C   UNL     1       2.848  -9.075   3.282  0.00  0.00    +0.033 A 
BRANCH  21  23
ATOM     23  S   UNL     1       4.357 -11.279   2.721  0.00  0.00    +0.056 S 
ATOM     24  O   UNL     1       5.383 -10.509   3.333  0.00  0.00    -0.153 OA
ATOM     25  O   UNL     1       4.133 -12.645   3.045  0.00  0.00    -0.153 OA
BRANCH  23  26
ATOM     26  N   UNL     1       4.631 -11.219   1.089  0.00  0.00    -0.204 NA
ATOM     27  H   UNL     1       5.539 -11.215   0.749  0.00  0.00    +0.144 HD
ATOM     28  H   UNL     1       3.882 -11.188   0.473  0.00  0.00    +0.144 HD
ENDBRANCH  23  26
ENDBRANCH  21  23
ENDBRANCH  16  17
ENDBRANCH   4  16
TORSDOF 7
