REMARK  Name = ZINC06142304
REMARK  16 active torsions:
REMARK  status: ('A' for Active; 'I' for Inactive)
REMARK    1  A    between atoms: C_1  and  C_2
REMARK    2  A    between atoms: C_6  and  C_41
REMARK    3  A    between atoms: C_8  and  O_11
REMARK    4  A    between atoms: O_11  and  C_12
REMARK    5  A    between atoms: C_12  and  C_14
REMARK    6  A    between atoms: C_14  and  N_15
REMARK    7  A    between atoms: N_17  and  C_24
REMARK    8  A    between atoms: C_24  and  C_25
REMARK    9  A    between atoms: C_25  and  O_27
REMARK   10  A    between atoms: O_27  and  C_28
REMARK   11  A    between atoms: C_31  and  C_40
REMARK   12  A    between atoms: C_35  and  C_37
REMARK   13  A    between atoms: C_37  and  C_38
REMARK   14  A    between atoms: C_37  and  C_39
REMARK   15  A    between atoms: C_41  and  C_42
REMARK   16  A    between atoms: C_41  and  C_43
REMARK                            x       y       z     vdW  Elec       q    Type
REMARK                         _______ _______ _______ _____ _____    ______ ____
ROOT
ATOM      1  N   UNL     1      -5.025   0.465  -2.289  0.00  0.00    -0.321 N 
ATOM      2  C   UNL     1      -4.561  -0.358  -3.267  0.00  0.00    +0.178 A 
ATOM      3  N   UNL     1      -5.434  -1.289  -3.520  0.00  0.00    -0.321 N 
ATOM      4  C   UNL     1      -6.519  -1.127  -2.719  0.00  0.00    +0.067 A 
ATOM      5  C   UNL     1      -6.269  -0.002  -1.914  0.00  0.00    +0.067 A 
ATOM      6  C   UNL     1      -7.215   0.405  -0.983  0.00  0.00    +0.028 A 
ATOM      7  C   UNL     1      -8.392  -0.301  -0.853  0.00  0.00    +0.002 A 
ATOM      8  C   UNL     1      -8.637  -1.413  -1.645  0.00  0.00    +0.002 A 
ATOM      9  C   UNL     1      -7.721  -1.824  -2.572  0.00  0.00    +0.028 A 
ENDROOT
BRANCH   1  10
ATOM     10  C   UNL     1      -4.331   1.628  -1.731  0.00  0.00    +0.243 C 
BRANCH  10  11
ATOM     11  C   UNL     1      -3.589   1.220  -0.484  0.00  0.00    +0.327 C 
ATOM     12  O   UNL     1      -3.636   0.075  -0.101  0.00  0.00    -0.249 OA
BRANCH  11  13
ATOM     13  O   UNL     1      -2.876   2.129   0.201  0.00  0.00    -0.460 OA
BRANCH  13  19
ATOM     14  C   UNL     1      -2.002  -0.146   3.688  0.00  0.00    +0.007 C 
ATOM     15  C   UNL     1      -2.383   1.326   3.860  0.00  0.00    -0.011 C 
ATOM     16  C   UNL     1      -1.117   2.158   4.074  0.00  0.00    +0.004 C 
ATOM     17  C   UNL     1      -0.196   2.008   2.861  0.00  0.00    +0.007 C 
ATOM     18  C   UNL     1      -0.922   2.497   1.606  0.00  0.00    +0.032 C 
ATOM     19  C   UNL     1      -2.188   1.665   1.392  0.00  0.00    +0.180 C 
ATOM     20  C   UNL     1      -3.108   1.815   2.604  0.00  0.00    +0.048 C 
BRANCH  18  21
ATOM     21  C   UNL     1      -0.001   2.347   0.393  0.00  0.00    -0.011 C 
ATOM     22  C   UNL     1       1.200   3.282   0.546  0.00  0.00    +0.007 C 
ATOM     23  C   UNL     1       0.488   0.900   0.300  0.00  0.00    +0.007 C 
ENDBRANCH  18  21
ENDBRANCH  13  19
ENDBRANCH  11  13
ENDBRANCH  10  11
ENDBRANCH   1  10
BRANCH   3  24
ATOM     24  C   UNL     1      -5.271  -2.351  -4.515  0.00  0.00    +0.243 C 
BRANCH  24  25
ATOM     25  C   UNL     1      -5.926  -1.934  -5.807  0.00  0.00    +0.327 C 
ATOM     26  O   UNL     1      -6.473  -0.860  -5.888  0.00  0.00    -0.249 OA
BRANCH  25  27
ATOM     27  O   UNL     1      -5.902  -2.756  -6.868  0.00  0.00    -0.460 OA
BRANCH  27  28
ATOM     28  C   UNL     1      -6.553  -2.289  -8.079  0.00  0.00    +0.180 C 
ATOM     29  C   UNL     1      -8.020  -2.722  -8.069  0.00  0.00    +0.048 C 
ATOM     30  C   UNL     1      -8.101  -4.248  -8.004  0.00  0.00    -0.011 C 
ATOM     31  C   UNL     1      -7.399  -4.849  -9.224  0.00  0.00    +0.004 C 
ATOM     32  C   UNL     1      -5.932  -4.416  -9.233  0.00  0.00    +0.007 C 
ATOM     33  C   UNL     1      -5.851  -2.889  -9.299  0.00  0.00    +0.032 C 
ATOM     34  C   UNL     1      -7.415  -4.741  -6.728  0.00  0.00    +0.007 C 
BRANCH  33  35
ATOM     35  C   UNL     1      -4.384  -2.456  -9.308  0.00  0.00    -0.011 C 
ATOM     36  C   UNL     1      -3.683  -3.057 -10.528  0.00  0.00    +0.007 C 
ATOM     37  C   UNL     1      -4.303  -0.929  -9.374  0.00  0.00    +0.007 C 
ENDBRANCH  33  35
ENDBRANCH  27  28
ENDBRANCH  25  27
ENDBRANCH  24  25
ENDBRANCH   3  24
TORSDOF 10
