REMARK  Name = ZINC40348959
REMARK  7 active torsions:
REMARK  status: ('A' for Active; 'I' for Inactive)
REMARK    1  A    between atoms: C_1  and  C_2
REMARK    2  A    between atoms: C_4  and  S_10
REMARK    3  A    between atoms: C_6  and  N_9
REMARK    4  A    between atoms: C_7  and  C_8
REMARK    5  A    between atoms: S_10  and  N_13
REMARK    6  A    between atoms: N_13  and  C_14
REMARK    7  A    between atoms: N_19  and  C_21
REMARK                            x       y       z     vdW  Elec       q    Type
REMARK                         _______ _______ _______ _____ _____    ______ ____
ROOT
ATOM      1  S   UNL     1       0.030  -2.929  -2.740  0.00  0.00    +0.072 S 
ATOM      2  O   UNL     1      -0.428  -4.260  -2.550  0.00  0.00    -0.150 OA
ATOM      3  O   UNL     1      -0.619  -2.018  -3.616  0.00  0.00    -0.150 OA
ENDROOT
BRANCH   1   7
ATOM      4  C   UNL     1       0.199   1.306   0.319  0.00  0.00    +0.044 C 
ATOM      5  C   UNL     1       0.128  -0.195   0.206  0.00  0.00    -0.044 A 
ATOM      6  C   UNL     1       0.114  -0.794  -1.041  0.00  0.00    +0.032 A 
ATOM      7  C   UNL     1       0.049  -2.171  -1.149  0.00  0.00    +0.110 A 
ATOM      8  C   UNL     1      -0.003  -2.953  -0.012  0.00  0.00    +0.051 A 
ATOM      9  C   UNL     1       0.012  -2.355   1.242  0.00  0.00    +0.030 A 
ATOM     10  C   UNL     1       0.083  -0.971   1.347  0.00  0.00    -0.027 A 
ATOM     11  C   UNL     1       0.104  -0.318   2.705  0.00  0.00    +0.046 C 
BRANCH   9  12
ATOM     12  N   UNL     1      -0.040  -3.143   2.394  0.00  0.00    -0.358 N 
ATOM     13  H   UNL     1      -0.086  -4.109   2.319  0.00  0.00    +0.142 HD
ATOM     14  H   UNL     1      -0.030  -2.724   3.269  0.00  0.00    +0.142 HD
ENDBRANCH   9  12
ENDBRANCH   1   7
BRANCH   1  15
ATOM     15  N   UNL     1       1.602  -3.037  -3.249  0.00  0.00    -0.215 N 
ATOM     16  H   UNL     1       1.898  -2.530  -4.021  0.00  0.00    +0.174 HD
BRANCH  15  17
ATOM     17  C   UNL     1       2.506  -3.862  -2.563  0.00  0.00    +0.064 A 
ATOM     18  C   UNL     1       3.867  -3.865  -2.918  0.00  0.00    +0.031 A 
ATOM     19  C   UNL     1       4.731  -4.673  -2.240  0.00  0.00    +0.072 A 
ATOM     20  C   UNL     1       4.245  -5.486  -1.202  0.00  0.00    +0.251 A 
ATOM     21  O   UNL     1       5.010  -6.214  -0.589  0.00  0.00    -0.268 OA
ATOM     22  N   UNL     1       2.937  -5.465  -0.882  0.00  0.00    -0.316 N 
ATOM     23  C   UNL     1       2.070  -4.657  -1.551  0.00  0.00    +0.113 A 
ATOM     24  C   UNL     1       2.443  -6.318   0.201  0.00  0.00    +0.152 C 
ENDBRANCH  15  17
ENDBRANCH   1  15
TORSDOF 4
