REMARK  Name = ZINC64540079
REMARK  7 active torsions:
REMARK  status: ('A' for Active; 'I' for Inactive)
REMARK    1  A    between atoms: C_1  and  C_2
REMARK    2  A    between atoms: C_8  and  C_11
REMARK    3  A    between atoms: C_11  and  C_12
REMARK    4  A    between atoms: C_12  and  N_13
REMARK    5  A    between atoms: C_14  and  C_16
REMARK    6  A    between atoms: C_19  and  N_22
REMARK    7  A    between atoms: C_23  and  C_25
REMARK                            x       y       z     vdW  Elec       q    Type
REMARK                         _______ _______ _______ _____ _____    ______ ____
ROOT
ATOM      1  C   UNL     1      -2.547  -2.366   7.757  0.00  0.00    +0.037 A 
ATOM      2  C   UNL     1      -1.342  -2.110   8.416  0.00  0.00    +0.015 A 
ATOM      3  C   UNL     1      -1.339  -1.864   9.771  0.00  0.00    +0.024 A 
ATOM      4  C   UNL     1      -2.534  -1.871  10.483  0.00  0.00    +0.033 A 
ATOM      5  C   UNL     1      -3.736  -2.127   9.830  0.00  0.00    +0.024 A 
ATOM      6  C   UNL     1      -3.746  -2.367   8.475  0.00  0.00    +0.015 A 
ENDROOT
BRANCH   1   8
ATOM      7  N   UNL     1      -1.397  -2.628   5.614  0.00  0.00    -0.311 N 
ATOM      8  C   UNL     1      -2.554  -2.630   6.305  0.00  0.00    +0.244 C 
ATOM      9  O   UNL     1      -3.604  -2.848   5.731  0.00  0.00    -0.270 OA
ATOM     10  H   UNL     1      -0.559  -2.454   6.071  0.00  0.00    +0.149 HD
BRANCH   7  11
ATOM     11  C   UNL     1      -1.404  -2.890   4.173  0.00  0.00    +0.109 C 
BRANCH  11  12
ATOM     12  C   UNL     1       0.028  -2.831   3.637  0.00  0.00    +0.052 C 
BRANCH  12  20
ATOM     13  C   UNL     1      -0.084   1.451  -0.017  0.00  0.00    +0.044 C 
ATOM     14  C   UNL     1      -0.055  -0.056  -0.017  0.00  0.00    -0.050 A 
ATOM     15  C   UNL     1      -0.053  -0.738  -1.241  0.00  0.00    +0.005 A 
ATOM     16  C   UNL     1      -0.028  -2.085  -1.325  0.00  0.00    +0.026 A 
ATOM     17  C   UNL     1      -0.003  -2.879  -0.145  0.00  0.00    +0.043 A 
ATOM     18  N   UNL     1       0.022  -4.177   0.034  0.00  0.00    -0.380 N 
ATOM     19  C   UNL     1       0.040  -4.451   1.475  0.00  0.00    +0.144 C 
ATOM     20  C   UNL     1       0.021  -3.100   2.154  0.00  0.00    -0.040 C 
ATOM     21  C   UNL     1      -0.005  -2.182   1.161  0.00  0.00    -0.001 A 
ATOM     22  C   UNL     1      -0.027  -0.714   1.164  0.00  0.00    +0.013 A 
ATOM     23  H   UNL     1       0.029  -4.845  -0.670  0.00  0.00    +0.160 HD
ENDBRANCH  12  20
ENDBRANCH  11  12
ENDBRANCH   7  11
ENDBRANCH   1   8
BRANCH   4  24
ATOM     24  N   UNL     1      -2.528  -1.623  11.855  0.00  0.00    -0.284 N 
ATOM     25  C   UNL     1      -3.548  -0.949  12.423  0.00  0.00    +0.240 C 
ATOM     26  O   UNL     1      -4.510  -0.632  11.757  0.00  0.00    -0.273 OA
ATOM     27  H   UNL     1      -1.789  -1.934  12.401  0.00  0.00    +0.155 HD
BRANCH  25  28
ATOM     28  C   UNL     1      -3.492  -0.591  13.886  0.00  0.00    +0.182 C 
ATOM     29  C   UNL     1      -3.821  -1.815  14.700  0.00  0.00    -0.006 A 
ATOM     30  C   UNL     1      -2.980  -2.878  15.026  0.00  0.00    +0.007 A 
ATOM     31  C   UNL     1      -3.439  -3.942  15.771  0.00  0.00    +0.000 A 
ATOM     32  C   UNL     1      -4.748  -3.985  16.216  0.00  0.00    +0.001 A 
ATOM     33  C   UNL     1      -5.599  -2.937  15.910  0.00  0.00    +0.016 A 
ATOM     34  C   UNL     1      -5.133  -1.870  15.170  0.00  0.00    +0.028 A 
ATOM     35  S   UNL     1      -5.895  -0.360  14.624  0.00  0.00    -0.043 S 
ATOM     36  N   UNL     1      -4.425   0.532  14.138  0.00  0.00    -0.243 NA
ATOM     37  H   UNL     1      -4.589   1.063  13.296  0.00  0.00    +0.137 HD
ENDBRANCH  25  28
ENDBRANCH   4  24
TORSDOF 6
