REMARK  Name = ZINC66194922
REMARK  12 active torsions:
REMARK  status: ('A' for Active; 'I' for Inactive)
REMARK    1  A    between atoms: C_1  and  C_2
REMARK    2  A    between atoms: C_2  and  C_3
REMARK    3  A    between atoms: C_3  and  C_5
REMARK    4  A    between atoms: C_3  and  N_6
REMARK    5  A    between atoms: N_6  and  C_7
REMARK    6  A    between atoms: N_6  and  C_8
REMARK    7  A    between atoms: C_8  and  C_9
REMARK    8  A    between atoms: C_9  and  N_10
REMARK    9  A    between atoms: N_13  and  C_14
REMARK   10  A    between atoms: C_14  and  C_15
REMARK   11  A    between atoms: C_18  and  C_21
REMARK   12  A    between atoms: C_21  and  C_28
REMARK                            x       y       z     vdW  Elec       q    Type
REMARK                         _______ _______ _______ _____ _____    ______ ____
ROOT
ATOM      1  C   UNL     1      -8.804  -1.825   3.979  0.00  0.00    +0.141 C 
ENDROOT
BRANCH   1   5
ATOM      2  N   UNL     1      -5.618  -1.375   2.199  0.00  0.00    -0.301 N 
ATOM      3  C   UNL     1      -6.578  -1.295   3.142  0.00  0.00    +0.300 C 
ATOM      4  O   UNL     1      -6.376  -0.665   4.162  0.00  0.00    -0.253 OA
ATOM      5  N   UNL     1      -7.761  -1.912   2.954  0.00  0.00    -0.295 N 
ATOM      6  H   UNL     1      -5.779  -1.878   1.385  0.00  0.00    +0.150 HD
ATOM      7  H   UNL     1      -7.922  -2.415   2.140  0.00  0.00    +0.151 HD
BRANCH   2   8
ATOM      8  C   UNL     1      -4.332  -0.704   2.404  0.00  0.00    +0.087 C 
BRANCH   8   9
ATOM      9  C   UNL     1      -3.429  -0.952   1.193  0.00  0.00    -0.060 C 
BRANCH   9  10
ATOM     10  N   UNL     1      -2.140  -0.279   1.398  0.00  0.00    +0.381 N 
ATOM     11  C   UNL     1      -2.349   1.174   1.454  0.00  0.00    -0.096 C 
ATOM     12  H   UNL     1      -1.730  -0.593   2.265  0.00  0.00    -0.082 HD
BRANCH  10  13
ATOM     13  C   UNL     1      -1.237  -0.601   0.285  0.00  0.00    -0.072 C 
ATOM     14  C   UNL     1      -1.905  -0.225  -1.039  0.00  0.00    -0.013 C 
BRANCH  13  16
ATOM     15  C   UNL     1      -0.177  -2.459   1.576  0.00  0.00    +0.002 C 
ATOM     16  C   UNL     1      -0.931  -2.100   0.294  0.00  0.00    -0.019 C 
ENDBRANCH  13  16
ENDBRANCH  10  13
ENDBRANCH   9  10
ENDBRANCH   8   9
ENDBRANCH   2   8
ENDBRANCH   1   5
BRANCH   1  17
ATOM     17  C   UNL     1     -10.018  -2.595   3.528  0.00  0.00    -0.030 A 
ATOM     18  C   UNL     1     -11.003  -1.964   2.792  0.00  0.00    +0.005 A 
ATOM     19  C   UNL     1     -12.117  -2.671   2.379  0.00  0.00    +0.006 A 
ATOM     20  C   UNL     1     -12.244  -4.009   2.700  0.00  0.00    -0.016 A 
ATOM     21  C   UNL     1     -11.258  -4.641   3.434  0.00  0.00    +0.006 A 
ATOM     22  C   UNL     1     -10.143  -3.935   3.844  0.00  0.00    +0.005 A 
BRANCH  20  23
ATOM     23  C   UNL     1     -13.459  -4.780   2.249  0.00  0.00    +0.135 C 
ATOM     24  C   UNL     1     -14.707  -4.253   2.929  0.00  0.00    +0.248 C 
ATOM     25  O   UNL     1     -15.170  -3.136   2.847  0.00  0.00    -0.273 OA
ATOM     26  N   UNL     1     -15.195  -5.286   3.644  0.00  0.00    -0.238 N 
ATOM     27  C   UNL     1     -14.437  -6.380   3.511  0.00  0.00    +0.307 C 
ATOM     28  O   UNL     1     -14.676  -7.438   4.060  0.00  0.00    -0.252 OA
ATOM     29  N   UNL     1     -13.382  -6.179   2.702  0.00  0.00    -0.282 N 
ATOM     30  C   UNL     1     -13.602  -4.713   0.727  0.00  0.00    +0.047 C 
ATOM     31  H   UNL     1     -15.997  -5.241   4.188  0.00  0.00    +0.159 HD
ATOM     32  H   UNL     1     -12.703  -6.829   2.463  0.00  0.00    +0.152 HD
ENDBRANCH  20  23
ENDBRANCH   1  17
TORSDOF 8
