REMARK  Name = ZINC08718186
REMARK  6 active torsions:
REMARK  status: ('A' for Active; 'I' for Inactive)
REMARK    1  A    between atoms: C_4  and  S_7
REMARK    2  A    between atoms: S_7  and  C_8
REMARK    3  A    between atoms: C_13  and  N_14
REMARK    4  A    between atoms: C_15  and  C_17
REMARK    5  A    between atoms: C_17  and  N_53
REMARK    6  A    between atoms: C_26  and  C_28
REMARK                            x       y       z     vdW  Elec       q    Type
REMARK                         _______ _______ _______ _____ _____    ______ ____
ROOT
ATOM      1  N   UNL     1      -0.765   4.550  -2.938  0.00  0.00    -0.286 N 
ATOM      2  C   UNL     1      -0.740   4.278  -1.618  0.00  0.00    +0.201 C 
ATOM      3  O   UNL     1      -0.906   5.169  -0.812  0.00  0.00    -0.278 OA
ATOM      4  H   UNL     1      -0.709   3.827  -3.583  0.00  0.00    +0.155 HD
ENDROOT
BRANCH   1  10
ATOM      5  C   UNL     1      -0.302   6.257  -4.594  0.00  0.00    +0.034 A 
ATOM      6  C   UNL     1      -0.412   7.572  -5.024  0.00  0.00    +0.017 A 
ATOM      7  C   UNL     1      -1.085   8.498  -4.249  0.00  0.00    +0.001 A 
ATOM      8  C   UNL     1      -1.649   8.119  -3.045  0.00  0.00    +0.002 A 
ATOM      9  C   UNL     1      -1.550   6.810  -2.611  0.00  0.00    +0.024 A 
ATOM     10  C   UNL     1      -0.872   5.875  -3.379  0.00  0.00    +0.047 A 
BRANCH   5  11
ATOM     11  S   UNL     1       0.554   5.074  -5.579  0.00  0.00    -0.088 S 
BRANCH  11  15
ATOM     12  C   UNL     1       2.263   7.518  -8.987  0.00  0.00    +0.000 A 
ATOM     13  C   UNL     1       3.015   7.306  -7.846  0.00  0.00    +0.001 A 
ATOM     14  C   UNL     1       2.497   6.561  -6.805  0.00  0.00    +0.015 A 
ATOM     15  C   UNL     1       1.219   6.024  -6.905  0.00  0.00    +0.013 A 
ATOM     16  C   UNL     1       0.469   6.234  -8.056  0.00  0.00    +0.015 A 
ATOM     17  C   UNL     1       0.991   6.985  -9.091  0.00  0.00    +0.001 A 
ENDBRANCH  11  15
ENDBRANCH   5  11
ENDBRANCH   1  10
BRANCH   2  18
ATOM     18  C   UNL     1      -0.505   2.867  -1.144  0.00  0.00    +0.020 C 
BRANCH  18  28
ATOM     19  C   UNL     1      -1.631   3.071   0.988  0.00  0.00    -0.041 C 
ATOM     20  C   UNL     1      -1.439   3.162   2.479  0.00  0.00    -0.061 A 
ATOM     21  C   UNL     1      -2.544   2.989   3.299  0.00  0.00    +0.002 A 
ATOM     22  C   UNL     1      -2.415   3.068   4.670  0.00  0.00    +0.000 A 
ATOM     23  C   UNL     1      -1.177   3.321   5.232  0.00  0.00    +0.000 A 
ATOM     24  C   UNL     1      -0.076   3.492   4.418  0.00  0.00    +0.004 A 
ATOM     25  C   UNL     1      -0.204   3.411   3.039  0.00  0.00    -0.047 A 
ATOM     26  C   UNL     1       1.027   3.595   2.190  0.00  0.00    +0.029 C 
ATOM     27  C   UNL     1       0.625   3.883   0.743  0.00  0.00    +0.024 C 
ATOM     28  N   UNL     1      -0.335   2.842   0.327  0.00  0.00    +0.396 N 
ATOM     29  H   UNL     1       0.026   1.922   0.605  0.00  0.00    -0.080 HD
BRANCH  27  30
ATOM     30  C   UNL     1       1.844   3.826  -0.141  0.00  0.00    +0.197 C 
ATOM     31  O   UNL     1       2.344   2.756  -0.417  0.00  0.00    -0.278 OA
ATOM     32  N   UNL     1       2.379   4.964  -0.626  0.00  0.00    -0.331 N 
ATOM     33  H   UNL     1       1.979   5.820  -0.406  0.00  0.00    +0.145 HD
ATOM     34  H   UNL     1       3.163   4.927  -1.196  0.00  0.00    +0.145 HD
ENDBRANCH  27  30
ENDBRANCH  18  28
ENDBRANCH   2  18
TORSDOF 6
