REMARK  Name = ZINC21459465
REMARK  10 active torsions:
REMARK  status: ('A' for Active; 'I' for Inactive)
REMARK    1  A    between atoms: C_1  and  C_2
REMARK    2  A    between atoms: C_2  and  C_4
REMARK    3  A    between atoms: C_2  and  S_18
REMARK    4  A    between atoms: N_6  and  C_7
REMARK    5  A    between atoms: C_11  and  C_13
REMARK    6  A    between atoms: S_18  and  C_19
REMARK    7  A    between atoms: C_22  and  C_25
REMARK    8  A    between atoms: N_23  and  N_24
REMARK    9  A    between atoms: C_30  and  O_31
REMARK   10  A    between atoms: O_31  and  C_32
REMARK                            x       y       z     vdW  Elec       q    Type
REMARK                         _______ _______ _______ _____ _____    ______ ____
ROOT
ATOM      1  C   UNL     1       5.239   4.316  -1.699  0.00  0.00    +0.029 C 
ATOM      2  C   UNL     1       4.831   4.259  -0.225  0.00  0.00    +0.137 C 
ENDROOT
BRANCH   2   3
ATOM      3  C   UNL     1       3.531   3.509  -0.092  0.00  0.00    +0.230 C 
ATOM      4  O   UNL     1       2.481   4.116  -0.060  0.00  0.00    -0.274 OA
ATOM      5  N   UNL     1       3.534   2.164  -0.009  0.00  0.00    -0.285 N 
ATOM      6  H   UNL     1       4.489   1.618   0.032  0.00  0.00    +0.155 HD
BRANCH   5   7
ATOM      7  C   UNL     1       2.324   1.462   0.024  0.00  0.00    +0.034 A 
ATOM      8  C   UNL     1       1.224   2.003   0.675  0.00  0.00    +0.025 A 
ATOM      9  C   UNL     1       0.031   1.308   0.707  0.00  0.00    +0.022 A 
ATOM     10  C   UNL     1      -0.069   0.073   0.090  0.00  0.00    +0.053 A 
ATOM     11  C   UNL     1       1.026  -0.468  -0.560  0.00  0.00    +0.075 A 
ATOM     12  C   UNL     1       2.222   0.223  -0.594  0.00  0.00    +0.037 A 
ATOM     13 CL   UNL     1      -1.570  -0.797   0.131  0.00  0.00    -0.083 Cl
BRANCH  11  14
ATOM     14  C   UNL     1       0.914  -1.813  -1.230  0.00  0.00    +0.419 C 
ATOM     15  F   UNL     1       2.141  -2.146  -1.815  0.00  0.00    -0.166 F 
ATOM     16  F   UNL     1       0.572  -2.781  -0.280  0.00  0.00    -0.166 F 
ATOM     17  F   UNL     1      -0.074  -1.760  -2.219  0.00  0.00    -0.166 F 
ENDBRANCH  11  14
ENDBRANCH   5   7
ENDBRANCH   2   3
BRANCH   2  18
ATOM     18  S   UNL     1       4.625   5.942   0.409  0.00  0.00    -0.072 S 
BRANCH  18  19
ATOM     19  C   UNL     1       6.282   6.524   0.278  0.00  0.00    +0.209 A 
ATOM     20  N   UNL     1       7.314   5.845  -0.170  0.00  0.00    -0.121 NA
ATOM     21  N   UNL     1       8.373   6.572  -0.129  0.00  0.00    -0.127 NA
ATOM     22  C   UNL     1       8.083   7.760   0.349  0.00  0.00    +0.185 A 
ATOM     23  N   UNL     1       6.734   7.768   0.619  0.00  0.00    -0.224 N 
BRANCH  22  24
ATOM     24  C   UNL     1       9.026   8.879   0.552  0.00  0.00    +0.062 A 
ATOM     25  C   UNL     1       9.056   9.558   1.771  0.00  0.00    +0.015 A 
ATOM     26  C   UNL     1       9.940  10.602   1.954  0.00  0.00    +0.001 A 
ATOM     27  C   UNL     1      10.797  10.978   0.935  0.00  0.00    +0.004 A 
ATOM     28  C   UNL     1      10.776  10.313  -0.277  0.00  0.00    +0.046 A 
ATOM     29  C   UNL     1       9.899   9.259  -0.475  0.00  0.00    +0.131 A 
BRANCH  29  30
ATOM     30  O   UNL     1       9.881   8.601  -1.663  0.00  0.00    -0.494 OA
ATOM     31  C   UNL     1      10.800   9.045  -2.664  0.00  0.00    +0.277 C 
ENDBRANCH  29  30
ENDBRANCH  22  24
BRANCH  23  32
ATOM     32  N   UNL     1       6.000   8.803   1.125  0.00  0.00    -0.295 N 
ATOM     33  H   UNL     1       6.487   9.761   1.359  0.00  0.00    +0.163 HD
ATOM     34  H   UNL     1       4.920   8.678   1.298  0.00  0.00    +0.163 HD
ENDBRANCH  23  32
ENDBRANCH  18  19
ENDBRANCH   2  18
TORSDOF 8
