REMARK  Name = ZINC14140693
REMARK  6 active torsions:
REMARK  status: ('A' for Active; 'I' for Inactive)
REMARK    1  A    between atoms: C_1  and  C_2
REMARK    2  A    between atoms: C_5  and  C_25
REMARK    3  A    between atoms: C_9  and  C_10
REMARK    4  A    between atoms: C_9  and  N_51
REMARK    5  A    between atoms: N_12  and  C_13
REMARK    6  A    between atoms: C_14  and  C_22
REMARK                            x       y       z     vdW  Elec       q    Type
REMARK                         _______ _______ _______ _____ _____    ______ ____
ROOT
ATOM      1  C   UNL     1      -2.332  -0.402   0.022  0.00  0.00    +0.201 C 
ATOM      2  O   UNL     1      -2.526   0.795   0.031  0.00  0.00    -0.278 OA
ATOM      3  N   UNL     1      -1.073  -0.880   0.007  0.00  0.00    -0.281 N 
ATOM      4  H   UNL     1      -0.918  -1.838   0.000  0.00  0.00    +0.155 HD
ENDROOT
BRANCH   3   5
ATOM      5  C   UNL     1       0.002  -0.004   0.002  0.00  0.00    +0.084 A 
ATOM      6  C   UNL     1       1.357  -0.302  -0.013  0.00  0.00    +0.068 A 
ATOM      7  C   UNL     1       2.290   0.813  -0.016  0.00  0.00    -0.023 A 
ATOM      8  C   UNL     1       1.722   2.038  -0.003  0.00  0.00    -0.004 A 
ATOM      9  S   UNL     1      -0.021   1.728   0.011  0.00  0.00    -0.077 S 
ATOM     10  C   UNL     1       2.425   3.360  -0.002  0.00  0.00    +0.043 C 
ATOM     11  C   UNL     1       3.899   3.123   0.361  0.00  0.00    +0.005 C 
ATOM     12  C   UNL     1       4.436   1.967  -0.488  0.00  0.00    +0.005 C 
ATOM     13  C   UNL     1       3.805   0.650  -0.032  0.00  0.00    +0.037 C 
BRANCH   6  14
ATOM     14  C   UNL     1       1.831  -1.689  -0.024  0.00  0.00    +0.244 C 
ATOM     15  O   UNL     1       2.018  -2.260  -1.083  0.00  0.00    -0.270 OA
ATOM     16  N   UNL     1       2.059  -2.333   1.138  0.00  0.00    -0.325 N 
ATOM     17  H   UNL     1       1.911  -1.878   1.981  0.00  0.00    +0.145 HD
ATOM     18  H   UNL     1       2.373  -3.251   1.130  0.00  0.00    +0.145 HD
ENDBRANCH   6  14
ENDBRANCH   3   5
BRANCH   1  19
ATOM     19  C   UNL     1      -3.500  -1.354   0.028  0.00  0.00    +0.019 C 
BRANCH  19  27
ATOM     20  C   UNL     1      -8.383  -1.540  -0.530  0.00  0.00    +0.005 C 
ATOM     21  C   UNL     1      -7.179  -0.623  -0.309  0.00  0.00    -0.031 C 
ATOM     22  C   UNL     1      -7.376   0.180   0.980  0.00  0.00    +0.003 C 
ATOM     23  C   UNL     1      -6.140   1.050   1.224  0.00  0.00    -0.031 C 
ATOM     24  C   UNL     1      -4.900   0.157   1.300  0.00  0.00    -0.075 C 
ATOM     25  C   UNL     1      -5.909  -1.468  -0.188  0.00  0.00    -0.075 C 
ATOM     26  C   UNL     1      -6.303   1.812   2.541  0.00  0.00    +0.005 C 
ATOM     27  N   UNL     1      -4.753  -0.571   0.022  0.00  0.00    +0.386 N 
ATOM     28  H   UNL     1      -4.717   0.110  -0.746  0.00  0.00    -0.081 HD
ENDBRANCH  19  27
ENDBRANCH   1  19
TORSDOF 4
