REMARK  Name = ZINC20506750
REMARK  8 active torsions:
REMARK  status: ('A' for Active; 'I' for Inactive)
REMARK    1  A    between atoms: N_3  and  C_16
REMARK    2  A    between atoms: N_6  and  C_7
REMARK    3  A    between atoms: C_7  and  C_8
REMARK    4  A    between atoms: C_8  and  S_9
REMARK    5  A    between atoms: S_9  and  C_10
REMARK    6  A    between atoms: C_16  and  C_17
REMARK    7  A    between atoms: C_17  and  S_18
REMARK    8  A    between atoms: S_18  and  C_19
REMARK                            x       y       z     vdW  Elec       q    Type
REMARK                         _______ _______ _______ _____ _____    ______ ____
ROOT
ATOM      1  C   UNL     1      -0.105  -0.371   2.560  0.00  0.00    +0.066 C 
ATOM      2  C   UNL     1       0.712  -0.844   3.765  0.00  0.00    -0.063 C 
ATOM      3  N   UNL     1       0.200  -0.201   4.984  0.00  0.00    +0.382 N 
ATOM      4  C   UNL     1       0.286   1.262   4.880  0.00  0.00    -0.063 C 
ATOM      5  C   UNL     1      -0.531   1.735   3.675  0.00  0.00    +0.066 C 
ATOM      6  N   UNL     1      -0.018   1.093   2.457  0.00  0.00    -0.305 NA
ATOM      7  H   UNL     1      -0.861  -0.472   5.090  0.00  0.00    -0.082 HD
ENDROOT
BRANCH   6   8
ATOM      8  C   UNL     1      -0.729   1.579   1.267  0.00  0.00    +0.095 C 
BRANCH   8   9
ATOM      9  C   UNL     1      -0.013   1.086   0.008  0.00  0.00    +0.092 C 
BRANCH   9  10
ATOM     10  S   UNL     1      -0.890   1.687  -1.462  0.00  0.00    -0.096 S 
BRANCH  10  11
ATOM     11  C   UNL     1       0.045   1.043  -2.809  0.00  0.00    +0.160 A 
ATOM     12  N   UNL     1       1.132   0.296  -2.791  0.00  0.00    -0.133 NA
ATOM     13  N   UNL     1       1.708  -0.102  -3.975  0.00  0.00    -0.125 NA
ATOM     14  C   UNL     1       1.172   0.265  -5.122  0.00  0.00    +0.180 A 
ATOM     15  S   UNL     1      -0.230   1.221  -4.565  0.00  0.00    -0.025 S 
ATOM     16  N   UNL     1       1.584  -0.021  -6.419  0.00  0.00    -0.336 N 
ATOM     17  H   UNL     1       1.015   0.369  -7.275  0.00  0.00    +0.144 HD
ATOM     18  H   UNL     1       2.480  -0.637  -6.588  0.00  0.00    +0.144 HD
ENDBRANCH  10  11
ENDBRANCH   9  10
ENDBRANCH   8   9
ENDBRANCH   6   8
BRANCH   3  19
ATOM     19  C   UNL     1       0.910  -0.688   6.174  0.00  0.00    -0.068 C 
BRANCH  19  20
ATOM     20  C   UNL     1       0.594  -2.170   6.386  0.00  0.00    +0.058 C 
BRANCH  20  21
ATOM     21  S   UNL     1       1.471  -2.771   7.856  0.00  0.00    -0.099 S 
BRANCH  21  22
ATOM     22  C   UNL     1       1.009  -4.468   7.964  0.00  0.00    +0.160 A 
ATOM     23  N   UNL     1       0.215  -5.169   7.178  0.00  0.00    -0.133 NA
ATOM     24  N   UNL     1      -0.012  -6.499   7.447  0.00  0.00    -0.125 NA
ATOM     25  C   UNL     1       0.565  -7.066   8.489  0.00  0.00    +0.180 A 
ATOM     26  S   UNL     1       1.497  -5.699   9.162  0.00  0.00    -0.025 S 
ATOM     27  N   UNL     1       0.476  -8.378   8.939  0.00  0.00    -0.336 N 
ATOM     28  H   UNL     1       1.029  -8.690   9.837  0.00  0.00    +0.144 HD
ATOM     29  H   UNL     1      -0.148  -9.104   8.398  0.00  0.00    +0.144 HD
ENDBRANCH  21  22
ENDBRANCH  20  21
ENDBRANCH  19  20
ENDBRANCH   3  19
TORSDOF 8
