REMARK  Name = ZINC39550599
REMARK  8 active torsions:
REMARK  status: ('A' for Active; 'I' for Inactive)
REMARK    1  A    between atoms: C_4  and  C_7
REMARK    2  A    between atoms: C_8  and  C_21
REMARK    3  A    between atoms: C_10  and  C_13
REMARK    4  A    between atoms: C_16  and  O_20
REMARK    5  A    between atoms: C_17  and  O_19
REMARK    6  A    between atoms: C_24  and  S_27
REMARK    7  A    between atoms: S_27  and  S_28
REMARK    8  A    between atoms: S_28  and  C_29
REMARK                            x       y       z     vdW  Elec       q    Type
REMARK                         _______ _______ _______ _____ _____    ______ ____
ROOT
ATOM      1  C   UNL     1       3.712  -0.651  -0.082  0.00  0.00    +0.072 A 
ATOM      2  C   UNL     1       4.001  -1.821  -0.765  0.00  0.00    +0.072 A 
ATOM      3  N   UNL     1       5.258  -2.176  -0.454  0.00  0.00    -0.339 N 
ATOM      4  C   UNL     1       5.770  -1.300   0.380  0.00  0.00    +0.117 A 
ATOM      5  N   UNL     1       4.844  -0.330   0.635  0.00  0.00    -0.339 N 
ATOM      6  H   UNL     1       4.960   0.439   1.214  0.00  0.00    +0.167 HD
ATOM      7  H   UNL     1       5.718  -2.960  -0.794  0.00  0.00    +0.167 HD
ENDROOT
BRANCH   1  11
ATOM      8  C   UNL     1       0.068   1.524  -0.188  0.00  0.00    +0.000 A 
ATOM      9  C   UNL     1       0.046   0.152  -0.005  0.00  0.00    +0.001 A 
ATOM     10  C   UNL     1       1.226  -0.561   0.030  0.00  0.00    +0.010 A 
ATOM     11  C   UNL     1       2.445   0.105  -0.119  0.00  0.00    +0.000 A 
ATOM     12  C   UNL     1       2.460   1.490  -0.304  0.00  0.00    +0.010 A 
ATOM     13  C   UNL     1       1.272   2.190  -0.337  0.00  0.00    +0.001 A 
ENDBRANCH   1  11
BRANCH   4  14
ATOM     14  C   UNL     1       7.134  -1.353   0.947  0.00  0.00    +0.019 A 
ATOM     15  C   UNL     1       7.996  -2.394   0.600  0.00  0.00    +0.015 A 
ATOM     16  C   UNL     1       9.268  -2.442   1.130  0.00  0.00    +0.050 A 
ATOM     17  C   UNL     1       9.694  -1.457   2.009  0.00  0.00    +0.158 A 
ATOM     18  C   UNL     1       8.838  -0.415   2.360  0.00  0.00    +0.159 A 
ATOM     19  C   UNL     1       7.564  -0.358   1.828  0.00  0.00    +0.060 A 
BRANCH  18  20
ATOM     20  O   UNL     1       9.259   0.549   3.222  0.00  0.00    -0.503 OA
ATOM     21  H   UNL     1       9.682   1.305   2.792  0.00  0.00    +0.292 HD
ENDBRANCH  18  20
BRANCH  17  22
ATOM     22  O   UNL     1      10.949  -1.508   2.530  0.00  0.00    -0.503 OA
ATOM     23  H   UNL     1      11.614  -1.047   2.000  0.00  0.00    +0.292 HD
ENDBRANCH  17  22
ENDBRANCH   4  14
BRANCH   2  24
ATOM     24  C   UNL     1       3.086  -2.549  -1.674  0.00  0.00    +0.000 A 
ATOM     25  C   UNL     1       2.379  -1.855  -2.657  0.00  0.00    +0.011 A 
ATOM     26  C   UNL     1       1.529  -2.535  -3.502  0.00  0.00    +0.016 A 
ATOM     27  C   UNL     1       1.375  -3.913  -3.375  0.00  0.00    +0.019 A 
ATOM     28  C   UNL     1       2.080  -4.607  -2.395  0.00  0.00    +0.016 A 
ATOM     29  C   UNL     1       2.936  -3.932  -1.553  0.00  0.00    +0.011 A 
BRANCH  27  30
ATOM     30  S   UNL     1       0.288  -4.780  -4.457  0.00  0.00    -0.052 S 
BRANCH  30  31
ATOM     31  S   UNL     1       0.436  -6.732  -3.849  0.00  0.00    -0.052 S 
BRANCH  31  32
ATOM     32  C   UNL     1      -0.718  -6.855  -2.523  0.00  0.00    +0.019 A 
ATOM     33  C   UNL     1      -1.465  -5.744  -2.144  0.00  0.00    +0.015 A 
ATOM     34  C   UNL     1      -2.368  -5.845  -1.104  0.00  0.00    +0.001 A 
ATOM     35  C   UNL     1      -2.530  -7.048  -0.440  0.00  0.00    +0.000 A 
ATOM     36  C   UNL     1      -1.789  -8.154  -0.815  0.00  0.00    +0.001 A 
ATOM     37  C   UNL     1      -0.888  -8.064  -1.857  0.00  0.00    +0.015 A 
ENDBRANCH  31  32
ENDBRANCH  30  31
ENDBRANCH  27  30
ENDBRANCH   2  24
TORSDOF 8
