REMARK  Name = ZINC35465209
REMARK  3 active torsions:
REMARK  status: ('A' for Active; 'I' for Inactive)
REMARK    1  A    between atoms: C_1  and  C_2
REMARK    2  A    between atoms: C_8  and  C_30
REMARK    3  A    between atoms: C_25  and  C_29
REMARK                            x       y       z     vdW  Elec       q    Type
REMARK                         _______ _______ _______ _____ _____    ______ ____
ROOT
ATOM      1  C   UNL     1      -0.019   1.527   0.010  0.00  0.00    +0.015 C 
ATOM      2  C   UNL     1       0.002  -0.004   0.002  0.00  0.00    +0.058 C 
ATOM      3  C   UNL     1       0.775  -0.532  -1.232  0.00  0.00    +0.052 C 
ATOM      4  C   UNL     1       1.326  -1.899  -0.789  0.00  0.00    +0.136 C 
ATOM      5  C   UNL     1       0.809  -3.138  -1.522  0.00  0.00    +0.186 C 
ATOM      6  C   UNL     1       0.518  -4.398  -0.705  0.00  0.00    +0.103 C 
ATOM      7  O   UNL     1       1.712  -4.260  -1.438  0.00  0.00    -0.361 OA
ATOM      8  C   UNL     1       0.400  -4.346   0.789  0.00  0.00    +0.064 C 
ATOM      9  C   UNL     1       0.931  -3.150   1.547  0.00  0.00    +0.067 C 
ATOM     10  C   UNL     1       1.255  -1.915   0.744  0.00  0.00    +0.166 C 
ATOM     11  C   UNL     1       0.814  -0.535   1.180  0.00  0.00    +0.171 C 
ATOM     12  O   UNL     1       1.067   0.028   2.217  0.00  0.00    -0.294 OA
ATOM     13  O   UNL     1       2.501  -1.957   0.001  0.00  0.00    -0.350 OA
ATOM     14  C   UNL     1      -0.012  -2.880   2.687  0.00  0.00    -0.069 C 
ATOM     15  C   UNL     1      -0.979  -2.017   2.577  0.00  0.00    +0.008 C 
ATOM     16  C   UNL     1       0.053  -3.641   3.967  0.00  0.00    +0.034 C 
ATOM     17  C   UNL     1      -0.246  -5.117   3.699  0.00  0.00    +0.053 C 
ATOM     18  C   UNL     1       0.850  -5.803   2.968  0.00  0.00    +0.204 C 
ATOM     19  C   UNL     1       0.911  -5.598   1.469  0.00  0.00    -0.013 C 
ATOM     20  C   UNL     1       1.537  -6.671   1.015  0.00  0.00    +0.037 C 
ATOM     21  C   UNL     1       1.704  -7.630   2.134  0.00  0.00    +0.336 C 
ATOM     22  O   UNL     1       2.399  -8.624   2.112  0.00  0.00    -0.245 OA
ATOM     23  O   UNL     1       0.926  -7.214   3.163  0.00  0.00    -0.454 OA
ATOM     24  C   UNL     1       2.069  -6.968  -0.366  0.00  0.00    +0.051 C 
ATOM     25  C   UNL     1      -0.564  -5.278  -1.375  0.00  0.00    +0.045 C 
ENDROOT
TORSDOF 0
