REMARK  Name = ZINC38917621
REMARK  8 active torsions:
REMARK  status: ('A' for Active; 'I' for Inactive)
REMARK    1  A    between atoms: C_1  and  O_2
REMARK    2  A    between atoms: O_2  and  C_3
REMARK    3  A    between atoms: C_5  and  C_17
REMARK    4  A    between atoms: C_8  and  O_9
REMARK    5  A    between atoms: O_9  and  C_10
REMARK    6  A    between atoms: C_10  and  C_11
REMARK    7  A    between atoms: N_18  and  N_19
REMARK    8  A    between atoms: C_20  and  C_26
REMARK                            x       y       z     vdW  Elec       q    Type
REMARK                         _______ _______ _______ _____ _____    ______ ____
ROOT
ATOM      1  C   UNL     1      -4.876   0.225  -0.173  0.00  0.00    +0.138 C 
ATOM      2  N   UNL     1      -6.002  -0.385   0.046  0.00  0.00    -0.183 NA
ENDROOT
BRANCH   2   3
ATOM      3  N   UNL     1      -7.187   0.353   0.162  0.00  0.00    -0.172 N 
ATOM      4  C   UNL     1      -8.562  -0.163   0.297  0.00  0.00    +0.265 C 
ATOM      5  N   UNL     1      -9.388   1.051   0.378  0.00  0.00    -0.189 NA
ATOM      6  N   UNL     1      -8.639   2.029   0.305  0.00  0.00    -0.219 N 
ATOM      7  C   UNL     1      -7.326   1.696   0.181  0.00  0.00    +0.174 C 
ATOM      8  S   UNL     1      -6.038   2.817   0.064  0.00  0.00    -0.015 S 
ATOM      9  H   UNL     1      -8.956   2.946   0.336  0.00  0.00    +0.176 HD
BRANCH   4  10
ATOM     10  C   UNL     1      -8.698  -0.984   1.553  0.00  0.00    +0.016 A 
ATOM     11  C   UNL     1      -7.585  -1.588   2.108  0.00  0.00    +0.010 A 
ATOM     12  C   UNL     1      -7.709  -2.341   3.260  0.00  0.00    +0.020 A 
ATOM     13  C   UNL     1      -8.948  -2.491   3.859  0.00  0.00    +0.042 A 
ATOM     14  C   UNL     1     -10.062  -1.887   3.305  0.00  0.00    +0.040 A 
ATOM     15  C   UNL     1      -9.936  -1.129   2.154  0.00  0.00    +0.049 A 
ATOM     16 CL   UNL     1     -11.332  -0.366   1.460  0.00  0.00    -0.083 Cl
ATOM     17 CL   UNL     1      -9.103  -3.437   5.306  0.00  0.00    -0.083 Cl
ENDBRANCH   4  10
ENDBRANCH   2   3
BRANCH   1  20
ATOM     18  C   UNL     1      -1.224  -0.605  -0.438  0.00  0.00    +0.162 A 
ATOM     19  C   UNL     1      -2.403   0.116  -0.424  0.00  0.00    +0.059 A 
ATOM     20  C   UNL     1      -3.615  -0.539  -0.189  0.00  0.00    -0.002 A 
ATOM     21  C   UNL     1      -3.629  -1.919   0.032  0.00  0.00    +0.013 A 
ATOM     22  C   UNL     1      -2.448  -2.631   0.017  0.00  0.00    +0.050 A 
ATOM     23  C   UNL     1      -1.246  -1.982  -0.223  0.00  0.00    +0.162 A 
BRANCH  18  25
ATOM     24  C   UNL     1      -0.094   1.440  -0.879  0.00  0.00    +0.277 C 
ATOM     25  O   UNL     1      -0.042   0.028  -0.667  0.00  0.00    -0.491 OA
ENDBRANCH  18  25
BRANCH  23  26
ATOM     26  O   UNL     1      -0.086  -2.689  -0.242  0.00  0.00    -0.484 OA
BRANCH  26  27
ATOM     27  C   UNL     1      -0.180  -4.097  -0.014  0.00  0.00    +0.264 C 
BRANCH  27  28
ATOM     28  C   UNL     1       1.196  -4.709  -0.071  0.00  0.00    -0.010 A 
ATOM     29  C   UNL     1       1.699  -5.166  -1.275  0.00  0.00    +0.007 A 
ATOM     30  C   UNL     1       2.961  -5.728  -1.328  0.00  0.00    +0.000 A 
ATOM     31  C   UNL     1       3.720  -5.831  -0.178  0.00  0.00    +0.000 A 
ATOM     32  C   UNL     1       3.217  -5.373   1.026  0.00  0.00    +0.000 A 
ATOM     33  C   UNL     1       1.957  -4.808   1.078  0.00  0.00    +0.007 A 
ENDBRANCH  27  28
ENDBRANCH  26  27
ENDBRANCH  23  26
ENDBRANCH   1  20
TORSDOF 7
