REMARK  Name = ZINC20908275
REMARK  11 active torsions:
REMARK  status: ('A' for Active; 'I' for Inactive)
REMARK    1  A    between atoms: C_1  and  C_2
REMARK    2  A    between atoms: C_5  and  C_8
REMARK    3  A    between atoms: N_9  and  N_10
REMARK    4  A    between atoms: C_13  and  S_16
REMARK    5  A    between atoms: S_16  and  C_17
REMARK    6  A    between atoms: C_17  and  C_18
REMARK    7  A    between atoms: N_20  and  C_21
REMARK    8  A    between atoms: C_23  and  C_29
REMARK    9  A    between atoms: C_23  and  C_30
REMARK   10  A    between atoms: C_25  and  C_27
REMARK   11  A    between atoms: C_25  and  C_28
REMARK                            x       y       z     vdW  Elec       q    Type
REMARK                         _______ _______ _______ _____ _____    ______ ____
ROOT
ATOM      1  S   UNL     1      -9.964   1.857   0.060  0.00  0.00    -0.075 S 
ENDROOT
BRANCH   1   5
ATOM      2  N   UNL     1      -4.838   0.937   0.030  0.00  0.00    -0.205 N 
ATOM      3  C   UNL     1      -6.046   1.620   0.039  0.00  0.00    +0.232 A 
ATOM      4  N   UNL     1      -7.290   1.052   0.042  0.00  0.00    -0.186 NA
ATOM      5  C   UNL     1      -8.213   2.058   0.052  0.00  0.00    +0.211 A 
ATOM      6  N   UNL     1      -7.568   3.200   0.056  0.00  0.00    -0.144 NA
ATOM      7  N   UNL     1      -6.195   2.922   0.053  0.00  0.00    -0.245 N 
ATOM      8  H   UNL     1      -4.828  -0.163   0.024  0.00  0.00    +0.177 HD
ATOM      9  H   UNL     1      -5.311   3.577   0.060  0.00  0.00    +0.192 HD
BRANCH   2  11
ATOM     10  C   UNL     1      -2.501   1.010   0.019  0.00  0.00    +0.138 C 
ATOM     11  N   UNL     1      -3.631   1.649   0.028  0.00  0.00    -0.188 NA
BRANCH  10  16
ATOM     12  C   UNL     1       2.452   3.933  -0.002  0.00  0.00    +0.044 C 
ATOM     13  C   UNL     1       1.155   3.167   0.008  0.00  0.00    -0.050 A 
ATOM     14  C   UNL     1       1.171   1.783   0.001  0.00  0.00    +0.004 A 
ATOM     15  C   UNL     1      -0.013   1.076   0.008  0.00  0.00    +0.010 A 
ATOM     16  C   UNL     1      -1.231   1.760   0.017  0.00  0.00    -0.005 A 
ATOM     17  C   UNL     1      -1.240   3.157   0.031  0.00  0.00    +0.010 A 
ATOM     18  C   UNL     1      -0.048   3.851   0.023  0.00  0.00    +0.004 A 
ENDBRANCH  10  16
ENDBRANCH   2  11
ENDBRANCH   1   5
BRANCH   1  19
ATOM     19  C   UNL     1     -10.601   3.556   0.073  0.00  0.00    +0.173 C 
BRANCH  19  20
ATOM     20  C   UNL     1     -12.107   3.527   0.080  0.00  0.00    +0.224 C 
ATOM     21  O   UNL     1     -12.694   2.466   0.077  0.00  0.00    -0.275 OA
ATOM     22  N   UNL     1     -12.803   4.682   0.090  0.00  0.00    -0.312 N 
ATOM     23  H   UNL     1     -12.271   5.645   0.093  0.00  0.00    +0.149 HD
BRANCH  22  24
ATOM     24  C   UNL     1     -14.271   4.654   0.097  0.00  0.00    +0.070 C 
ATOM     25  C   UNL     1     -14.780   4.564  -1.341  0.00  0.00    +0.009 C 
ATOM     26  C   UNL     1     -16.306   4.556  -1.366  0.00  0.00    -0.072 C 
ATOM     27  N   UNL     1     -16.890   5.615  -0.569  0.00  0.00    +0.386 N 
ATOM     28  C   UNL     1     -16.322   5.957   0.718  0.00  0.00    -0.072 C 
ATOM     29  C   UNL     1     -14.796   5.949   0.717  0.00  0.00    +0.009 C 
ATOM     30  C   UNL     1     -16.839   5.021   1.817  0.00  0.00    -0.010 C 
ATOM     31  C   UNL     1     -16.780   7.386   1.083  0.00  0.00    -0.010 C 
ATOM     32  C   UNL     1     -16.819   3.181  -0.922  0.00  0.00    -0.010 C 
ATOM     33  C   UNL     1     -16.748   4.757  -2.833  0.00  0.00    -0.010 C 
ATOM     34  H   UNL     1     -16.854   6.559  -1.132  0.00  0.00    -0.084 HD
ATOM     35  H   UNL     1     -17.936   5.365  -0.338  0.00  0.00    -0.084 HD
ENDBRANCH  22  24
ENDBRANCH  19  20
ENDBRANCH   1  19
TORSDOF 6
