REMARK  Name = ZINC42473191
REMARK  8 active torsions:
REMARK  status: ('A' for Active; 'I' for Inactive)
REMARK    1  A    between atoms: C_1  and  C_2
REMARK    2  A    between atoms: C_2  and  N_3
REMARK    3  A    between atoms: N_3  and  C_4
REMARK    4  A    between atoms: N_3  and  C_10
REMARK    5  A    between atoms: C_4  and  C_5
REMARK    6  A    between atoms: C_10  and  C_12
REMARK    7  A    between atoms: C_10  and  C_14
REMARK    8  A    between atoms: C_12  and  N_13
REMARK                            x       y       z     vdW  Elec       q    Type
REMARK                         _______ _______ _______ _____ _____    ______ ____
ROOT
ATOM      1  C   UNL     1      -0.083   0.040  -2.885  0.00  0.00    +0.106 C 
ENDROOT
BRANCH   1   2
ATOM      2  C   UNL     1       1.194   0.170  -3.674  0.00  0.00    +0.122 A 
ATOM      3  C   UNL     1       1.381   0.963  -4.744  0.00  0.00    +0.047 A 
ATOM      4  C   UNL     1       2.716   0.774  -5.167  0.00  0.00    +0.057 A 
ATOM      5  C   UNL     1       3.267  -0.124  -4.329  0.00  0.00    +0.170 A 
ATOM      6  O   UNL     1       2.342  -0.482  -3.423  0.00  0.00    -0.452 OA
ATOM      7 BR   UNL     1       5.044  -0.767  -4.409  0.00  0.00    -0.008 Br
ENDBRANCH   1   2
BRANCH   1   8
ATOM      8  N   UNL     1       0.221   0.082  -1.449  0.00  0.00    -0.290 NA
BRANCH   8  10
ATOM      9  C   UNL     1      -1.152   2.035  -0.902  0.00  0.00    +0.020 C 
ATOM     10  C   UNL     1      -0.943   0.536  -0.677  0.00  0.00    +0.082 C 
ENDBRANCH   8  10
BRANCH   8  11
ATOM     11  C   UNL     1       0.692  -1.226  -0.972  0.00  0.00    +0.127 C 
BRANCH  11  12
ATOM     12  C   UNL     1       1.423  -1.051   0.334  0.00  0.00    +0.004 A 
ATOM     13  C   UNL     1       0.936  -1.091   1.597  0.00  0.00    +0.012 A 
ATOM     14  C   UNL     1       1.803  -0.902   2.657  0.00  0.00    +0.008 A 
ATOM     15  C   UNL     1       3.115  -0.682   2.401  0.00  0.00    +0.045 A 
ATOM     16  S   UNL     1       3.159  -0.745   0.617  0.00  0.00    -0.100 S 
ENDBRANCH  11  12
ENDBRANCH   8  11
ENDBRANCH   1   8
BRANCH   1  17
ATOM     17  C   UNL     1      -0.759  -1.290  -3.225  0.00  0.00    -0.059 C 
BRANCH  17  18
ATOM     18  N   UNL     1      -1.961  -1.455  -2.397  0.00  0.00    +0.379 N 
ATOM     19  H   UNL     1      -2.501  -2.235  -2.739  0.00  0.00    -0.090 HD
ATOM     20  H   UNL     1      -1.689  -1.628  -1.440  0.00  0.00    -0.090 HD
ATOM     21  H   UNL     1      -2.518  -0.614  -2.442  0.00  0.00    -0.090 HD
ENDBRANCH  17  18
ENDBRANCH   1  17
TORSDOF 7
