REMARK  Name = ZINC11114846
REMARK  13 active torsions:
REMARK  status: ('A' for Active; 'I' for Inactive)
REMARK    1  A    between atoms: C_1  and  C_2
REMARK    2  A    between atoms: C_2  and  O_3
REMARK    3  A    between atoms: O_3  and  C_4
REMARK    4  A    between atoms: C_4  and  C_6
REMARK    5  A    between atoms: C_10  and  N_11
REMARK    6  A    between atoms: C_12  and  C_14
REMARK    7  A    between atoms: C_14  and  O_15
REMARK    8  A    between atoms: O_15  and  C_16
REMARK    9  A    between atoms: C_21  and  C_22
REMARK   10  A    between atoms: C_26  and  C_31
REMARK   11  A    between atoms: C_26  and  C_32
REMARK   12  A    between atoms: C_27  and  C_29
REMARK   13  A    between atoms: C_27  and  C_30
REMARK                            x       y       z     vdW  Elec       q    Type
REMARK                         _______ _______ _______ _____ _____    ______ ____
ROOT
ATOM      1  C   UNL     1      -4.010   0.963  -0.561  0.00  0.00    +0.091 A 
ATOM      2  C   UNL     1      -2.937   1.603   0.170  0.00  0.00    -0.024 A 
ATOM      3  C   UNL     1      -2.631   2.860  -0.224  0.00  0.00    -0.016 A 
ATOM      4  S   UNL     1      -3.739   3.191  -1.563  0.00  0.00    -0.079 S 
ATOM      5  C   UNL     1      -4.601   1.689  -1.591  0.00  0.00    +0.086 A 
ATOM      6  C   UNL     1      -1.581   3.746   0.364  0.00  0.00    -0.041 C 
ATOM      7  C   UNL     1      -0.730   1.580   1.268  0.00  0.00    -0.069 C 
ATOM      8  C   UNL     1      -2.142   0.984   1.312  0.00  0.00    +0.024 C 
ATOM      9  C   UNL     1      -0.013   1.086   0.008  0.00  0.00    -0.010 C 
ATOM     10  C   UNL     1       0.044   1.050   2.490  0.00  0.00    -0.010 C 
ATOM     11  C   UNL     1      -2.282   4.916   1.082  0.00  0.00    -0.005 C 
ATOM     12  C   UNL     1      -0.719   4.331  -0.763  0.00  0.00    -0.005 C 
ATOM     13  N   UNL     1      -0.713   3.062   1.365  0.00  0.00    +0.389 N 
ATOM     14  H   UNL     1      -1.033   3.327   2.304  0.00  0.00    -0.084 HD
ATOM     15  H   UNL     1       0.252   3.384   1.228  0.00  0.00    -0.084 HD
ENDROOT
BRANCH   5  16
ATOM     16  N   UNL     1      -5.632   1.302  -2.432  0.00  0.00    -0.277 N 
ATOM     17  C   UNL     1      -6.080   2.146  -3.382  0.00  0.00    +0.255 C 
ATOM     18  O   UNL     1      -5.581   3.245  -3.501  0.00  0.00    -0.272 OA
ATOM     19  H   UNL     1      -6.032   0.423  -2.338  0.00  0.00    +0.155 HD
BRANCH  17  20
ATOM     20  C   UNL     1      -7.201   1.726  -4.297  0.00  0.00    +0.324 C 
BRANCH  20  21
ATOM     21  O   UNL     1      -7.494   2.785  -5.211  0.00  0.00    -0.482 OA
BRANCH  21  22
ATOM     22  C   UNL     1      -8.486   2.567  -6.110  0.00  0.00    +0.133 A 
ATOM     23  C   UNL     1      -9.167   1.358  -6.116  0.00  0.00    +0.048 A 
ATOM     24  C   UNL     1     -10.177   1.137  -7.031  0.00  0.00    +0.023 A 
ATOM     25  C   UNL     1     -10.518   2.118  -7.949  0.00  0.00    +0.042 A 
ATOM     26  C   UNL     1      -9.851   3.325  -7.957  0.00  0.00    +0.036 A 
ATOM     27  C   UNL     1      -8.831   3.563  -7.032  0.00  0.00    +0.079 A 
ATOM     28 CL   UNL     1     -11.790   1.826  -9.093  0.00  0.00    -0.084 Cl
BRANCH  27  29
ATOM     29  C   UNL     1      -8.118   4.855  -7.030  0.00  0.00    +0.245 C 
ATOM     30  O   UNL     1      -7.228   5.057  -6.227  0.00  0.00    -0.270 OA
ATOM     31  N   UNL     1      -8.453   5.811  -7.920  0.00  0.00    -0.325 N 
ATOM     32  H   UNL     1      -9.163   5.650  -8.560  0.00  0.00    +0.145 HD
ATOM     33  H   UNL     1      -7.985   6.660  -7.918  0.00  0.00    +0.145 HD
ENDBRANCH  27  29
ENDBRANCH  21  22
ENDBRANCH  20  21
ENDBRANCH  17  20
ENDBRANCH   5  16
BRANCH   1  34
ATOM     34  C   UNL     1      -4.465  -0.391  -0.239  0.00  0.00    +0.342 C 
ATOM     35  O   UNL     1      -5.354  -0.557   0.575  0.00  0.00    -0.245 OA
BRANCH  34  36
ATOM     36  O   UNL     1      -3.899  -1.455  -0.845  0.00  0.00    -0.461 OA
BRANCH  36  38
ATOM     37  C   UNL     1      -3.643  -3.841  -1.262  0.00  0.00    +0.048 C 
ATOM     38  C   UNL     1      -4.400  -2.767  -0.477  0.00  0.00    +0.229 C 
ENDBRANCH  36  38
ENDBRANCH  34  36
ENDBRANCH   1  34
TORSDOF 8
