REMARK  Name = ZINC20712342
REMARK  4 active torsions:
REMARK  status: ('A' for Active; 'I' for Inactive)
REMARK    1  A    between atoms: C_1  and  N_2
REMARK    2  A    between atoms: N_5  and  S_8
REMARK    3  A    between atoms: S_8  and  C_11
REMARK    4  A    between atoms: C_24  and  C_27
REMARK                            x       y       z     vdW  Elec       q    Type
REMARK                         _______ _______ _______ _____ _____    ______ ____
ROOT
ATOM      1  C   UNL     1       7.484   3.701  -0.891  0.00  0.00    +0.106 A 
ATOM      2  C   UNL     1       7.194   2.658  -0.030  0.00  0.00    +0.030 A 
ATOM      3  C   UNL     1       5.901   2.459   0.407  0.00  0.00    +0.025 A 
ATOM      4  C   UNL     1       4.880   3.304  -0.013  0.00  0.00    +0.031 A 
ATOM      5  C   UNL     1       5.183   4.365  -0.873  0.00  0.00    -0.018 A 
ATOM      6  C   UNL     1       6.476   4.551  -1.310  0.00  0.00    +0.034 A 
ATOM      7  C   UNL     1       4.072   5.255  -1.276  0.00  0.00    +0.049 C 
ATOM      8  C   UNL     1       4.100   6.021  -2.548  0.00  0.00    -0.023 C 
ATOM      9  C   UNL     1       2.854   6.163  -2.985  0.00  0.00    -0.030 C 
ATOM     10  C   UNL     1       1.884   5.457  -2.036  0.00  0.00    +0.033 C 
ATOM     11  C   UNL     1       2.787   4.385  -1.411  0.00  0.00    +0.029 C 
ATOM     12  C   UNL     1       2.452   3.936  -0.000  0.00  0.00    +0.106 C 
ATOM     13  N   UNL     1       3.569   3.061   0.418  0.00  0.00    -0.336 N 
ATOM     14  H   UNL     1       3.378   2.203   1.079  0.00  0.00    +0.147 HD
ENDROOT
BRANCH  12  15
ATOM     15  C   UNL     1       1.157   3.165   0.008  0.00  0.00    -0.009 A 
ATOM     16  C   UNL     1       1.175   1.783   0.000  0.00  0.00    +0.008 A 
ATOM     17  C   UNL     1      -0.013   1.076   0.008  0.00  0.00    +0.020 A 
ATOM     18  C   UNL     1      -1.220   1.751   0.017  0.00  0.00    +0.042 A 
ATOM     19  C   UNL     1      -1.239   3.134   0.030  0.00  0.00    +0.040 A 
ATOM     20  C   UNL     1      -0.050   3.841   0.022  0.00  0.00    +0.047 A 
ATOM     21 CL   UNL     1      -0.072   5.577   0.032  0.00  0.00    -0.083 Cl
ATOM     22 CL   UNL     1      -2.712   0.863   0.019  0.00  0.00    -0.083 Cl
ENDBRANCH  12  15
BRANCH   1  23
ATOM     23  S   UNL     1       9.135   3.947  -1.454  0.00  0.00    +0.061 S 
ATOM     24  O   UNL     1       9.791   2.691  -1.350  0.00  0.00    -0.153 OA
ATOM     25  O   UNL     1       9.044   4.660  -2.680  0.00  0.00    -0.153 OA
BRANCH  23  30
ATOM     26  C   UNL     1       9.890   7.311   3.103  0.00  0.00    -0.096 C 
ATOM     27  N   UNL     1      10.204   6.592   1.861  0.00  0.00    +0.380 N 
ATOM     28  C   UNL     1      10.084   5.140   2.050  0.00  0.00    -0.062 C 
ATOM     29  C   UNL     1      10.592   4.422   0.794  0.00  0.00    +0.091 C 
ATOM     30  N   UNL     1       9.876   4.958  -0.373  0.00  0.00    -0.180 NA
ATOM     31  C   UNL     1       9.840   6.417  -0.557  0.00  0.00    +0.091 C 
ATOM     32  C   UNL     1       9.357   7.057   0.754  0.00  0.00    -0.062 C 
ATOM     33  H   UNL     1      11.249   6.810   1.597  0.00  0.00    -0.082 HD
ENDBRANCH  23  30
ENDBRANCH   1  23
TORSDOF 3
