REMARK  Name = ZINC06919968
REMARK  14 active torsions:
REMARK  status: ('A' for Active; 'I' for Inactive)
REMARK    1  A    between atoms: C_1  and  C_2
REMARK    2  A    between atoms: C_2  and  C_3
REMARK    3  A    between atoms: C_3  and  C_4
REMARK    4  A    between atoms: C_4  and  N_61
REMARK    5  A    between atoms: C_5  and  N_61
REMARK    6  A    between atoms: C_6  and  C_7
REMARK    7  A    between atoms: C_6  and  N_61
REMARK    8  A    between atoms: C_7  and  C_8
REMARK    9  A    between atoms: C_8  and  N_9
REMARK   10  A    between atoms: C_10  and  C_12
REMARK   11  A    between atoms: C_21  and  C_24
REMARK   12  A    between atoms: C_24  and  C_26
REMARK   13  A    between atoms: C_24  and  C_27
REMARK   14  A    between atoms: C_27  and  C_28
REMARK                            x       y       z     vdW  Elec       q    Type
REMARK                         _______ _______ _______ _____ _____    ______ ____
ROOT
ATOM      1  C   UNL     1       0.002  -0.004   0.002  0.00  0.00    +0.039 A 
ATOM      2  C   UNL     1       1.221  -0.687  -0.013  0.00  0.00    +0.015 A 
ATOM      3  C   UNL     1       2.406   0.016  -0.024  0.00  0.00    +0.025 A 
ATOM      4  C   UNL     1       2.388   1.403  -0.018  0.00  0.00    +0.049 A 
ATOM      5  C   UNL     1       1.172   2.095   0.002  0.00  0.00    +0.055 A 
ATOM      6  C   UNL     1      -0.017   1.394   0.010  0.00  0.00    +0.038 A 
ATOM      7  N   UNL     1       1.176   3.496   0.020  0.00  0.00    -0.282 N 
ATOM      8  C   UNL     1       2.297   4.183  -0.269  0.00  0.00    +0.238 C 
ATOM      9  O   UNL     1       2.292   5.394  -0.208  0.00  0.00    -0.273 OA
ATOM     10  C   UNL     1       3.560   3.462  -0.668  0.00  0.00    +0.160 C 
ATOM     11  N   UNL     1       3.576   2.136  -0.034  0.00  0.00    -0.331 N 
ATOM     12  H   UNL     1       0.362   3.975   0.243  0.00  0.00    +0.155 HD
ATOM     13  H   UNL     1       4.388   1.781   0.361  0.00  0.00    +0.147 HD
ENDROOT
BRANCH   1  15
ATOM     14  N   UNL     1      -1.248  -2.106   0.003  0.00  0.00    -0.311 N 
ATOM     15  C   UNL     1      -1.266  -0.758   0.011  0.00  0.00    +0.244 C 
ATOM     16  O   UNL     1      -2.327  -0.165   0.025  0.00  0.00    -0.270 OA
ATOM     17  H   UNL     1      -0.402  -2.580  -0.008  0.00  0.00    +0.149 HD
BRANCH  14  18
ATOM     18  C   UNL     1      -2.507  -2.855   0.012  0.00  0.00    +0.102 C 
BRANCH  18  19
ATOM     19  C   UNL     1      -2.208  -4.356   0.001  0.00  0.00    +0.000 C 
BRANCH  19  20
ATOM     20  C   UNL     1      -3.522  -5.138   0.010  0.00  0.00    -0.078 C 
BRANCH  20  22
ATOM     21  C   UNL     1      -2.573  -6.993   1.244  0.00  0.00    -0.096 C 
ATOM     22  N   UNL     1      -3.217  -6.584  -0.022  0.00  0.00    +0.378 N 
ATOM     23  H   UNL     1      -2.573  -6.771  -0.800  0.00  0.00    -0.082 HD
BRANCH  22  24
ATOM     24  C   UNL     1      -4.459  -7.358  -0.231  0.00  0.00    -0.079 C 
BRANCH  24  25
ATOM     25  C   UNL     1      -4.091  -8.822  -0.483  0.00  0.00    -0.019 C 
BRANCH  25  27
ATOM     26  C   UNL     1      -4.999 -11.097  -0.976  0.00  0.00    +0.004 C 
ATOM     27  C   UNL     1      -5.366  -9.633  -0.723  0.00  0.00    -0.005 C 
ENDBRANCH  25  27
ENDBRANCH  24  25
ENDBRANCH  22  24
ENDBRANCH  20  22
ENDBRANCH  19  20
ENDBRANCH  18  19
ENDBRANCH  14  18
ENDBRANCH   1  15
BRANCH  10  28
ATOM     28  C   UNL     1       3.600   3.302  -2.190  0.00  0.00    +0.015 C 
ATOM     29  C   UNL     1       2.320   2.611  -2.664  0.00  0.00    +0.010 C 
BRANCH  28  30
ATOM     30  C   UNL     1       3.709   4.680  -2.845  0.00  0.00    +0.002 C 
ATOM     31  C   UNL     1       3.875   4.514  -4.357  0.00  0.00    +0.004 C 
ENDBRANCH  28  30
ENDBRANCH  10  28
TORSDOF 10
