REMARK  Name = ZINC39652553
REMARK  4 active torsions:
REMARK  status: ('A' for Active; 'I' for Inactive)
REMARK    1  A    between atoms: C_3  and  C_9
REMARK    2  A    between atoms: C_9  and  N_10
REMARK    3  A    between atoms: C_11  and  C_13
REMARK    4  A    between atoms: C_24  and  C_26
REMARK                            x       y       z     vdW  Elec       q    Type
REMARK                         _______ _______ _______ _____ _____    ______ ____
ROOT
ATOM      1  C   UNL     1       5.948   2.584   1.947  0.00  0.00    +0.100 C 
ATOM      2  C   UNL     1       6.276   1.358   2.829  0.00  0.00    +0.121 C 
ATOM      3  N   UNL     1       7.688   1.039   2.517  0.00  0.00    -0.300 N 
ATOM      4  C   UNL     1       8.346   2.361   2.389  0.00  0.00    +0.115 C 
ATOM      5  C   UNL     1       7.309   3.241   1.664  0.00  0.00    -0.004 C 
ATOM      6  C   UNL     1       7.337   4.661   2.223  0.00  0.00    -0.010 C 
ATOM      7  C   UNL     1       8.678   5.314   1.878  0.00  0.00    -0.082 C 
ATOM      8  N   UNL     1       8.853   5.338   0.421  0.00  0.00    +0.379 N 
ATOM      9  C   UNL     1       8.918   3.966  -0.098  0.00  0.00    -0.082 C 
ATOM     10  C   UNL     1       7.587   3.255   0.164  0.00  0.00    -0.010 C 
ATOM     11  C   UNL     1       8.249  -0.179   2.379  0.00  0.00    +0.219 C 
ATOM     12  O   UNL     1       7.559  -1.175   2.438  0.00  0.00    -0.275 OA
ATOM     13  H   UNL     1       8.073   5.819  -0.002  0.00  0.00    -0.086 HD
ATOM     14  H   UNL     1       9.708   5.823   0.194  0.00  0.00    -0.086 HD
ENDROOT
BRANCH  11  15
ATOM     15  C   UNL     1       9.734  -0.304   2.153  0.00  0.00    +0.079 C 
ATOM     16  C   UNL     1      10.036  -1.621   1.426  0.00  0.00    +0.017 C 
ATOM     17  C   UNL     1      11.519  -1.638   1.052  0.00  0.00    +0.027 C 
ATOM     18  C   UNL     1      12.357  -1.283   2.246  0.00  0.00    -0.031 C 
ATOM     19  C   UNL     1      11.897  -0.705   3.309  0.00  0.00    -0.030 C 
ATOM     20  C   UNL     1      10.460  -0.313   3.500  0.00  0.00    +0.039 C 
ENDBRANCH  11  15
BRANCH   1  22
ATOM     21  N   UNL     1       4.435   2.964   0.028  0.00  0.00    -0.311 N 
ATOM     22  C   UNL     1       5.299   2.145   0.660  0.00  0.00    +0.218 C 
ATOM     23  O   UNL     1       5.554   1.056   0.193  0.00  0.00    -0.275 OA
ATOM     24  H   UNL     1       4.231   3.836   0.401  0.00  0.00    +0.149 HD
BRANCH  21  25
ATOM     25  C   UNL     1       3.804   2.538  -1.224  0.00  0.00    +0.142 C 
BRANCH  25  28
ATOM     26  C   UNL     1       2.431   5.412  -3.250  0.00  0.00    +0.016 A 
ATOM     27  C   UNL     1       3.270   4.413  -2.793  0.00  0.00    +0.009 A 
ATOM     28  C   UNL     1       2.889   3.627  -1.722  0.00  0.00    +0.005 A 
ATOM     29  C   UNL     1       1.667   3.840  -1.106  0.00  0.00    +0.129 A 
ATOM     30  C   UNL     1       0.828   4.841  -1.565  0.00  0.00    +0.054 A 
ATOM     31  C   UNL     1       1.210   5.626  -2.637  0.00  0.00    +0.021 A 
ATOM     32 BR   UNL     1       0.064   6.993  -3.264  0.00  0.00    -0.050 Br
ATOM     33  F   UNL     1       1.295   3.072  -0.059  0.00  0.00    -0.205 F 
ENDBRANCH  25  28
ENDBRANCH  21  25
ENDBRANCH   1  22
TORSDOF 4
