REMARK  Name = ZINC09337125
REMARK  9 active torsions:
REMARK  status: ('A' for Active; 'I' for Inactive)
REMARK    1  A    between atoms: C_1  and  C_2
REMARK    2  A    between atoms: C_5  and  O_26
REMARK    3  A    between atoms: C_6  and  N_8
REMARK    4  A    between atoms: C_9  and  C_11
REMARK    5  A    between atoms: C_11  and  N_47
REMARK    6  A    between atoms: C_12  and  C_14
REMARK    7  A    between atoms: C_12  and  C_21
REMARK    8  A    between atoms: C_12  and  N_47
REMARK    9  A    between atoms: O_26  and  C_27
REMARK                            x       y       z     vdW  Elec       q    Type
REMARK                         _______ _______ _______ _____ _____    ______ ____
ROOT
ATOM      1  N   UNL     1      -1.193  -2.158   0.119  0.00  0.00    +0.392 N 
ATOM      2  H   UNL     1      -0.584  -2.423   0.902  0.00  0.00    -0.084 HD
ATOM      3  H   UNL     1      -0.745  -2.421  -0.767  0.00  0.00    -0.084 HD
ENDROOT
BRANCH   1   4
ATOM      4  C   UNL     1      -1.406  -0.698   0.141  0.00  0.00    +0.016 C 
BRANCH   4   6
ATOM      5  N   UNL     1      -0.016   1.344   0.009  0.00  0.00    -0.284 N 
ATOM      6  C   UNL     1      -0.075  -0.003   0.014  0.00  0.00    +0.200 C 
ATOM      7  O   UNL     1       0.943  -0.655  -0.085  0.00  0.00    -0.278 OA
ATOM      8  H   UNL     1      -0.834   1.865   0.003  0.00  0.00    +0.155 HD
BRANCH   5  14
ATOM      9  C   UNL     1       4.788   1.282   1.054  0.00  0.00    +0.044 C 
ATOM     10  C   UNL     1       3.572   1.985   0.508  0.00  0.00    -0.048 A 
ATOM     11  C   UNL     1       3.684   3.269   0.007  0.00  0.00    +0.007 A 
ATOM     12  C   UNL     1       2.572   3.919  -0.494  0.00  0.00    +0.048 A 
ATOM     13  C   UNL     1       1.341   3.284  -0.496  0.00  0.00    +0.141 A 
ATOM     14  C   UNL     1       1.227   1.990   0.008  0.00  0.00    +0.076 A 
ATOM     15  C   UNL     1       2.346   1.347   0.515  0.00  0.00    +0.030 A 
BRANCH  13  16
ATOM     16  O   UNL     1       0.246   3.922  -0.990  0.00  0.00    -0.493 OA
ATOM     17  C   UNL     1       0.437   5.246  -1.490  0.00  0.00    +0.277 C 
ENDBRANCH  13  16
ENDBRANCH   5  14
ENDBRANCH   4   6
ENDBRANCH   1   4
BRANCH   1  18
ATOM     18  C   UNL     1      -2.481  -2.866   0.242  0.00  0.00    -0.003 C 
BRANCH  18  19
ATOM     19  C   UNL     1      -2.239  -4.236   0.821  0.00  0.00    -0.056 A 
ATOM     20  C   UNL     1      -1.142  -4.973   0.415  0.00  0.00    +0.005 A 
ATOM     21  C   UNL     1      -0.916  -6.228   0.950  0.00  0.00    +0.038 A 
ATOM     22  C   UNL     1      -1.796  -6.751   1.882  0.00  0.00    +0.123 A 
ATOM     23  C   UNL     1      -2.898  -6.014   2.283  0.00  0.00    +0.038 A 
ATOM     24  C   UNL     1      -3.118  -4.757   1.752  0.00  0.00    +0.005 A 
ATOM     25  F   UNL     1      -1.580  -7.980   2.400  0.00  0.00    -0.205 F 
ENDBRANCH  18  19
BRANCH  18  26
ATOM     26  C   UNL     1      -3.114  -2.999  -1.119  0.00  0.00    -0.020 A 
ATOM     27  C   UNL     1      -4.417  -2.881  -1.470  0.00  0.00    +0.010 A 
ATOM     28  C   UNL     1      -4.772  -3.043  -2.796  0.00  0.00    +0.008 A 
ATOM     29  C   UNL     1      -3.807  -3.325  -3.705  0.00  0.00    +0.045 A 
ATOM     30  S   UNL     1      -2.341  -3.363  -2.687  0.00  0.00    -0.103 S 
ENDBRANCH  18  26
ENDBRANCH   1  18
TORSDOF 7
