REMARK  Name = ZINC58244499
REMARK  9 active torsions:
REMARK  status: ('A' for Active; 'I' for Inactive)
REMARK    1  A    between atoms: N_7  and  C_8
REMARK    2  A    between atoms: C_8  and  C_9
REMARK    3  A    between atoms: C_9  and  C_10
REMARK    4  A    between atoms: C_10  and  C_11
REMARK    5  A    between atoms: C_11  and  N_12
REMARK    6  A    between atoms: N_12  and  C_13
REMARK    7  A    between atoms: C_16  and  S_22
REMARK    8  A    between atoms: C_18  and  N_19
REMARK    9  A    between atoms: S_22  and  N_25
REMARK                            x       y       z     vdW  Elec       q    Type
REMARK                         _______ _______ _______ _____ _____    ______ ____
ROOT
ATOM      1  N   UNL     1      -1.992  -7.418  -0.536  0.00  0.00    -0.342 N 
ATOM      2  H   UNL     1      -2.852  -6.971  -0.540  0.00  0.00    +0.146 HD
ENDROOT
BRANCH   1   3
ATOM      3  C   UNL     1      -1.919  -8.791  -0.287  0.00  0.00    +0.058 A 
ATOM      4  C   UNL     1      -0.705  -9.456  -0.400  0.00  0.00    +0.027 A 
ATOM      5  C   UNL     1      -0.637 -10.813  -0.152  0.00  0.00    +0.030 A 
ATOM      6  C   UNL     1      -1.776 -11.509   0.209  0.00  0.00    +0.107 A 
ATOM      7  C   UNL     1      -2.986 -10.850   0.322  0.00  0.00    +0.063 A 
ATOM      8  C   UNL     1      -3.060  -9.492   0.081  0.00  0.00    +0.149 A 
BRANCH   8   9
ATOM      9  N   UNL     1      -4.355  -8.787   0.208  0.00  0.00    +0.058 N 
ATOM     10  O   UNL     1      -4.391  -7.668   0.665  0.00  0.00    -0.126 OA
ATOM     11  O   UNL     1      -5.377  -9.329  -0.144  0.00  0.00    -0.126 OA
ENDBRANCH   8   9
BRANCH   6  12
ATOM     12  S   UNL     1      -1.685 -13.240   0.524  0.00  0.00    +0.056 S 
ATOM     13  O   UNL     1      -2.990 -13.761   0.312  0.00  0.00    -0.153 OA
ATOM     14  O   UNL     1      -0.549 -13.722  -0.181  0.00  0.00    -0.153 OA
BRANCH  12  15
ATOM     15  N   UNL     1      -1.356 -13.428   2.136  0.00  0.00    -0.204 NA
ATOM     16  H   UNL     1      -1.254 -12.648   2.704  0.00  0.00    +0.144 HD
ATOM     17  H   UNL     1      -1.266 -14.317   2.513  0.00  0.00    +0.144 HD
ENDBRANCH  12  15
ENDBRANCH   6  12
ENDBRANCH   1   3
BRANCH   1  18
ATOM     18  C   UNL     1      -0.768  -6.655  -0.792  0.00  0.00    +0.101 C 
BRANCH  18  19
ATOM     19  C   UNL     1      -1.124  -5.187  -1.033  0.00  0.00    +0.020 C 
BRANCH  19  20
ATOM     20  C   UNL     1       0.155  -4.389  -1.300  0.00  0.00    +0.020 C 
BRANCH  20  21
ATOM     21  C   UNL     1      -0.201  -2.921  -1.541  0.00  0.00    +0.103 C 
BRANCH  21  28
ATOM     22  C   UNL     1      -0.344   1.203  -2.298  0.00  0.00    +0.005 A 
ATOM     23  C   UNL     1       0.844   1.884  -2.535  0.00  0.00    +0.018 A 
ATOM     24  C   UNL     1       2.036   1.190  -2.516  0.00  0.00    +0.084 A 
ATOM     25  N   UNL     1       2.061  -0.107  -2.275  0.00  0.00    -0.350 N 
ATOM     26  C   UNL     1       0.951  -0.792  -2.045  0.00  0.00    +0.096 A 
ATOM     27  C   UNL     1      -0.287  -0.156  -2.049  0.00  0.00    +0.041 A 
ATOM     28  N   UNL     1       1.023  -2.157  -1.797  0.00  0.00    -0.331 N 
ATOM     29  H   UNL     1       1.883  -2.605  -1.793  0.00  0.00    +0.147 HD
ATOM     30  H   UNL     1       2.913  -0.571  -2.268  0.00  0.00    +0.166 HD
ENDBRANCH  21  28
ENDBRANCH  20  21
ENDBRANCH  19  20
ENDBRANCH  18  19
ENDBRANCH   1  18
TORSDOF 9
