REMARK  Name = ZINC45356377
REMARK  10 active torsions:
REMARK  status: ('A' for Active; 'I' for Inactive)
REMARK    1  A    between atoms: C_1  and  C_2
REMARK    2  A    between atoms: C_5  and  N_9
REMARK    3  A    between atoms: C_10  and  C_12
REMARK    4  A    between atoms: C_12  and  N_13
REMARK    5  A    between atoms: N_13  and  C_14
REMARK    6  A    between atoms: N_13  and  C_15
REMARK    7  A    between atoms: C_15  and  C_17
REMARK    8  A    between atoms: C_15  and  C_18
REMARK    9  A    between atoms: C_21  and  S_24
REMARK   10  A    between atoms: S_24  and  N_27
REMARK                            x       y       z     vdW  Elec       q    Type
REMARK                         _______ _______ _______ _____ _____    ______ ____
ROOT
ATOM      1  N   UNL     1       0.417  -6.851   2.494  0.00  0.00    +0.388 N 
ATOM      2  C   UNL     1       1.664  -6.358   3.094  0.00  0.00    -0.095 C 
ATOM      3  H   UNL     1      -0.369  -6.524   3.034  0.00  0.00    -0.081 HD
ENDROOT
BRANCH   1   4
ATOM      4  C   UNL     1       0.426  -8.320   2.483  0.00  0.00    -0.041 C 
ATOM      5  C   UNL     1      -0.872  -8.834   1.858  0.00  0.00    -0.008 C 
BRANCH   4   6
ATOM      6  C   UNL     1       0.540  -8.832   3.896  0.00  0.00    -0.061 A 
ATOM      7  C   UNL     1      -0.161  -8.212   4.914  0.00  0.00    +0.004 A 
ATOM      8  C   UNL     1      -0.057  -8.681   6.210  0.00  0.00    +0.029 A 
ATOM      9  C   UNL     1       0.748  -9.770   6.488  0.00  0.00    +0.105 A 
ATOM     10  C   UNL     1       1.449 -10.390   5.471  0.00  0.00    +0.029 A 
ATOM     11  C   UNL     1       1.341  -9.924   4.174  0.00  0.00    +0.004 A 
BRANCH   9  12
ATOM     12  S   UNL     1       0.882 -10.367   8.141  0.00  0.00    +0.056 S 
ATOM     13  O   UNL     1       2.122 -11.056   8.224  0.00  0.00    -0.153 OA
ATOM     14  O   UNL     1       0.557  -9.279   8.994  0.00  0.00    -0.153 OA
BRANCH  12  15
ATOM     15  N   UNL     1      -0.305 -11.503   8.349  0.00  0.00    -0.204 NA
ATOM     16  H   UNL     1      -0.906 -11.716   7.617  0.00  0.00    +0.144 HD
ATOM     17  H   UNL     1      -0.400 -11.955   9.201  0.00  0.00    +0.144 HD
ENDBRANCH  12  15
ENDBRANCH   9  12
ENDBRANCH   4   6
ENDBRANCH   1   4
BRANCH   1  18
ATOM     18  C   UNL     1       0.306  -6.353   1.116  0.00  0.00    +0.019 C 
BRANCH  18  20
ATOM     19  N   UNL     1       0.057  -4.171  -0.023  0.00  0.00    -0.287 N 
ATOM     20  C   UNL     1       0.174  -4.852   1.134  0.00  0.00    +0.201 C 
ATOM     21  O   UNL     1       0.172  -4.256   2.191  0.00  0.00    -0.278 OA
ATOM     22  H   UNL     1      -0.009  -4.651  -0.863  0.00  0.00    +0.155 HD
BRANCH  19  27
ATOM     23  C   UNL     1      -0.048   1.502   0.013  0.00  0.00    +0.047 C 
ATOM     24  C   UNL     1      -0.020  -0.004   0.004  0.00  0.00    -0.015 A 
ATOM     25  C   UNL     1       0.592  -0.677  -1.038  0.00  0.00    +0.008 A 
ATOM     26  C   UNL     1       0.619  -2.058  -1.049  0.00  0.00    +0.024 A 
ATOM     27  C   UNL     1       0.031  -2.772  -0.013  0.00  0.00    +0.036 A 
ATOM     28  C   UNL     1      -0.582  -2.096   1.032  0.00  0.00    +0.062 A 
ATOM     29  C   UNL     1      -0.602  -0.713   1.042  0.00  0.00    +0.128 A 
ATOM     30  F   UNL     1      -1.194  -0.052   2.061  0.00  0.00    -0.205 F 
ENDBRANCH  19  27
ENDBRANCH  18  20
ENDBRANCH   1  18
TORSDOF 7
