REMARK  Name = ZINC33453838
REMARK  10 active torsions:
REMARK  status: ('A' for Active; 'I' for Inactive)
REMARK    1  A    between atoms: C_1  and  O_2
REMARK    2  A    between atoms: O_2  and  C_3
REMARK    3  A    between atoms: C_6  and  C_9
REMARK    4  A    between atoms: N_18  and  C_29
REMARK    5  A    between atoms: C_19  and  C_21
REMARK    6  A    between atoms: C_24  and  O_27
REMARK    7  A    between atoms: O_27  and  C_28
REMARK    8  A    between atoms: C_29  and  N_31
REMARK    9  A    between atoms: N_31  and  C_32
REMARK   10  A    between atoms: C_32  and  C_33
REMARK                            x       y       z     vdW  Elec       q    Type
REMARK                         _______ _______ _______ _____ _____    ______ ____
ROOT
ATOM      1  C   UNL     1       2.525  -0.285  -2.792  0.00  0.00    +0.013 C 
ATOM      2  C   UNL     1       1.869   0.178  -1.708  0.00  0.00    -0.024 C 
ATOM      3  C   UNL     1       1.065  -0.769  -0.869  0.00  0.00    +0.037 C 
ATOM      4  C   UNL     1       0.562  -0.175   0.431  0.00  0.00    +0.005 C 
ATOM      5  C   UNL     1       0.226   1.311   0.332  0.00  0.00    +0.012 C 
ATOM      6  C   UNL     1       1.508   2.072  -0.011  0.00  0.00    +0.066 C 
ATOM      7  C   UNL     1       1.949   1.551  -1.377  0.00  0.00    +0.068 C 
ATOM      8  N   UNL     1       2.371   2.551  -2.069  0.00  0.00    -0.182 NA
ATOM      9  N   UNL     1       2.094   3.793  -1.485  0.00  0.00    -0.196 N 
ATOM     10  C   UNL     1       1.224   3.555  -0.310  0.00  0.00    +0.139 C 
ENDROOT
BRANCH   1  14
ATOM     11  C   UNL     1       1.946  -4.288  -4.073  0.00  0.00    +0.120 A 
ATOM     12  C   UNL     1       0.857  -3.527  -3.667  0.00  0.00    +0.046 A 
ATOM     13  C   UNL     1       1.039  -2.227  -3.251  0.00  0.00    +0.011 A 
ATOM     14  C   UNL     1       2.324  -1.673  -3.236  0.00  0.00    -0.024 A 
ATOM     15  C   UNL     1       3.416  -2.442  -3.651  0.00  0.00    +0.011 A 
ATOM     16  C   UNL     1       3.224  -3.744  -4.061  0.00  0.00    +0.046 A 
BRANCH  11  18
ATOM     17  C   UNL     1       2.923  -6.296  -4.887  0.00  0.00    +0.277 C 
ATOM     18  O   UNL     1       1.760  -5.570  -4.484  0.00  0.00    -0.495 OA
ENDBRANCH  11  18
ENDBRANCH   1  14
BRANCH  10  19
ATOM     19  C   UNL     1       1.631   4.428   0.849  0.00  0.00    -0.024 A 
ATOM     20  C   UNL     1       2.970   4.659   1.102  0.00  0.00    +0.009 A 
ATOM     21  C   UNL     1       3.345   5.463   2.160  0.00  0.00    +0.046 A 
ATOM     22  C   UNL     1       2.377   6.029   2.977  0.00  0.00    +0.120 A 
ATOM     23  C   UNL     1       1.034   5.791   2.725  0.00  0.00    +0.046 A 
ATOM     24  C   UNL     1       0.664   4.990   1.662  0.00  0.00    +0.009 A 
BRANCH  22  25
ATOM     25  O   UNL     1       2.744   6.816   4.023  0.00  0.00    -0.495 OA
ATOM     26  C   UNL     1       4.145   7.019   4.223  0.00  0.00    +0.277 C 
ENDBRANCH  22  25
ENDBRANCH  10  19
BRANCH   9  27
ATOM     27  C   UNL     1       2.539   4.990  -1.914  0.00  0.00    +0.153 C 
ATOM     28  S   UNL     1       2.101   6.418  -1.076  0.00  0.00    -0.017 S 
BRANCH  27  29
ATOM     29  N   UNL     1       3.329   5.064  -3.004  0.00  0.00    -0.322 N 
ATOM     30  H   UNL     1       3.611   4.148  -3.542  0.00  0.00    +0.148 HD
BRANCH  29  31
ATOM     31  C   UNL     1       3.813   6.366  -3.471  0.00  0.00    +0.130 C 
BRANCH  31  32
ATOM     32  C   UNL     1       4.670   6.174  -4.695  0.00  0.00    -0.016 C 
ATOM     33  C   UNL     1       4.388   6.819  -5.800  0.00  0.00    +0.005 C 
ENDBRANCH  31  32
ENDBRANCH  29  31
ENDBRANCH  27  29
ENDBRANCH   9  27
TORSDOF 8
