REMARK  Name = ZINC05684823
REMARK  12 active torsions:
REMARK  status: ('A' for Active; 'I' for Inactive)
REMARK    1  A    between atoms: C_4  and  C_7
REMARK    2  A    between atoms: C_7  and  C_9
REMARK    3  A    between atoms: C_7  and  N_51
REMARK    4  A    between atoms: C_9  and  C_10
REMARK    5  A    between atoms: C_10  and  C_12
REMARK    6  A    between atoms: C_23  and  C_24
REMARK    7  A    between atoms: C_23  and  C_26
REMARK    8  A    between atoms: C_23  and  C_28
REMARK    9  A    between atoms: C_23  and  N_51
REMARK   10  A    between atoms: C_24  and  O_25
REMARK   11  A    between atoms: C_26  and  O_27
REMARK   12  A    between atoms: C_28  and  O_29
REMARK                            x       y       z     vdW  Elec       q    Type
REMARK                         _______ _______ _______ _____ _____    ______ ____
ROOT
ATOM      1  C   UNL     1       6.806   6.341  -0.143  0.00  0.00    -0.032 C 
ENDROOT
BRANCH   1   5
ATOM      2  C   UNL     1       8.567  10.231  -0.282  0.00  0.00    +0.000 A 
ATOM      3  C   UNL     1       8.597   9.418  -1.400  0.00  0.00    +0.000 A 
ATOM      4  C   UNL     1       8.027   8.160  -1.355  0.00  0.00    +0.002 A 
ATOM      5  C   UNL     1       7.428   7.713  -0.192  0.00  0.00    -0.061 A 
ATOM      6  C   UNL     1       7.393   8.528   0.924  0.00  0.00    +0.002 A 
ATOM      7  C   UNL     1       7.967   9.785   0.881  0.00  0.00    +0.000 A 
ENDBRANCH   1   5
BRANCH   1   8
ATOM      8  N   UNL     1       7.106   5.712   1.157  0.00  0.00    +0.392 N 
ATOM      9  H   UNL     1       6.359   5.048   1.392  0.00  0.00    -0.084 HD
ATOM     10  H   UNL     1       7.159   6.438   1.881  0.00  0.00    -0.084 HD
BRANCH   8  11
ATOM     11  C   UNL     1       8.393   4.993   1.093  0.00  0.00    +0.003 C 
BRANCH  11  12
ATOM     12  C   UNL     1       9.488   5.941   0.601  0.00  0.00    +0.148 C 
BRANCH  12  13
ATOM     13  O   UNL     1       9.607   7.042   1.504  0.00  0.00    -0.396 OA
ATOM     14  H   UNL     1      10.285   7.684   1.254  0.00  0.00    +0.209 HD
ENDBRANCH  12  13
ENDBRANCH  11  12
BRANCH  11  15
ATOM     15  C   UNL     1       8.751   4.481   2.490  0.00  0.00    +0.148 C 
BRANCH  15  16
ATOM     16  O   UNL     1       9.996   3.783   2.436  0.00  0.00    -0.396 OA
ATOM     17  H   UNL     1      10.286   3.429   3.288  0.00  0.00    +0.209 HD
ENDBRANCH  15  16
ENDBRANCH  11  15
BRANCH  11  18
ATOM     18  C   UNL     1       8.273   3.809   0.131  0.00  0.00    +0.148 C 
BRANCH  18  19
ATOM     19  O   UNL     1       7.301   2.888   0.629  0.00  0.00    -0.396 OA
ATOM     20  H   UNL     1       7.172   2.110   0.068  0.00  0.00    +0.209 HD
ENDBRANCH  18  19
ENDBRANCH  11  18
ENDBRANCH   8  11
ENDBRANCH   1   8
BRANCH   1  21
ATOM     21  C   UNL     1       5.290   6.462  -0.305  0.00  0.00    +0.069 C 
BRANCH  21  22
ATOM     22  C   UNL     1       4.686   5.086  -0.424  0.00  0.00    +0.169 C 
ATOM     23  O   UNL     1       5.399   4.105  -0.383  0.00  0.00    -0.292 OA
BRANCH  22  24
ATOM     24  C   UNL     1       3.239   4.933  -0.589  0.00  0.00    +0.102 A 
ATOM     25  C   UNL     1       2.411   6.046  -0.637  0.00  0.00    +0.030 A 
ATOM     26  C   UNL     1       1.018   5.850  -0.798  0.00  0.00    +0.018 A 
ATOM     27  C   UNL     1       0.151   6.954  -0.852  0.00  0.00    +0.011 A 
ATOM     28  C   UNL     1      -1.190   6.758  -1.007  0.00  0.00    +0.001 A 
ATOM     29  C   UNL     1      -1.706   5.474  -1.119  0.00  0.00    +0.004 A 
ATOM     30  C   UNL     1      -0.875   4.375  -1.064  0.00  0.00    +0.047 A 
ATOM     31  C   UNL     1       0.496   4.548  -0.906  0.00  0.00    +0.139 A 
ATOM     32  O   UNL     1       1.308   3.470  -0.858  0.00  0.00    -0.422 OA
ATOM     33  C   UNL     1       2.636   3.598  -0.707  0.00  0.00    +0.348 A 
ATOM     34  O   UNL     1       3.341   2.608  -0.667  0.00  0.00    -0.244 OA
ENDBRANCH  22  24
ENDBRANCH  21  22
ENDBRANCH   1  21
TORSDOF 12
