REMARK  Name = ZINC35679518
REMARK  8 active torsions:
REMARK  status: ('A' for Active; 'I' for Inactive)
REMARK    1  A    between atoms: C_1  and  O_2
REMARK    2  A    between atoms: O_2  and  C_3
REMARK    3  A    between atoms: C_6  and  N_10
REMARK    4  A    between atoms: N_10  and  S_11
REMARK    5  A    between atoms: S_11  and  C_14
REMARK    6  A    between atoms: C_17  and  C_19
REMARK    7  A    between atoms: C_19  and  C_20
REMARK    8  A    between atoms: C_20  and  N_21
REMARK                            x       y       z     vdW  Elec       q    Type
REMARK                         _______ _______ _______ _____ _____    ______ ____
ROOT
ATOM      1  S   UNL     1      -4.957  -4.234   0.032  0.00  0.00    +0.098 S 
ATOM      2  O   UNL     1      -4.433  -4.660  -1.218  0.00  0.00    -0.148 OA
ATOM      3  O   UNL     1      -4.414  -4.664   1.273  0.00  0.00    -0.148 OA
ENDROOT
BRANCH   1   4
ATOM      4  C   UNL     1      -6.660  -4.688   0.044  0.00  0.00    +0.148 A 
ATOM      5  C   UNL     1      -7.491  -4.912  -1.003  0.00  0.00    +0.037 A 
ATOM      6  C   UNL     1      -8.805  -5.262  -0.753  0.00  0.00    +0.013 A 
ATOM      7  C   UNL     1      -9.223  -5.371   0.532  0.00  0.00    -0.010 A 
ATOM      8  S   UNL     1      -7.736  -4.980   1.439  0.00  0.00    -0.073 S 
BRANCH   7   9
ATOM      9  C   UNL     1     -10.588  -5.735   1.058  0.00  0.00    +0.023 C 
BRANCH   9  10
ATOM     10  C   UNL     1     -10.677  -7.251   1.238  0.00  0.00    -0.081 C 
BRANCH  10  11
ATOM     11  N   UNL     1     -12.008  -7.606   1.751  0.00  0.00    +0.378 N 
ATOM     12  H   UNL     1     -12.067  -8.606   1.870  0.00  0.00    -0.090 HD
ATOM     13  H   UNL     1     -12.157  -7.152   2.640  0.00  0.00    -0.090 HD
ATOM     14  H   UNL     1     -12.713  -7.302   1.096  0.00  0.00    -0.090 HD
ENDBRANCH  10  11
ENDBRANCH   9  10
ENDBRANCH   7   9
ENDBRANCH   1   4
BRANCH   1  15
ATOM     15  N   UNL     1      -4.891  -2.580   0.034  0.00  0.00    -0.097 NA
BRANCH  15  19
ATOM     16  C   UNL     1      -1.202  -0.638   0.010  0.00  0.00    +0.155 A 
ATOM     17  C   UNL     1      -2.374   0.101   0.019  0.00  0.00    +0.050 A 
ATOM     18  C   UNL     1      -3.597  -0.541   0.027  0.00  0.00    +0.030 A 
ATOM     19  C   UNL     1      -3.653  -1.929   0.026  0.00  0.00    +0.077 A 
ATOM     20  C   UNL     1      -2.479  -2.670   0.016  0.00  0.00    +0.068 A 
ATOM     21  C   UNL     1      -1.255  -2.026   0.003  0.00  0.00    +0.167 A 
ATOM     22  F   UNL     1      -0.112  -2.746  -0.012  0.00  0.00    -0.202 F 
BRANCH  16  24
ATOM     23  C   UNL     1      -0.017   1.425   0.010  0.00  0.00    +0.277 C 
ATOM     24  O   UNL     1       0.002  -0.004   0.002  0.00  0.00    -0.492 OA
ENDBRANCH  16  24
ENDBRANCH  15  19
ENDBRANCH   1  15
TORSDOF 7
