REMARK  Name = ZINC39632085
REMARK  11 active torsions:
REMARK  status: ('A' for Active; 'I' for Inactive)
REMARK    1  A    between atoms: C_1  and  C_2
REMARK    2  A    between atoms: C_2  and  C_4
REMARK    3  A    between atoms: C_2  and  N_11
REMARK    4  A    between atoms: C_4  and  C_5
REMARK    5  A    between atoms: C_5  and  C_6
REMARK    6  A    between atoms: C_6  and  C_7
REMARK    7  A    between atoms: C_7  and  C_8
REMARK    8  A    between atoms: C_7  and  C_9
REMARK    9  A    between atoms: C_7  and  O_10
REMARK   10  A    between atoms: C_12  and  C_14
REMARK   11  A    between atoms: C_25  and  C_27
REMARK                            x       y       z     vdW  Elec       q    Type
REMARK                         _______ _______ _______ _____ _____    ______ ____
ROOT
ATOM      1  C   UNL     1      -3.465  -1.164  -1.139  0.00  0.00    +0.100 C 
ATOM      2  C   UNL     1      -3.488  -2.650  -0.716  0.00  0.00    +0.121 C 
ATOM      3  N   UNL     1      -4.544  -3.262  -1.557  0.00  0.00    -0.295 N 
ATOM      4  C   UNL     1      -4.377  -2.621  -2.883  0.00  0.00    +0.115 C 
ATOM      5  C   UNL     1      -4.048  -1.150  -2.562  0.00  0.00    -0.004 C 
ATOM      6  C   UNL     1      -3.017  -0.613  -3.551  0.00  0.00    -0.010 C 
ATOM      7  C   UNL     1      -3.640  -0.553  -4.948  0.00  0.00    -0.082 C 
ATOM      8  N   UNL     1      -4.822   0.317  -4.923  0.00  0.00    +0.379 N 
ATOM      9  C   UNL     1      -5.846  -0.257  -4.041  0.00  0.00    -0.082 C 
ATOM     10  C   UNL     1      -5.317  -0.304  -2.605  0.00  0.00    -0.010 C 
ATOM     11  C   UNL     1      -5.451  -4.192  -1.196  0.00  0.00    +0.265 C 
ATOM     12  O   UNL     1      -6.204  -4.659  -2.027  0.00  0.00    -0.268 OA
ATOM     13  H   UNL     1      -4.560   1.230  -4.582  0.00  0.00    -0.086 HD
ATOM     14  H   UNL     1      -5.195   0.403  -5.857  0.00  0.00    -0.086 HD
ENDROOT
BRANCH  11  15
ATOM     15  C   UNL     1      -5.530  -4.644   0.214  0.00  0.00    +0.126 A 
ATOM     16  C   UNL     1      -6.400  -5.691   0.550  0.00  0.00    +0.033 A 
ATOM     17  C   UNL     1      -6.481  -6.117   1.844  0.00  0.00    +0.012 A 
ATOM     18  C   UNL     1      -5.677  -5.479   2.807  0.00  0.00    +0.000 A 
ATOM     19  C   UNL     1      -5.710  -5.866   4.157  0.00  0.00    +0.010 A 
ATOM     20  C   UNL     1      -4.918  -5.226   5.060  0.00  0.00    +0.001 A 
ATOM     21  C   UNL     1      -4.072  -4.190   4.665  0.00  0.00    +0.002 A 
ATOM     22  C   UNL     1      -4.014  -3.788   3.367  0.00  0.00    +0.028 A 
ATOM     23  C   UNL     1      -4.818  -4.425   2.401  0.00  0.00    +0.072 A 
ATOM     24  N   UNL     1      -4.776  -4.055   1.122  0.00  0.00    -0.242 NA
ENDBRANCH  11  15
BRANCH   1  26
ATOM     25  N   UNL     1      -1.821   0.683  -1.069  0.00  0.00    -0.312 N 
ATOM     26  C   UNL     1      -2.051  -0.642  -1.147  0.00  0.00    +0.218 C 
ATOM     27  O   UNL     1      -1.120  -1.416  -1.222  0.00  0.00    -0.275 OA
ATOM     28  H   UNL     1      -2.566   1.302  -1.009  0.00  0.00    +0.149 HD
BRANCH  25  30
ATOM     29  C   UNL     1       0.034   1.340  -2.521  0.00  0.00    +0.028 C 
ATOM     30  C   UNL     1      -0.447   1.190  -1.076  0.00  0.00    +0.070 C 
BRANCH  30  31
ATOM     31  C   UNL     1      -0.402   2.552  -0.380  0.00  0.00    +0.022 C 
BRANCH  31  32
ATOM     32  C   UNL     1      -0.763   2.382   1.097  0.00  0.00    +0.005 C 
BRANCH  32  33
ATOM     33  C   UNL     1      -0.719   3.744   1.793  0.00  0.00    +0.034 C 
BRANCH  33  34
ATOM     34  C   UNL     1      -1.080   3.574   3.270  0.00  0.00    +0.061 C 
ATOM     35  C   UNL     1      -1.157   4.948   3.938  0.00  0.00    +0.041 C 
ATOM     36  C   UNL     1      -2.435   2.873   3.386  0.00  0.00    +0.041 C 
BRANCH  34  37
ATOM     37  O   UNL     1      -0.079   2.785   3.917  0.00  0.00    -0.389 OA
ATOM     38  H   UNL     1       0.808   3.169   3.883  0.00  0.00    +0.210 HD
ENDBRANCH  34  37
ENDBRANCH  33  34
ENDBRANCH  32  33
ENDBRANCH  31  32
ENDBRANCH  30  31
ENDBRANCH  25  30
ENDBRANCH   1  26
TORSDOF 8
