REMARK  Name = ZINC22784380
REMARK  10 active torsions:
REMARK  status: ('A' for Active; 'I' for Inactive)
REMARK    1  A    between atoms: C_1  and  C_2
REMARK    2  A    between atoms: C_2  and  N_3
REMARK    3  A    between atoms: N_6  and  C_9
REMARK    4  A    between atoms: C_9  and  C_11
REMARK    5  A    between atoms: C_9  and  C_16
REMARK    6  A    between atoms: C_16  and  C_18
REMARK    7  A    between atoms: C_16  and  N_19
REMARK    8  A    between atoms: N_19  and  C_20
REMARK    9  A    between atoms: C_20  and  N_22
REMARK   10  A    between atoms: N_22  and  C_23
REMARK                            x       y       z     vdW  Elec       q    Type
REMARK                         _______ _______ _______ _____ _____    ______ ____
ROOT
ATOM      1  C   UNL     1       3.041   7.457  -0.711  0.00  0.00    +0.113 C 
ENDROOT
BRANCH   1   5
ATOM      2  N   UNL     1       5.706  10.527   0.438  0.00  0.00    +0.381 N 
ATOM      3  C   UNL     1       5.217  10.523  -0.948  0.00  0.00    -0.063 C 
ATOM      4  C   UNL     1       3.941   9.683  -1.033  0.00  0.00    +0.066 C 
ATOM      5  N   UNL     1       4.225   8.316  -0.573  0.00  0.00    -0.297 NA
ATOM      6  C   UNL     1       4.714   8.321   0.813  0.00  0.00    +0.066 C 
ATOM      7  C   UNL     1       5.991   9.161   0.897  0.00  0.00    -0.063 C 
ATOM      8  H   UNL     1       4.913  10.942   1.077  0.00  0.00    -0.082 HD
BRANCH   2  10
ATOM      9  C   UNL     1       7.516  11.175   1.956  0.00  0.00    -0.017 C 
ATOM     10  C   UNL     1       6.890  11.386   0.575  0.00  0.00    -0.082 C 
ENDBRANCH   2  10
ENDBRANCH   1   5
BRANCH   1  11
ATOM     11  C   UNL     1       2.631   7.395  -2.159  0.00  0.00    +0.009 A 
ATOM     12  C   UNL     1       1.386   7.410  -2.696  0.00  0.00    +0.013 A 
ATOM     13  C   UNL     1       1.247   7.343  -4.069  0.00  0.00    +0.008 A 
ATOM     14  C   UNL     1       2.360   7.266  -4.840  0.00  0.00    +0.045 A 
ATOM     15  S   UNL     1       3.659   7.292  -3.615  0.00  0.00    -0.100 S 
ENDBRANCH   1  11
BRANCH   1  16
ATOM     16  C   UNL     1       3.373   6.049  -0.214  0.00  0.00    +0.091 C 
ATOM     17  C   UNL     1       2.159   5.139  -0.414  0.00  0.00    +0.030 C 
BRANCH  16  18
ATOM     18  N   UNL     1       4.510   5.519  -0.970  0.00  0.00    -0.322 N 
ATOM     19  H   UNL     1       4.723   5.897  -1.981  0.00  0.00    +0.148 HD
BRANCH  18  20
ATOM     20  C   UNL     1       5.296   4.568  -0.428  0.00  0.00    +0.135 C 
ATOM     21  S   UNL     1       4.966   3.979   1.145  0.00  0.00    -0.019 S 
BRANCH  20  22
ATOM     22  N   UNL     1       6.343   4.081  -1.124  0.00  0.00    -0.297 N 
ATOM     23  H   UNL     1       6.612   4.524  -2.094  0.00  0.00    +0.154 HD
BRANCH  22  24
ATOM     24  C   UNL     1       7.086   3.011  -0.612  0.00  0.00    +0.033 A 
ATOM     25  C   UNL     1       6.441   1.950   0.009  0.00  0.00    +0.024 A 
ATOM     26  C   UNL     1       7.177   0.896   0.513  0.00  0.00    +0.017 A 
ATOM     27  C   UNL     1       8.556   0.897   0.400  0.00  0.00    +0.018 A 
ATOM     28  C   UNL     1       9.201   1.953  -0.219  0.00  0.00    +0.017 A 
ATOM     29  C   UNL     1       8.470   3.009  -0.725  0.00  0.00    +0.024 A 
ATOM     30 BR   UNL     1       9.561  -0.548   1.092  0.00  0.00    -0.050 Br
ENDBRANCH  22  24
ENDBRANCH  20  22
ENDBRANCH  18  20
ENDBRANCH  16  18
ENDBRANCH   1  16
TORSDOF 8
