REMARK  Name = ZINC67497260
REMARK  7 active torsions:
REMARK  status: ('A' for Active; 'I' for Inactive)
REMARK    1  A    between atoms: C_1  and  C_2
REMARK    2  A    between atoms: C_9  and  N_12
REMARK    3  A    between atoms: C_13  and  C_15
REMARK    4  A    between atoms: N_17  and  C_18
REMARK    5  A    between atoms: C_18  and  C_19
REMARK    6  A    between atoms: N_25  and  C_26
REMARK    7  A    between atoms: N_25  and  C_27
REMARK                            x       y       z     vdW  Elec       q    Type
REMARK                         _______ _______ _______ _____ _____    ______ ____
ROOT
ATOM      1  N   UNL     1       0.046  -1.960   3.622  0.00  0.00    -0.276 N 
ATOM      2  C   UNL     1      -0.042  -2.620   4.794  0.00  0.00    +0.303 C 
ATOM      3  O   UNL     1      -0.024  -3.834   4.810  0.00  0.00    -0.265 OA
ATOM      4  H   UNL     1       0.113  -0.993   3.615  0.00  0.00    +0.155 HD
ENDROOT
BRANCH   1  13
ATOM      5  C   UNL     1       2.400   0.972   0.319  0.00  0.00    +0.065 C 
ATOM      6  C   UNL     1       1.763  -0.391   0.227  0.00  0.00    +0.039 A 
ATOM      7  C   UNL     1       1.776  -1.066  -0.992  0.00  0.00    +0.023 A 
ATOM      8  C   UNL     1       1.204  -2.302  -1.092  0.00  0.00    +0.012 A 
ATOM      9  C   UNL     1       0.612  -2.856   0.059  0.00  0.00    +0.002 A 
ATOM     10  C   UNL     1       0.005  -4.122   0.030  0.00  0.00    +0.010 A 
ATOM     11  C   UNL     1      -0.559  -4.631   1.160  0.00  0.00    +0.003 A 
ATOM     12  C   UNL     1      -0.546  -3.914   2.353  0.00  0.00    +0.025 A 
ATOM     13  C   UNL     1       0.040  -2.668   2.421  0.00  0.00    +0.060 A 
ATOM     14  C   UNL     1       0.633  -2.115   1.265  0.00  0.00    +0.092 A 
ATOM     15  N   UNL     1       1.214  -0.913   1.298  0.00  0.00    -0.250 NA
ENDBRANCH   1  13
BRANCH   2  16
ATOM     16  C   UNL     1      -0.160  -1.858   6.073  0.00  0.00    +0.300 C 
ATOM     17  O   UNL     1      -0.177  -0.645   6.057  0.00  0.00    -0.265 OA
ATOM     18  N   UNL     1      -0.247  -2.518   7.245  0.00  0.00    -0.303 N 
ATOM     19  H   UNL     1      -0.233  -3.488   7.258  0.00  0.00    +0.149 HD
BRANCH  18  20
ATOM     20  C   UNL     1      -0.362  -1.771   8.500  0.00  0.00    +0.141 C 
BRANCH  20  21
ATOM     21  C   UNL     1      -0.444  -2.736   9.654  0.00  0.00    -0.014 A 
ATOM     22  C   UNL     1      -1.675  -3.208  10.088  0.00  0.00    +0.010 A 
ATOM     23  C   UNL     1      -1.706  -4.093  11.151  0.00  0.00    +0.042 A 
ATOM     24  C   UNL     1      -0.508  -4.478  11.745  0.00  0.00    +0.098 A 
ATOM     25  N   UNL     1       0.647  -4.005  11.302  0.00  0.00    -0.349 N 
ATOM     26  C   UNL     1       0.706  -3.165  10.287  0.00  0.00    +0.089 A 
ATOM     27  N   UNL     1      -0.524  -5.366  12.814  0.00  0.00    -0.323 N 
ATOM     28  C   UNL     1      -1.785  -5.978  13.240  0.00  0.00    +0.130 C 
ATOM     29  C   UNL     1       0.721  -5.691  13.515  0.00  0.00    +0.130 C 
ATOM     30  H   UNL     1       1.469  -4.287  11.732  0.00  0.00    +0.167 HD
ENDBRANCH  20  21
ENDBRANCH  18  20
ENDBRANCH   2  16
TORSDOF 4
