REMARK  Name = ZINC66199434
REMARK  13 active torsions:
REMARK  status: ('A' for Active; 'I' for Inactive)
REMARK    1  A    between atoms: C_1  and  C_2
REMARK    2  A    between atoms: C_2  and  C_4
REMARK    3  A    between atoms: C_2  and  C_14
REMARK    4  A    between atoms: C_7  and  C_10
REMARK    5  A    between atoms: C_10  and  C_11
REMARK    6  A    between atoms: C_11  and  C_12
REMARK    7  A    between atoms: C_11  and  C_13
REMARK    8  A    between atoms: N_16  and  C_17
REMARK    9  A    between atoms: C_17  and  N_19
REMARK   10  A    between atoms: N_19  and  C_20
REMARK   11  A    between atoms: C_23  and  S_26
REMARK   12  A    between atoms: S_26  and  N_29
REMARK   13  A    between atoms: N_29  and  C_30
REMARK                            x       y       z     vdW  Elec       q    Type
REMARK                         _______ _______ _______ _____ _____    ______ ____
ROOT
ATOM      1  N   UNL     1       0.613   0.329   4.910  0.00  0.00    -0.297 N 
ATOM      2  H   UNL     1      -0.239   0.782   5.008  0.00  0.00    +0.154 HD
ENDROOT
BRANCH   1   3
ATOM      3  C   UNL     1       1.167  -0.361   5.994  0.00  0.00    +0.033 A 
ATOM      4  C   UNL     1       2.513  -0.210   6.301  0.00  0.00    +0.025 A 
ATOM      5  C   UNL     1       3.057  -0.892   7.371  0.00  0.00    +0.030 A 
ATOM      6  C   UNL     1       2.263  -1.725   8.137  0.00  0.00    +0.109 A 
ATOM      7  C   UNL     1       0.922  -1.878   7.835  0.00  0.00    +0.030 A 
ATOM      8  C   UNL     1       0.371  -1.194   6.769  0.00  0.00    +0.025 A 
BRANCH   6   9
ATOM      9  S   UNL     1       2.960  -2.594   9.502  0.00  0.00    +0.072 S 
ATOM     10  O   UNL     1       2.210  -3.793   9.647  0.00  0.00    -0.150 OA
ATOM     11  O   UNL     1       4.368  -2.595   9.306  0.00  0.00    -0.150 OA
BRANCH   9  12
ATOM     12  N   UNL     1       2.672  -1.689  10.858  0.00  0.00    -0.216 N 
ATOM     13  H   UNL     1       2.136  -2.054  11.580  0.00  0.00    +0.174 HD
BRANCH  12  14
ATOM     14  C   UNL     1       3.201  -0.400  10.963  0.00  0.00    +0.048 A 
ATOM     15  C   UNL     1       4.525  -0.161  10.618  0.00  0.00    +0.024 A 
ATOM     16  C   UNL     1       5.044   1.115  10.723  0.00  0.00    +0.002 A 
ATOM     17  C   UNL     1       4.247   2.153  11.170  0.00  0.00    +0.000 A 
ATOM     18  C   UNL     1       2.929   1.918  11.515  0.00  0.00    +0.002 A 
ATOM     19  C   UNL     1       2.402   0.646  11.407  0.00  0.00    +0.024 A 
ENDBRANCH  12  14
ENDBRANCH   9  12
ENDBRANCH   6   9
ENDBRANCH   1   3
BRANCH   1  20
ATOM     20  C   UNL     1       1.263   0.364   3.731  0.00  0.00    +0.141 C 
ATOM     21  S   UNL     1       2.817  -0.341   3.588  0.00  0.00    -0.018 S 
BRANCH  20  24
ATOM     22  C   UNL     1       1.341   0.989   1.483  0.00  0.00    +0.226 C 
ATOM     23  O   UNL     1       2.441   0.489   1.382  0.00  0.00    -0.275 OA
ATOM     24  N   UNL     1       0.691   0.954   2.663  0.00  0.00    -0.267 N 
ATOM     25  H   UNL     1      -0.190   1.353   2.743  0.00  0.00    +0.157 HD
BRANCH  22  27
ATOM     26  C   UNL     1       0.428   3.120   0.604  0.00  0.00    +0.022 C 
ATOM     27  C   UNL     1       0.701   1.648   0.289  0.00  0.00    +0.102 C 
BRANCH  27  28
ATOM     28  C   UNL     1       1.627   1.552  -0.896  0.00  0.00    -0.036 A 
ATOM     29  C   UNL     1       2.889   2.114  -0.834  0.00  0.00    +0.004 A 
ATOM     30  C   UNL     1       3.739   2.026  -1.921  0.00  0.00    +0.004 A 
ATOM     31  C   UNL     1       3.328   1.374  -3.068  0.00  0.00    -0.047 A 
ATOM     32  C   UNL     1       2.067   0.811  -3.130  0.00  0.00    +0.004 A 
ATOM     33  C   UNL     1       1.218   0.896  -2.042  0.00  0.00    +0.004 A 
BRANCH  31  34
ATOM     34  C   UNL     1       4.254   1.279  -4.253  0.00  0.00    +0.038 C 
BRANCH  34  35
ATOM     35  C   UNL     1       5.097   0.007  -4.140  0.00  0.00    -0.013 C 
ATOM     36  C   UNL     1       4.186  -1.219  -4.239  0.00  0.00    +0.007 C 
ATOM     37  C   UNL     1       6.123  -0.028  -5.275  0.00  0.00    +0.007 C 
ENDBRANCH  34  35
ENDBRANCH  31  34
ENDBRANCH  27  28
ENDBRANCH  22  27
ENDBRANCH  20  24
ENDBRANCH   1  20
TORSDOF 10
