REMARK  Name = ZINC03377684
REMARK  10 active torsions:
REMARK  status: ('A' for Active; 'I' for Inactive)
REMARK    1  A    between atoms: C_1  and  C_2
REMARK    2  A    between atoms: C_2  and  O_3
REMARK    3  A    between atoms: O_3  and  C_4
REMARK    4  A    between atoms: C_4  and  C_6
REMARK    5  A    between atoms: C_10  and  N_11
REMARK    6  A    between atoms: C_12  and  C_14
REMARK    7  A    between atoms: C_14  and  C_16
REMARK    8  A    between atoms: C_14  and  N_64
REMARK    9  A    between atoms: C_17  and  N_64
REMARK   10  A    between atoms: C_26  and  C_30
REMARK                            x       y       z     vdW  Elec       q    Type
REMARK                         _______ _______ _______ _____ _____    ______ ____
ROOT
ATOM      1  N   UNL     1       4.622   0.719  -4.035  0.00  0.00    -0.281 N 
ATOM      2  C   UNL     1       5.936   0.967  -3.867  0.00  0.00    +0.203 C 
ATOM      3  O   UNL     1       6.383   1.147  -2.754  0.00  0.00    -0.277 OA
ATOM      4  H   UNL     1       4.265   0.575  -4.925  0.00  0.00    +0.155 HD
ENDROOT
BRANCH   1   9
ATOM      5  C   UNL     1       2.413   0.431  -2.904  0.00  0.00    +0.091 A 
ATOM      6  C   UNL     1       1.760   0.434  -1.606  0.00  0.00    -0.021 A 
ATOM      7  C   UNL     1       2.572   0.674  -0.554  0.00  0.00    -0.004 A 
ATOM      8  S   UNL     1       4.179   0.893  -1.263  0.00  0.00    -0.077 S 
ATOM      9  C   UNL     1       3.780   0.670  -2.934  0.00  0.00    +0.086 A 
ATOM     10  C   UNL     1       2.184   0.737   0.891  0.00  0.00    +0.046 C 
ATOM     11  C   UNL     1       0.786   0.118   1.044  0.00  0.00    -0.009 C 
ATOM     12  C   UNL     1      -0.135   0.711  -0.026  0.00  0.00    +0.008 C 
ATOM     13  C   UNL     1       0.269   0.190  -1.407  0.00  0.00    +0.037 C 
ATOM     14  C   UNL     1       0.234   0.437   2.435  0.00  0.00    +0.008 C 
BRANCH   5  15
ATOM     15  C   UNL     1       1.657   0.185  -4.134  0.00  0.00    +0.342 C 
ATOM     16  O   UNL     1       1.526  -0.950  -4.550  0.00  0.00    -0.245 OA
BRANCH  15  17
ATOM     17  O   UNL     1       1.106   1.217  -4.805  0.00  0.00    -0.461 OA
BRANCH  17  19
ATOM     18  C   UNL     1      -0.176   2.187  -6.634  0.00  0.00    +0.048 C 
ATOM     19  C   UNL     1       0.371   0.899  -6.016  0.00  0.00    +0.229 C 
ENDBRANCH  17  19
ENDBRANCH  15  17
ENDBRANCH   5  15
ENDBRANCH   1   9
BRANCH   2  20
ATOM     20  C   UNL     1       6.852   1.020  -5.063  0.00  0.00    +0.014 C 
ATOM     21  C   UNL     1       6.819  -0.326  -5.791  0.00  0.00    -0.004 C 
BRANCH  20  22
ATOM     22  N   UNL     1       8.230   1.295  -4.616  0.00  0.00    +0.388 N 
ATOM     23  H   UNL     1       8.891   0.910  -5.301  0.00  0.00    -0.084 HD
ATOM     24  H   UNL     1       8.385   0.852  -3.704  0.00  0.00    -0.084 HD
BRANCH  22  25
ATOM     25  C   UNL     1       8.448   2.749  -4.494  0.00  0.00    -0.071 C 
ATOM     26  C   UNL     1       8.876   3.317  -5.849  0.00  0.00    -0.016 C 
ATOM     27  C   UNL     1       8.727   4.840  -5.834  0.00  0.00    -0.002 C 
ATOM     28  C   UNL     1       7.394   5.216  -5.185  0.00  0.00    -0.000 C 
ATOM     29  C   UNL     1       7.657   5.932  -3.858  0.00  0.00    -0.000 C 
ATOM     30  C   UNL     1       8.067   4.906  -2.799  0.00  0.00    -0.000 C 
ATOM     31  C   UNL     1       9.515   4.477  -3.039  0.00  0.00    -0.002 C 
ATOM     32  C   UNL     1       9.549   3.007  -3.463  0.00  0.00    -0.016 C 
ENDBRANCH  22  25
ENDBRANCH  20  22
ENDBRANCH   2  20
TORSDOF 7
