REMARK  Name = ZINC63214614
REMARK  5 active torsions:
REMARK  status: ('A' for Active; 'I' for Inactive)
REMARK    1  A    between atoms: C_1  and  C_2
REMARK    2  A    between atoms: C_5  and  C_19
REMARK    3  A    between atoms: C_6  and  N_8
REMARK    4  A    between atoms: N_8  and  C_9
REMARK    5  A    between atoms: C_16  and  N_18
REMARK                            x       y       z     vdW  Elec       q    Type
REMARK                         _______ _______ _______ _____ _____    ______ ____
ROOT
ATOM      1  C   UNL     1       0.281  -1.811   3.673  0.00  0.00    +0.057 C 
ATOM      2  C   UNL     1      -1.140  -1.238   3.830  0.00  0.00    +0.020 C 
ATOM      3  C   UNL     1      -1.536  -1.016   5.302  0.00  0.00    +0.002 C 
ATOM      4  C   UNL     1      -0.414  -0.429   6.117  0.00  0.00    +0.000 C 
ATOM      5  C   UNL     1       0.353  -1.582   6.796  0.00  0.00    -0.002 C 
ATOM      6  C   UNL     1       1.290  -2.233   5.891  0.00  0.00    -0.014 C 
ATOM      7  C   UNL     1       0.583  -2.884   4.684  0.00  0.00    -0.055 C 
ENDROOT
BRANCH   7   8
ATOM      8  N   UNL     1       1.464  -3.895   4.083  0.00  0.00    +0.381 N 
ATOM      9  H   UNL     1       2.274  -3.442   3.687  0.00  0.00    -0.090 HD
ATOM     10  H   UNL     1       1.757  -4.550   4.792  0.00  0.00    -0.090 HD
ATOM     11  H   UNL     1       0.965  -4.386   3.356  0.00  0.00    -0.090 HD
ENDBRANCH   7   8
BRANCH   1  12
ATOM     12  N   UNL     1       0.419  -2.374   2.328  0.00  0.00    -0.326 N 
ATOM     13  H   UNL     1       0.218  -3.310   2.171  0.00  0.00    +0.148 HD
BRANCH  12  19
ATOM     14  C   UNL     1       1.827   1.930   0.725  0.00  0.00    +0.067 C 
ATOM     15  C   UNL     1       1.514   0.476   0.485  0.00  0.00    +0.058 A 
ATOM     16  C   UNL     1       1.643  -0.058  -0.783  0.00  0.00    +0.134 A 
ATOM     17  N   UNL     1       1.369  -1.333  -0.999  0.00  0.00    -0.255 NA
ATOM     18  C   UNL     1       0.971  -2.102  -0.004  0.00  0.00    +0.078 A 
ATOM     19  C   UNL     1       0.839  -1.568   1.276  0.00  0.00    +0.140 A 
ATOM     20  N   UNL     1       1.120  -0.289   1.489  0.00  0.00    -0.234 NA
ATOM     21  C   UNL     1       0.658  -3.555  -0.251  0.00  0.00    +0.069 C 
ENDBRANCH  12  19
ENDBRANCH   1  12
TORSDOF 3
