REMARK  Name = ZINC05019892
REMARK  7 active torsions:
REMARK  status: ('A' for Active; 'I' for Inactive)
REMARK    1  A    between atoms: C_1  and  C_2
REMARK    2  A    between atoms: C_2  and  N_3
REMARK    3  A    between atoms: N_3  and  N_4
REMARK    4  A    between atoms: C_5  and  C_7
REMARK    5  A    between atoms: N_9  and  C_10
REMARK    6  A    between atoms: C_16  and  C_17
REMARK    7  A    between atoms: N_19  and  C_20
REMARK                            x       y       z     vdW  Elec       q    Type
REMARK                         _______ _______ _______ _____ _____    ______ ____
ROOT
ATOM      1  C   UNL     1      -1.157  -0.581   0.400  0.00  0.00    +0.062 C 
ATOM      2  C   UNL     1      -0.059   0.022  -0.438  0.00  0.00    +0.024 C 
ATOM      3  C   UNL     1       0.135   1.516  -0.463  0.00  0.00    +0.087 C 
ENDROOT
BRANCH   3   4
ATOM      4  C   UNL     1      -0.889   2.171   0.427  0.00  0.00    +0.243 C 
ATOM      5  O   UNL     1      -1.698   1.492   1.023  0.00  0.00    -0.270 OA
ATOM      6  N   UNL     1      -0.907   3.512   0.561  0.00  0.00    -0.282 N 
ATOM      7  H   UNL     1      -0.110   4.121   0.109  0.00  0.00    +0.155 HD
BRANCH   6   8
ATOM      8  C   UNL     1      -1.940   4.131   1.275  0.00  0.00    +0.037 A 
ATOM      9  C   UNL     1      -2.385   3.574   2.463  0.00  0.00    +0.023 A 
ATOM     10  C   UNL     1      -3.405   4.186   3.166  0.00  0.00    +0.002 A 
ATOM     11  C   UNL     1      -3.975   5.344   2.679  0.00  0.00    +0.004 A 
ATOM     12  C   UNL     1      -3.533   5.906   1.487  0.00  0.00    -0.042 A 
ATOM     13  C   UNL     1      -2.511   5.307   0.789  0.00  0.00    -0.023 A 
ATOM     14  C   UNL     1      -1.976   5.864  -0.504  0.00  0.00    +0.037 C 
ATOM     15  C   UNL     1      -2.963   6.860  -1.111  0.00  0.00    +0.005 C 
ATOM     16  C   UNL     1      -3.350   7.877  -0.031  0.00  0.00    +0.005 C 
ATOM     17  C   UNL     1      -4.208   7.167   1.014  0.00  0.00    +0.035 C 
ENDBRANCH   6   8
ENDBRANCH   3   4
BRANCH   2  18
ATOM     18  N   UNL     1       0.708  -0.735  -1.129  0.00  0.00    -0.268 N 
ATOM     19  H   UNL     1       0.546  -1.823  -1.135  0.00  0.00    +0.170 HD
BRANCH  18  20
ATOM     20  N   UNL     1       1.754  -0.177  -1.876  0.00  0.00    -0.229 N 
ATOM     21  C   UNL     1       2.553  -0.973  -2.614  0.00  0.00    +0.315 C 
ATOM     22  O   UNL     1       2.366  -2.172  -2.632  0.00  0.00    -0.264 OA
ATOM     23  H   UNL     1       1.923   0.909  -1.860  0.00  0.00    +0.173 HD
BRANCH  21  24
ATOM     24  C   UNL     1       3.668  -0.379  -3.410  0.00  0.00    +0.301 C 
ATOM     25  O   UNL     1       3.854   0.820  -3.393  0.00  0.00    -0.265 OA
ATOM     26  N   UNL     1       4.467  -1.175  -4.149  0.00  0.00    -0.305 N 
ATOM     27  H   UNL     1       4.297  -2.261  -4.165  0.00  0.00    +0.149 HD
BRANCH  26  28
ATOM     28  C   UNL     1       5.560  -0.592  -4.930  0.00  0.00    +0.073 C 
ATOM     29  C   UNL     1       5.025  -0.120  -6.284  0.00  0.00    +0.022 C 
ATOM     30  C   UNL     1       6.168   0.488  -7.100  0.00  0.00    +0.002 C 
ATOM     31  C   UNL     1       7.255  -0.566  -7.320  0.00  0.00    +0.000 C 
ATOM     32  C   UNL     1       7.790  -1.037  -5.967  0.00  0.00    +0.002 C 
ATOM     33  C   UNL     1       6.647  -1.646  -5.151  0.00  0.00    +0.022 C 
ENDBRANCH  26  28
ENDBRANCH  21  24
ENDBRANCH  18  20
ENDBRANCH   2  18
TORSDOF 6
