REMARK  Name = ZINC29112892
REMARK  8 active torsions:
REMARK  status: ('A' for Active; 'I' for Inactive)
REMARK    1  A    between atoms: C_1  and  C_2
REMARK    2  A    between atoms: C_2  and  C_3
REMARK    3  A    between atoms: C_2  and  C_4
REMARK    4  A    between atoms: C_4  and  C_6
REMARK    5  A    between atoms: C_4  and  N_11
REMARK    6  A    between atoms: N_11  and  C_12
REMARK    7  A    between atoms: C_12  and  C_13
REMARK    8  A    between atoms: C_17  and  C_26
REMARK                            x       y       z     vdW  Elec       q    Type
REMARK                         _______ _______ _______ _____ _____    ______ ____
ROOT
ATOM      1  C   UNL     1      -1.114  -0.717  -0.252  0.00  0.00    +0.203 C 
ATOM      2  O   UNL     1      -1.055  -1.925  -0.346  0.00  0.00    -0.277 OA
ATOM      3  N   UNL     1      -0.001  -0.006   0.019  0.00  0.00    -0.266 N 
ATOM      4  C   UNL     1      -0.026   1.466   0.051  0.00  0.00    +0.168 C 
ATOM      5  C   UNL     1       0.812   1.918   1.256  0.00  0.00    +0.276 C 
ATOM      6  O   UNL     1       2.138   1.403   1.114  0.00  0.00    -0.476 OA
ATOM      7  C   UNL     1       2.277   0.081   0.831  0.00  0.00    +0.143 A 
ATOM      8  C   UNL     1       1.223  -0.645   0.281  0.00  0.00    +0.078 A 
ATOM      9  C   UNL     1       1.379  -1.992  -0.002  0.00  0.00    +0.027 A 
ATOM     10  C   UNL     1       2.586  -2.616   0.257  0.00  0.00    +0.002 A 
ATOM     11  C   UNL     1       3.632  -1.898   0.805  0.00  0.00    +0.004 A 
ATOM     12  C   UNL     1       3.482  -0.554   1.092  0.00  0.00    +0.047 A 
ENDROOT
BRANCH   5  13
ATOM     13  C   UNL     1       0.858   3.424   1.303  0.00  0.00    +0.253 C 
ATOM     14  O   UNL     1       1.911   4.004   1.145  0.00  0.00    -0.272 OA
ATOM     15  N   UNL     1      -0.272   4.125   1.521  0.00  0.00    -0.326 N 
ATOM     16  H   UNL     1      -0.239   5.224   1.555  0.00  0.00    +0.145 HD
ATOM     17  H   UNL     1      -1.227   3.599   1.664  0.00  0.00    +0.145 HD
ENDBRANCH   5  13
BRANCH   1  18
ATOM     18  C   UNL     1      -2.432  -0.010  -0.436  0.00  0.00    +0.016 C 
BRANCH  18  19
ATOM     19  N   UNL     1      -3.502  -1.004  -0.602  0.00  0.00    +0.390 N 
ATOM     20  H   UNL     1      -3.594  -1.581   0.331  0.00  0.00    -0.084 HD
ATOM     21  H   UNL     1      -3.231  -1.680  -1.426  0.00  0.00    -0.084 HD
BRANCH  19  22
ATOM     22  C   UNL     1      -4.783  -0.353  -0.903  0.00  0.00    -0.031 C 
BRANCH  22  23
ATOM     23  C   UNL     1      -5.505  -0.045   0.383  0.00  0.00    -0.024 A 
ATOM     24  C   UNL     1      -6.223   1.056   0.717  0.00  0.00    +0.009 A 
ATOM     25  C   UNL     1      -6.805   1.122   1.969  0.00  0.00    +0.008 A 
ATOM     26  C   UNL     1      -6.642   0.084   2.826  0.00  0.00    +0.045 A 
ATOM     27  S   UNL     1      -5.645  -1.039   1.860  0.00  0.00    -0.103 S 
ENDBRANCH  22  23
BRANCH  22  29
ATOM     28  C   UNL     1      -6.924  -0.565  -2.174  0.00  0.00    +0.006 C 
ATOM     29  C   UNL     1      -5.641  -1.288  -1.758  0.00  0.00    -0.027 C 
ATOM     30  C   UNL     1      -4.859  -1.698  -3.008  0.00  0.00    +0.006 C 
ENDBRANCH  22  29
ENDBRANCH  19  22
ENDBRANCH  18  19
ENDBRANCH   1  18
TORSDOF 6
