REMARK  Name = ZINC39683875
REMARK  7 active torsions:
REMARK  status: ('A' for Active; 'I' for Inactive)
REMARK    1  A    between atoms: C_1  and  C_2
REMARK    2  A    between atoms: C_2  and  C_3
REMARK    3  A    between atoms: C_7  and  C_16
REMARK    4  A    between atoms: N_18  and  C_19
REMARK    5  A    between atoms: C_19  and  C_21
REMARK    6  A    between atoms: C_19  and  C_22
REMARK    7  A    between atoms: N_24  and  C_25
REMARK                            x       y       z     vdW  Elec       q    Type
REMARK                         _______ _______ _______ _____ _____    ______ ____
ROOT
ATOM      1  C   UNL     1       0.816  -0.507  -1.359  0.00  0.00    +0.215 C 
ATOM      2  O   UNL     1       1.221   0.267  -2.201  0.00  0.00    -0.276 OA
ATOM      3  N   UNL     1       0.907  -1.836  -1.567  0.00  0.00    -0.300 N 
ATOM      4  C   UNL     1       0.466  -2.928  -0.668  0.00  0.00    +0.121 C 
ATOM      5  C   UNL     1      -0.137  -3.992  -1.612  0.00  0.00    +0.100 C 
ATOM      6  C   UNL     1       0.528  -3.729  -2.974  0.00  0.00    -0.004 C 
ATOM      7  C   UNL     1       1.466  -2.534  -2.749  0.00  0.00    +0.115 C 
ATOM      8  C   UNL     1      -0.527  -3.375  -4.018  0.00  0.00    -0.010 C 
ATOM      9  C   UNL     1       0.152  -3.175  -5.376  0.00  0.00    -0.082 C 
ATOM     10  N   UNL     1       0.856  -4.405  -5.759  0.00  0.00    +0.379 N 
ATOM     11  C   UNL     1       1.930  -4.688  -4.799  0.00  0.00    -0.082 C 
ATOM     12  C   UNL     1       1.326  -4.952  -3.417  0.00  0.00    -0.010 C 
ATOM     13  H   UNL     1       0.203  -5.175  -5.768  0.00  0.00    -0.086 HD
ATOM     14  H   UNL     1       1.251  -4.292  -6.680  0.00  0.00    -0.086 HD
ENDROOT
BRANCH   5  15
ATOM     15  C   UNL     1       0.195  -5.377  -1.122  0.00  0.00    +0.219 C 
ATOM     16  O   UNL     1       1.227  -5.576  -0.517  0.00  0.00    -0.275 OA
ATOM     17  N   UNL     1      -0.656  -6.396  -1.355  0.00  0.00    -0.304 N 
ATOM     18  H   UNL     1      -1.482  -6.238  -1.839  0.00  0.00    +0.149 HD
BRANCH  17  19
ATOM     19  C   UNL     1      -0.334  -7.744  -0.878  0.00  0.00    +0.156 C 
ATOM     20  C   UNL     1      -0.786  -7.892   0.576  0.00  0.00    +0.038 C 
BRANCH  19  21
ATOM     21  C   UNL     1      -1.044  -8.762  -1.732  0.00  0.00    +0.233 C 
ATOM     22  O   UNL     1      -1.751  -8.398  -2.648  0.00  0.00    -0.274 OA
ATOM     23  N   UNL     1      -0.895 -10.077  -1.477  0.00  0.00    -0.317 N 
ATOM     24  C   UNL     1      -1.586 -11.067  -2.307  0.00  0.00    +0.128 C 
ATOM     25  H   UNL     1      -0.330 -10.368  -0.744  0.00  0.00    +0.148 HD
ENDBRANCH  19  21
ENDBRANCH  17  19
ENDBRANCH   5  15
BRANCH   1  27
ATOM     26  C   UNL     1       0.228   1.546  -0.099  0.00  0.00    +0.013 C 
ATOM     27  C   UNL     1       0.211   0.016  -0.082  0.00  0.00    +0.092 C 
ENDBRANCH   1  27
TORSDOF 4
