REMARK  Name = ZINC20617660
REMARK  12 active torsions:
REMARK  status: ('A' for Active; 'I' for Inactive)
REMARK    1  A    between atoms: C_1  and  C_2
REMARK    2  A    between atoms: C_6  and  C_17
REMARK    3  A    between atoms: N_8  and  C_9
REMARK    4  A    between atoms: N_19  and  C_20
REMARK    5  A    between atoms: C_23  and  O_28
REMARK    6  A    between atoms: C_25  and  O_26
REMARK    7  A    between atoms: O_26  and  C_27
REMARK    8  A    between atoms: O_28  and  C_29
REMARK    9  A    between atoms: C_30  and  C_33
REMARK   10  A    between atoms: C_33  and  O_34
REMARK   11  A    between atoms: O_34  and  C_35
REMARK   12  A    between atoms: C_35  and  C_37
REMARK                            x       y       z     vdW  Elec       q    Type
REMARK                         _______ _______ _______ _____ _____    ______ ____
ROOT
ATOM      1  C   UNL     1      -6.038   7.515   1.125  0.00  0.00    +0.069 C 
ATOM      2  C   UNL     1      -4.779   8.293   0.840  0.00  0.00    +0.081 A 
ATOM      3  C   UNL     1      -3.565   7.629   0.736  0.00  0.00    +0.159 A 
ATOM      4  C   UNL     1      -2.404   8.377   0.466  0.00  0.00    +0.028 A 
ATOM      5  C   UNL     1      -1.114   7.694   0.352  0.00  0.00    +0.030 A 
ATOM      6  C   UNL     1      -1.134   6.321   0.239  0.00  0.00    +0.098 A 
ATOM      7  C   UNL     1      -2.455   5.661   0.251  0.00  0.00    +0.212 A 
ATOM      8  N   UNL     1      -2.635   4.499  -0.338  0.00  0.00    -0.325 N 
ATOM      9  O   UNL     1      -3.479   6.286   0.888  0.00  0.00    -0.437 OA
ATOM     10  C   UNL     1      -2.520   9.764   0.317  0.00  0.00    +0.018 A 
ATOM     11  C   UNL     1      -3.769  10.336   0.439  0.00  0.00    +0.118 A 
ATOM     12  N   UNL     1      -4.837   9.601   0.690  0.00  0.00    -0.256 NA
ATOM     13  H   UNL     1      -1.779   3.967  -0.777  0.00  0.00    +0.169 HD
ENDROOT
BRANCH   8  14
ATOM     14  C   UNL     1      -3.888   3.953  -0.405  0.00  0.00    +0.042 A 
ATOM     15  C   UNL     1      -4.300   3.025   0.554  0.00  0.00    +0.027 A 
ATOM     16  C   UNL     1      -5.566   2.483   0.484  0.00  0.00    +0.022 A 
ATOM     17  C   UNL     1      -6.424   2.847  -0.540  0.00  0.00    +0.041 A 
ATOM     18  C   UNL     1      -6.019   3.762  -1.498  0.00  0.00    +0.022 A 
ATOM     19  C   UNL     1      -4.757   4.317  -1.436  0.00  0.00    +0.027 A 
ATOM     20 CL   UNL     1      -8.013   2.155  -0.625  0.00  0.00    -0.084 Cl
ENDBRANCH   8  14
BRANCH   6  21
ATOM     21  C   UNL     1       0.112   5.542   0.117  0.00  0.00    +0.253 C 
ATOM     22  O   UNL     1       1.186   6.112   0.109  0.00  0.00    -0.270 OA
ATOM     23  N   UNL     1       0.060   4.199   0.014  0.00  0.00    -0.278 N 
ATOM     24  H   UNL     1      -0.913   3.690  -0.053  0.00  0.00    +0.155 HD
BRANCH  23  25
ATOM     25  C   UNL     1       1.246   3.452  -0.009  0.00  0.00    +0.076 A 
ATOM     26  C   UNL     1       2.378   3.965  -0.623  0.00  0.00    +0.030 A 
ATOM     27  C   UNL     1       3.546   3.226  -0.651  0.00  0.00    +0.047 A 
ATOM     28  C   UNL     1       3.589   1.972  -0.059  0.00  0.00    +0.124 A 
ATOM     29  C   UNL     1       2.460   1.456   0.561  0.00  0.00    +0.093 A 
ATOM     30  C   UNL     1       1.289   2.195   0.590  0.00  0.00    +0.145 A 
BRANCH  30  31
ATOM     31  O   UNL     1       0.181   1.691   1.196  0.00  0.00    -0.493 OA
ATOM     32  C   UNL     1       0.297   0.394   1.784  0.00  0.00    +0.277 C 
ENDBRANCH  30  31
BRANCH  28  33
ATOM     33  O   UNL     1       4.739   1.247  -0.087  0.00  0.00    -0.495 OA
ATOM     34  C   UNL     1       5.863   1.839  -0.743  0.00  0.00    +0.277 C 
ENDBRANCH  28  33
ENDBRANCH  23  25
ENDBRANCH   6  21
BRANCH  10  35
ATOM     35  C   UNL     1      -1.308  10.613   0.030  0.00  0.00    +0.269 C 
BRANCH  35  36
ATOM     36  O   UNL     1      -1.706  12.005  -0.077  0.00  0.00    -0.460 OA
BRANCH  36  37
ATOM     37  C   UNL     1      -0.737  12.898  -0.332  0.00  0.00    +0.304 C 
ATOM     38  O   UNL     1       0.406  12.529  -0.463  0.00  0.00    -0.251 OA
ATOM     39  C   UNL     1      -1.075  14.361  -0.457  0.00  0.00    +0.136 C 
ENDBRANCH  36  37
ENDBRANCH  35  36
ENDBRANCH  10  35
TORSDOF 8
