REMARK  Name = ZINC67031044
REMARK  3 active torsions:
REMARK  status: ('A' for Active; 'I' for Inactive)
REMARK    1  A    between atoms: C_4  and  N_10
REMARK    2  A    between atoms: C_5  and  C_7
REMARK    3  A    between atoms: C_11  and  C_13
REMARK                            x       y       z     vdW  Elec       q    Type
REMARK                         _______ _______ _______ _____ _____    ______ ____
ROOT
ATOM      1  N   UNL     1       3.500  -0.530  -0.056  0.00  0.00    -0.281 N 
ATOM      2  C   UNL     1       4.611   0.218  -0.205  0.00  0.00    +0.252 C 
ATOM      3  O   UNL     1       4.530   1.431  -0.222  0.00  0.00    -0.270 OA
ATOM      4  H   UNL     1       3.572  -1.493   0.039  0.00  0.00    +0.155 HD
ENDROOT
BRANCH   2   5
ATOM      5  C   UNL     1       5.926  -0.436  -0.347  0.00  0.00    +0.082 A 
ATOM      6  C   UNL     1       6.022  -1.830  -0.333  0.00  0.00    +0.017 A 
ATOM      7  C   UNL     1       7.252  -2.436  -0.466  0.00  0.00    +0.005 A 
ATOM      8  C   UNL     1       8.396  -1.670  -0.612  0.00  0.00    +0.049 A 
ATOM      9  C   UNL     1       8.318  -0.287  -0.626  0.00  0.00    +0.163 A 
ATOM     10  C   UNL     1       7.083   0.339  -0.501  0.00  0.00    +0.174 A 
ATOM     11  O   UNL     1       6.982   1.693  -0.525  0.00  0.00    -0.484 OA
ATOM     12  C   UNL     1       8.188   2.433  -0.306  0.00  0.00    +0.270 C 
ATOM     13  C   UNL     1       9.296   1.813  -1.169  0.00  0.00    +0.270 C 
ATOM     14  O   UNL     1       9.457   0.445  -0.766  0.00  0.00    -0.485 OA
ENDBRANCH   2   5
BRANCH   1  18
ATOM     15  C   UNL     1      -0.248   1.295  -0.008  0.00  0.00    +0.001 A 
ATOM     16  C   UNL     1       0.817   1.904  -0.652  0.00  0.00    +0.002 A 
ATOM     17  C   UNL     1       2.059   1.302  -0.670  0.00  0.00    +0.024 A 
ATOM     18  C   UNL     1       2.248   0.079  -0.040  0.00  0.00    +0.046 A 
ATOM     19  C   UNL     1       1.172  -0.540   0.614  0.00  0.00    +0.058 A 
ATOM     20  C   UNL     1      -0.079   0.082   0.622  0.00  0.00    +0.015 A 
BRANCH  19  21
ATOM     21  C   UNL     1       1.359  -1.839   1.286  0.00  0.00    +0.243 C 
ATOM     22  O   UNL     1       2.469  -2.331   1.359  0.00  0.00    -0.270 OA
ATOM     23  N   UNL     1       0.301  -2.481   1.820  0.00  0.00    -0.325 N 
ATOM     24  H   UNL     1      -0.584  -2.088   1.762  0.00  0.00    +0.145 HD
ATOM     25  H   UNL     1       0.425  -3.335   2.262  0.00  0.00    +0.145 HD
ENDBRANCH  19  21
ENDBRANCH   1  18
TORSDOF 3
