REMARK  Name = ZINC12812309
REMARK  11 active torsions:
REMARK  status: ('A' for Active; 'I' for Inactive)
REMARK    1  A    between atoms: C_1  and  C_2
REMARK    2  A    between atoms: C_2  and  C_9
REMARK    3  A    between atoms: C_9  and  S_10
REMARK    4  A    between atoms: S_10  and  C_11
REMARK    5  A    between atoms: C_16  and  C_17
REMARK    6  A    between atoms: N_19  and  C_20
REMARK    7  A    between atoms: C_20  and  C_21
REMARK    8  A    between atoms: C_21  and  C_23
REMARK    9  A    between atoms: C_21  and  N_67
REMARK   10  A    between atoms: C_26  and  O_29
REMARK   11  A    between atoms: O_29  and  C_30
REMARK                            x       y       z     vdW  Elec       q    Type
REMARK                         _______ _______ _______ _____ _____    ______ ____
ROOT
ATOM      1  C   UNL     1      -6.019   4.432  -2.188  0.00  0.00    +0.245 C 
ATOM      2  O   UNL     1      -5.345   4.823  -1.254  0.00  0.00    -0.270 OA
ATOM      3  N   UNL     1      -7.234   4.969  -2.414  0.00  0.00    -0.313 N 
ATOM      4  H   UNL     1      -7.771   4.657  -3.159  0.00  0.00    +0.149 HD
ENDROOT
BRANCH   1  10
ATOM      5  C   UNL     1      -4.241   2.806  -2.840  0.00  0.00    +0.020 A 
ATOM      6  C   UNL     1      -3.773   1.800  -3.678  0.00  0.00    +0.015 A 
ATOM      7  C   UNL     1      -4.546   1.364  -4.733  0.00  0.00    +0.001 A 
ATOM      8  C   UNL     1      -5.793   1.922  -4.967  0.00  0.00    +0.001 A 
ATOM      9  C   UNL     1      -6.275   2.920  -4.149  0.00  0.00    +0.014 A 
ATOM     10  C   UNL     1      -5.507   3.369  -3.071  0.00  0.00    +0.050 A 
BRANCH   5  11
ATOM     11  S   UNL     1      -3.256   3.366  -1.491  0.00  0.00    -0.122 S 
BRANCH  11  12
ATOM     12  C   UNL     1      -1.752   2.357  -1.598  0.00  0.00    +0.109 C 
BRANCH  12  14
ATOM     13  C   UNL     1      -1.475   2.585   0.893  0.00  0.00    +0.042 C 
ATOM     14  C   UNL     1      -0.796   2.746  -0.468  0.00  0.00    +0.119 C 
ATOM     15  C   UNL     1       0.472   1.917  -0.534  0.00  0.00    +0.244 C 
ATOM     16  O   UNL     1       0.565   0.713  -0.435  0.00  0.00    -0.273 OA
ATOM     17  N   UNL     1       1.473   2.798  -0.731  0.00  0.00    -0.238 N 
ATOM     18  C   UNL     1       1.019   4.055  -0.793  0.00  0.00    +0.307 C 
ATOM     19  O   UNL     1       1.734   5.023  -0.965  0.00  0.00    -0.252 OA
ATOM     20  N   UNL     1      -0.316   4.128  -0.645  0.00  0.00    -0.285 N 
ATOM     21  H   UNL     1       2.407   2.551  -0.816  0.00  0.00    +0.159 HD
ATOM     22  H   UNL     1      -0.857   4.932  -0.656  0.00  0.00    +0.151 HD
ENDBRANCH  12  14
ENDBRANCH  11  12
ENDBRANCH   5  11
ENDBRANCH   1  10
BRANCH   3  23
ATOM     23  C   UNL     1      -7.742   6.025  -1.535  0.00  0.00    +0.094 C 
BRANCH  23  24
ATOM     24  C   UNL     1      -9.067   6.555  -2.089  0.00  0.00    -0.020 C 
BRANCH  24  30
ATOM     25  C   UNL     1      -9.799   7.003   0.175  0.00  0.00    -0.078 C 
ATOM     26  C   UNL     1     -10.230   8.113   1.136  0.00  0.00    -0.019 C 
ATOM     27  C   UNL     1     -11.537   8.734   0.637  0.00  0.00    -0.004 C 
ATOM     28  C   UNL     1     -11.330   9.267  -0.784  0.00  0.00    -0.019 C 
ATOM     29  C   UNL     1     -10.867   8.123  -1.689  0.00  0.00    -0.078 C 
ATOM     30  N   UNL     1      -9.593   7.584  -1.169  0.00  0.00    +0.385 N 
ATOM     31  H   UNL     1      -8.912   8.349  -1.099  0.00  0.00    -0.081 HD
ENDBRANCH  24  30
BRANCH  24  32
ATOM     32  C   UNL     1      -8.832   7.182  -3.439  0.00  0.00    -0.059 A 
ATOM     33  C   UNL     1      -8.327   8.466  -3.526  0.00  0.00    +0.005 A 
ATOM     34  C   UNL     1      -8.106   9.041  -4.762  0.00  0.00    +0.046 A 
ATOM     35  C   UNL     1      -8.401   8.332  -5.918  0.00  0.00    +0.120 A 
ATOM     36  C   UNL     1      -8.913   7.046  -5.828  0.00  0.00    +0.046 A 
ATOM     37  C   UNL     1      -9.127   6.474  -4.589  0.00  0.00    +0.005 A 
BRANCH  35  38
ATOM     38  O   UNL     1      -8.191   8.898  -7.136  0.00  0.00    -0.495 OA
ATOM     39  C   UNL     1      -7.662  10.225  -7.152  0.00  0.00    +0.277 C 
ENDBRANCH  35  38
ENDBRANCH  24  32
ENDBRANCH  23  24
ENDBRANCH   3  23
TORSDOF 9
