REMARK  Name = ZINC65410619
REMARK  8 active torsions:
REMARK  status: ('A' for Active; 'I' for Inactive)
REMARK    1  A    between atoms: C_1  and  C_2
REMARK    2  A    between atoms: C_2  and  C_3
REMARK    3  A    between atoms: C_2  and  N_4
REMARK    4  A    between atoms: C_10  and  C_12
REMARK    5  A    between atoms: C_12  and  C_13
REMARK    6  A    between atoms: N_15  and  C_16
REMARK    7  A    between atoms: C_16  and  C_17
REMARK    8  A    between atoms: C_17  and  O_27
REMARK                            x       y       z     vdW  Elec       q    Type
REMARK                         _______ _______ _______ _____ _____    ______ ____
ROOT
ATOM      1  C   UNL     1       0.911  -2.054  -1.391  0.00  0.00    +0.212 C 
ATOM      2  O   UNL     1      -0.108  -1.398  -1.331  0.00  0.00    -0.276 OA
ATOM      3  N   UNL     1       1.470  -2.324  -2.587  0.00  0.00    -0.313 N 
ATOM      4  H   UNL     1       2.284  -2.848  -2.634  0.00  0.00    +0.149 HD
ENDROOT
BRANCH   1   5
ATOM      5  C   UNL     1       1.551  -2.567  -0.127  0.00  0.00    +0.089 C 
BRANCH   5  12
ATOM      6  N   UNL     1      -0.571  -2.560   1.091  0.00  0.00    +0.390 N 
ATOM      7  C   UNL     1      -1.347  -1.882   2.141  0.00  0.00    -0.058 C 
ATOM      8  C   UNL     1      -1.595  -0.434   1.714  0.00  0.00    +0.085 C 
ATOM      9  N   UNL     1      -0.335   0.190   1.317  0.00  0.00    -0.318 N 
ATOM     10  C   UNL     1       0.758  -0.521   1.016  0.00  0.00    +0.200 C 
ATOM     11  O   UNL     1       1.760   0.070   0.673  0.00  0.00    -0.278 OA
ATOM     12  C   UNL     1       0.794  -2.021   1.086  0.00  0.00    +0.028 C 
ATOM     13  H   UNL     1      -0.289   1.157   1.270  0.00  0.00    +0.149 HD
ATOM     14  H   UNL     1      -1.002  -2.399   0.193  0.00  0.00    -0.080 HD
BRANCH   6  16
ATOM     15  C   UNL     1      -0.012  -4.238   2.785  0.00  0.00    -0.013 C 
ATOM     16  C   UNL     1      -0.529  -4.003   1.365  0.00  0.00    -0.074 C 
ATOM     17  C   UNL     1      -1.937  -4.588   1.231  0.00  0.00    -0.013 C 
ENDBRANCH   6  16
ENDBRANCH   5  12
ENDBRANCH   1   5
BRANCH   3  18
ATOM     18  C   UNL     1       0.848  -1.825  -3.816  0.00  0.00    +0.139 C 
BRANCH  18  19
ATOM     19  C   UNL     1       1.676  -2.268  -5.023  0.00  0.00    +0.087 C 
ATOM     20  C   UNL     1       1.736  -3.796  -5.066  0.00  0.00    +0.023 C 
ATOM     21  C   UNL     1       0.319  -4.360  -5.186  0.00  0.00    +0.010 C 
ATOM     22  C   UNL     1      -0.331  -3.839  -6.469  0.00  0.00    -0.010 C 
ATOM     23  C   UNL     1       0.497  -4.282  -7.676  0.00  0.00    +0.007 C 
ATOM     24  C   UNL     1       1.915  -3.719  -7.557  0.00  0.00    -0.010 C 
ATOM     25  C   UNL     1       2.564  -4.240  -6.274  0.00  0.00    +0.010 C 
ATOM     26  C   UNL     1       1.854  -2.191  -7.514  0.00  0.00    +0.010 C 
ATOM     27  C   UNL     1       1.026  -1.747  -6.307  0.00  0.00    +0.023 C 
ATOM     28  C   UNL     1      -0.392  -2.311  -6.426  0.00  0.00    +0.010 C 
BRANCH  19  29
ATOM     29  O   UNL     1       2.999  -1.742  -4.912  0.00  0.00    -0.386 OA
ATOM     30  H   UNL     1       3.473  -2.031  -4.120  0.00  0.00    +0.210 HD
ENDBRANCH  19  29
ENDBRANCH  18  19
ENDBRANCH   3  18
TORSDOF 6
