REMARK  Name = ZINC63709160
REMARK  10 active torsions:
REMARK  status: ('A' for Active; 'I' for Inactive)
REMARK    1  A    between atoms: C_1  and  C_2
REMARK    2  A    between atoms: C_5  and  C_8
REMARK    3  A    between atoms: C_8  and  C_10
REMARK    4  A    between atoms: C_8  and  N_28
REMARK    5  A    between atoms: C_10  and  N_11
REMARK    6  A    between atoms: C_12  and  C_14
REMARK    7  A    between atoms: N_16  and  C_17
REMARK    8  A    between atoms: C_17  and  C_18
REMARK    9  A    between atoms: C_18  and  C_19
REMARK   10  A    between atoms: N_31  and  C_34
REMARK                            x       y       z     vdW  Elec       q    Type
REMARK                         _______ _______ _______ _____ _____    ______ ____
ROOT
ATOM      1  N   UNL     1      -2.158  -4.440  -1.060  0.00  0.00    -0.306 N 
ATOM      2  C   UNL     1      -3.449  -4.814  -1.157  0.00  0.00    +0.299 C 
ATOM      3  O   UNL     1      -3.924  -5.574  -0.339  0.00  0.00    -0.265 OA
ATOM      4  H   UNL     1      -1.779  -3.833  -1.715  0.00  0.00    +0.149 HD
ENDROOT
BRANCH   2   5
ATOM      5  C   UNL     1      -4.297  -4.292  -2.272  0.00  0.00    +0.299 C 
ATOM      6  O   UNL     1      -3.822  -3.532  -3.091  0.00  0.00    -0.265 OA
ATOM      7  N   UNL     1      -5.588  -4.666  -2.369  0.00  0.00    -0.307 N 
ATOM      8  H   UNL     1      -5.967  -5.274  -1.715  0.00  0.00    +0.149 HD
BRANCH   7   9
ATOM      9  C   UNL     1      -6.419  -4.155  -3.462  0.00  0.00    +0.109 C 
BRANCH   9  10
ATOM     10  C   UNL     1      -7.831  -4.729  -3.340  0.00  0.00    +0.052 C 
BRANCH  10  11
ATOM     11  C   UNL     1      -8.686  -4.204  -4.465  0.00  0.00    -0.040 C 
ATOM     12  C   UNL     1      -8.937  -4.809  -5.648  0.00  0.00    -0.001 A 
ATOM     13  C   UNL     1      -8.504  -6.090  -6.220  0.00  0.00    +0.010 A 
ATOM     14  C   UNL     1      -8.929  -6.432  -7.458  0.00  0.00    +0.001 A 
ATOM     15  C   UNL     1      -9.769  -5.596  -8.206  0.00  0.00    +0.002 A 
ATOM     16  C   UNL     1     -10.209  -4.405  -7.747  0.00  0.00    +0.026 A 
ATOM     17  C   UNL     1      -9.824  -3.945  -6.457  0.00  0.00    +0.043 A 
ATOM     18  N   UNL     1     -10.112  -2.847  -5.801  0.00  0.00    -0.380 N 
ATOM     19  C   UNL     1      -9.443  -2.894  -4.496  0.00  0.00    +0.144 C 
ATOM     20  H   UNL     1     -10.676  -2.127  -6.122  0.00  0.00    +0.160 HD
ENDBRANCH  10  11
ENDBRANCH   9  10
ENDBRANCH   7   9
ENDBRANCH   2   5
BRANCH   1  21
ATOM     21  C   UNL     1      -1.327  -4.951   0.033  0.00  0.00    +0.128 C 
BRANCH  21  22
ATOM     22  C   UNL     1       0.045  -4.275  -0.010  0.00  0.00    +0.104 C 
BRANCH  22  23
ATOM     23  N   UNL     1       0.909  -4.854   1.027  0.00  0.00    -0.297 NA
ATOM     24  C   UNL     1       2.235  -4.220   1.023  0.00  0.00    +0.066 C 
ATOM     25  C   UNL     1       3.082  -4.808   2.153  0.00  0.00    -0.064 C 
ATOM     26  N   UNL     1       3.213  -6.259   1.964  0.00  0.00    +0.379 N 
ATOM     27  C   UNL     1       1.882  -6.881   1.996  0.00  0.00    -0.064 C 
ATOM     28  C   UNL     1       1.025  -6.310   0.864  0.00  0.00    +0.066 C 
ATOM     29  C   UNL     1       4.041  -6.820   3.039  0.00  0.00    -0.096 C 
ATOM     30  H   UNL     1       3.649  -6.444   1.073  0.00  0.00    -0.082 HD
ENDBRANCH  22  23
BRANCH  22  35
ATOM     31  C   UNL     1      -0.575   1.392   0.938  0.00  0.00    +0.044 C 
ATOM     32  C   UNL     1      -0.413  -0.086   0.691  0.00  0.00    -0.050 A 
ATOM     33  C   UNL     1      -0.257  -0.558  -0.599  0.00  0.00    +0.003 A 
ATOM     34  C   UNL     1      -0.109  -1.914  -0.826  0.00  0.00    +0.005 A 
ATOM     35  C   UNL     1      -0.116  -2.797   0.237  0.00  0.00    -0.029 A 
ATOM     36  C   UNL     1      -0.271  -2.325   1.527  0.00  0.00    +0.005 A 
ATOM     37  C   UNL     1      -0.415  -0.969   1.754  0.00  0.00    +0.003 A 
ENDBRANCH  22  35
ENDBRANCH  21  22
ENDBRANCH   1  21
TORSDOF 8
