REMARK  Name = ZINC41730256
REMARK  4 active torsions:
REMARK  status: ('A' for Active; 'I' for Inactive)
REMARK    1  A    between atoms: C_1  and  C_2
REMARK    2  A    between atoms: N_6  and  C_7
REMARK    3  A    between atoms: C_9  and  N_14
REMARK    4  A    between atoms: C_20  and  N_22
REMARK                            x       y       z     vdW  Elec       q    Type
REMARK                         _______ _______ _______ _____ _____    ______ ____
ROOT
ATOM      1  C   UNL     1      -0.018   1.503   0.010  0.00  0.00    +0.064 C 
ATOM      2  C   UNL     1       0.002  -0.004   0.002  0.00  0.00    +0.021 A 
ATOM      3  C   UNL     1       0.008  -0.790  -1.097  0.00  0.00    +0.025 A 
ATOM      4  C   UNL     1       0.028  -2.122  -0.658  0.00  0.00    -0.041 A 
ATOM      5  C   UNL     1       0.035  -2.108   0.695  0.00  0.00    +0.026 A 
ATOM      6  N   UNL     1       0.024  -0.811   1.106  0.00  0.00    -0.315 N 
ATOM      7  C   UNL     1       0.059  -3.350   1.552  0.00  0.00    +0.054 C 
ATOM      8  C   UNL     1       0.488  -4.534   0.677  0.00  0.00    +0.005 C 
ATOM      9  C   UNL     1      -0.355  -4.558  -0.601  0.00  0.00    -0.011 C 
ATOM     10  C   UNL     1       0.038  -3.375  -1.495  0.00  0.00    -0.042 C 
ENDROOT
BRANCH   6  11
ATOM     11  C   UNL     1       0.030  -0.375   2.439  0.00  0.00    +0.084 A 
ATOM     12  C   UNL     1      -1.168  -0.181   3.113  0.00  0.00    +0.061 A 
ATOM     13  C   UNL     1      -1.159   0.248   4.426  0.00  0.00    +0.128 A 
ATOM     14  C   UNL     1       0.041   0.485   5.070  0.00  0.00    +0.035 A 
ATOM     15  C   UNL     1       1.237   0.294   4.403  0.00  0.00    +0.043 A 
ATOM     16  C   UNL     1       1.236  -0.141   3.090  0.00  0.00    +0.147 A 
ATOM     17  F   UNL     1       2.404  -0.333   2.439  0.00  0.00    -0.203 F 
BRANCH  13  18
ATOM     18  N   UNL     1      -2.437   0.454   5.145  0.00  0.00    +0.056 N 
ATOM     19  O   UNL     1      -3.487   0.247   4.582  0.00  0.00    -0.126 OA
ATOM     20  O   UNL     1      -2.430   0.830   6.294  0.00  0.00    -0.126 OA
ENDBRANCH  13  18
ENDBRANCH   6  11
BRANCH  10  21
ATOM     21  N   UNL     1      -0.927  -3.244  -2.595  0.00  0.00    +0.383 N 
ATOM     22  H   UNL     1      -0.675  -2.455  -3.171  0.00  0.00    -0.089 HD
ATOM     23  H   UNL     1      -0.917  -4.085  -3.153  0.00  0.00    -0.089 HD
ATOM     24  H   UNL     1      -1.851  -3.103  -2.216  0.00  0.00    -0.089 HD
ENDBRANCH  10  21
TORSDOF 3
