REMARK  Name = ZINC15708559
REMARK  7 active torsions:
REMARK  status: ('A' for Active; 'I' for Inactive)
REMARK    1  A    between atoms: C_6  and  N_7
REMARK    2  A    between atoms: N_7  and  C_8
REMARK    3  A    between atoms: C_8  and  N_10
REMARK    4  A    between atoms: N_10  and  C_11
REMARK    5  A    between atoms: C_20  and  C_23
REMARK    6  A    between atoms: C_23  and  C_24
REMARK    7  A    between atoms: C_24  and  C_25
REMARK                            x       y       z     vdW  Elec       q    Type
REMARK                         _______ _______ _______ _____ _____    ______ ____
ROOT
ATOM      1  C   UNL     1      -0.737   2.679  -6.717  0.00  0.00    +0.054 C 
ATOM      2  C   UNL     1      -1.782   2.340  -7.813  0.00  0.00    +0.014 C 
ATOM      3  C   UNL     1      -2.615   1.217  -7.193  0.00  0.00    +0.021 C 
ATOM      4  C   UNL     1      -3.121   0.183  -8.144  0.00  0.00    +0.200 C 
ATOM      5  O   UNL     1      -3.424   0.488  -9.278  0.00  0.00    -0.278 OA
ATOM      6  N   UNL     1      -3.238  -1.092  -7.725  0.00  0.00    -0.318 N 
ATOM      7  C   UNL     1      -2.787  -1.582  -6.429  0.00  0.00    +0.089 C 
ATOM      8  C   UNL     1      -2.385  -0.438  -5.486  0.00  0.00    -0.050 C 
ATOM      9  C   UNL     1      -1.007   1.656  -5.578  0.00  0.00    -0.055 C 
ATOM     10  H   UNL     1      -3.652  -1.729  -8.329  0.00  0.00    +0.149 HD
ATOM     11  N   UNL     1      -1.659   0.575  -6.334  0.00  0.00    +0.391 N 
ATOM     12  H   UNL     1      -0.951   0.085  -6.893  0.00  0.00    -0.080 HD
ENDROOT
BRANCH   1  13
ATOM     13  N   UNL     1       0.621   2.513  -7.239  0.00  0.00    -0.325 N 
ATOM     14  H   UNL     1       0.786   1.910  -7.981  0.00  0.00    +0.148 HD
BRANCH  13  15
ATOM     15  C   UNL     1       1.643   3.199  -6.689  0.00  0.00    +0.135 C 
ATOM     16  S   UNL     1       1.353   4.263  -5.380  0.00  0.00    -0.019 S 
BRANCH  15  17
ATOM     17  N   UNL     1       2.893   3.046  -7.169  0.00  0.00    -0.297 N 
ATOM     18  H   UNL     1       3.046   2.509  -7.962  0.00  0.00    +0.154 HD
BRANCH  17  24
ATOM     19  C   UNL     1       4.980   4.258  -7.270  0.00  0.00    +0.025 A 
ATOM     20  C   UNL     1       6.040   4.871  -6.631  0.00  0.00    +0.022 A 
ATOM     21  C   UNL     1       6.102   4.883  -5.249  0.00  0.00    +0.041 A 
ATOM     22  C   UNL     1       5.100   4.287  -4.503  0.00  0.00    +0.022 A 
ATOM     23  C   UNL     1       4.036   3.678  -5.137  0.00  0.00    +0.025 A 
ATOM     24  C   UNL     1       3.971   3.664  -6.524  0.00  0.00    +0.033 A 
ATOM     25 CL   UNL     1       7.440   5.648  -4.449  0.00  0.00    -0.084 Cl
ENDBRANCH  17  24
ENDBRANCH  15  17
ENDBRANCH  13  15
ENDBRANCH   1  13
BRANCH   8  26
ATOM     26  C   UNL     1      -1.489  -0.976  -4.369  0.00  0.00    -0.005 C 
BRANCH  26  27
ATOM     27  C   UNL     1      -2.292  -1.937  -3.489  0.00  0.00    +0.094 C 
BRANCH  27  28
ATOM     28  C   UNL     1      -1.384  -2.548  -2.453  0.00  0.00    +0.216 C 
ATOM     29  O   UNL     1      -0.210  -2.244  -2.422  0.00  0.00    -0.276 OA
ATOM     30  N   UNL     1      -1.876  -3.431  -1.562  0.00  0.00    -0.301 N 
ATOM     31  C   UNL     1      -1.002  -4.035  -0.546  0.00  0.00    +0.108 C 
ATOM     32  C   UNL     1      -1.131  -5.559  -0.625  0.00  0.00    +0.019 C 
ATOM     33  C   UNL     1      -2.606  -5.949  -0.502  0.00  0.00    +0.003 C 
ATOM     34  C   UNL     1      -3.399  -5.335  -1.658  0.00  0.00    +0.019 C 
ATOM     35  C   UNL     1      -3.296  -3.808  -1.588  0.00  0.00    +0.108 C 
ENDBRANCH  27  28
ENDBRANCH  26  27
ENDBRANCH   8  26
TORSDOF 7
