REMARK  Name = ZINC32682394
REMARK  11 active torsions:
REMARK  status: ('A' for Active; 'I' for Inactive)
REMARK    1  A    between atoms: C_10  and  O_12
REMARK    2  A    between atoms: O_12  and  C_13
REMARK    3  A    between atoms: C_13  and  C_14
REMARK    4  A    between atoms: C_14  and  C_16
REMARK    5  A    between atoms: C_14  and  O_30
REMARK    6  A    between atoms: C_16  and  N_17
REMARK    7  A    between atoms: N_17  and  C_18
REMARK    8  A    between atoms: C_18  and  C_19
REMARK    9  A    between atoms: C_19  and  C_20
REMARK   10  A    between atoms: C_23  and  S_26
REMARK   11  A    between atoms: S_26  and  N_29
REMARK                            x       y       z     vdW  Elec       q    Type
REMARK                         _______ _______ _______ _____ _____    ______ ____
ROOT
ATOM      1  N   UNL     1      -0.049   1.130   0.090  0.00  0.00    +0.381 N 
ATOM      2  H   UNL     1      -0.014   0.038  -0.040  0.00  0.00    -0.086 HD
ATOM      3  H   UNL     1      -0.531   1.369   1.049  0.00  0.00    -0.086 HD
ENDROOT
BRANCH   1   4
ATOM      4  C   UNL     1       1.318   1.668   0.082  0.00  0.00    -0.049 C 
BRANCH   4   5
ATOM      5  C   UNL     1       2.119   1.044   1.226  0.00  0.00    +0.123 C 
BRANCH   5   6
ATOM      6  O   UNL     1       1.492   1.355   2.472  0.00  0.00    -0.391 OA
ATOM      7  H   UNL     1       0.459   1.031   2.663  0.00  0.00    +0.210 HD
ENDBRANCH   5   6
BRANCH   5   8
ATOM      8  C   UNL     1       3.543   1.604   1.217  0.00  0.00    +0.190 C 
BRANCH   8   9
ATOM      9  O   UNL     1       4.324   0.937   2.210  0.00  0.00    -0.369 OA
BRANCH   9  19
ATOM     10  C   UNL     1       7.151   0.969   6.226  0.00  0.00    +0.000 A 
ATOM     11  C   UNL     1       5.902   1.504   5.968  0.00  0.00    +0.000 A 
ATOM     12  C   UNL     1       5.455   1.604   4.667  0.00  0.00    +0.006 A 
ATOM     13  C   UNL     1       6.250   1.171   3.612  0.00  0.00    -0.016 A 
ATOM     14  C   UNL     1       7.491   0.635   3.869  0.00  0.00    -0.042 A 
ATOM     15  C   UNL     1       7.940   0.537   5.181  0.00  0.00    +0.004 A 
ATOM     16  C   UNL     1       8.402   0.139   2.777  0.00  0.00    +0.035 C 
ATOM     17  C   UNL     1       7.971   0.697   1.423  0.00  0.00    +0.007 C 
ATOM     18  C   UNL     1       6.473   0.425   1.243  0.00  0.00    +0.037 C 
ATOM     19  C   UNL     1       5.702   1.315   2.217  0.00  0.00    +0.149 C 
ENDBRANCH   9  19
ENDBRANCH   8   9
ENDBRANCH   5   8
ENDBRANCH   4   5
ENDBRANCH   1   4
BRANCH   1  20
ATOM     20  C   UNL     1      -0.849   1.709  -0.997  0.00  0.00    -0.078 C 
BRANCH  20  21
ATOM     21  C   UNL     1      -2.263   1.125  -0.956  0.00  0.00    +0.016 C 
BRANCH  21  22
ATOM     22  C   UNL     1      -3.084   1.719  -2.071  0.00  0.00    -0.049 A 
ATOM     23  C   UNL     1      -3.810   2.875  -1.855  0.00  0.00    +0.005 A 
ATOM     24  C   UNL     1      -4.560   3.422  -2.880  0.00  0.00    +0.029 A 
ATOM     25  C   UNL     1      -4.591   2.808  -4.117  0.00  0.00    +0.105 A 
ATOM     26  C   UNL     1      -3.870   1.648  -4.332  0.00  0.00    +0.029 A 
ATOM     27  C   UNL     1      -3.116   1.104  -3.309  0.00  0.00    +0.005 A 
BRANCH  25  28
ATOM     28  S   UNL     1      -5.553   3.501  -5.421  0.00  0.00    +0.056 S 
ATOM     29  O   UNL     1      -5.699   4.883  -5.127  0.00  0.00    -0.153 OA
ATOM     30  O   UNL     1      -4.982   3.038  -6.637  0.00  0.00    -0.153 OA
BRANCH  28  31
ATOM     31  N   UNL     1      -7.065   2.833  -5.324  0.00  0.00    -0.204 NA
ATOM     32  H   UNL     1      -7.699   3.242  -6.124  0.00  0.00    +0.144 HD
ATOM     33  H   UNL     1      -7.509   3.072  -4.346  0.00  0.00    +0.144 HD
ENDBRANCH  28  31
ENDBRANCH  25  28
ENDBRANCH  21  22
ENDBRANCH  20  21
ENDBRANCH   1  20
TORSDOF 11
