REMARK  Name = ZINC12498846
REMARK  10 active torsions:
REMARK  status: ('A' for Active; 'I' for Inactive)
REMARK    1  A    between atoms: C_1  and  C_2
REMARK    2  A    between atoms: C_5  and  C_26
REMARK    3  A    between atoms: C_6  and  N_8
REMARK    4  A    between atoms: N_8  and  C_9
REMARK    5  A    between atoms: C_9  and  N_11
REMARK    6  A    between atoms: N_11  and  C_12
REMARK    7  A    between atoms: C_22  and  C_23
REMARK    8  A    between atoms: C_22  and  N_58
REMARK    9  A    between atoms: C_23  and  C_24
REMARK   10  A    between atoms: C_23  and  C_25
REMARK                            x       y       z     vdW  Elec       q    Type
REMARK                         _______ _______ _______ _____ _____    ______ ____
ROOT
ATOM      1  N   UNL     1      -0.749   4.898  -1.638  0.00  0.00    -0.324 N 
ATOM      2  H   UNL     1      -1.519   5.382  -1.976  0.00  0.00    +0.148 HD
ENDROOT
BRANCH   1   3
ATOM      3  C   UNL     1      -0.846   3.450  -1.369  0.00  0.00    +0.069 C 
ATOM      4  C   UNL     1      -2.306   3.107  -1.097  0.00  0.00    +0.007 C 
ATOM      5  C   UNL     1      -2.561   1.604  -1.133  0.00  0.00    -0.066 C 
ATOM      6  C   UNL     1      -1.914   0.905   0.053  0.00  0.00    -0.015 C 
ATOM      7  C   UNL     1      -0.396   0.875  -0.037  0.00  0.00    -0.003 C 
ATOM      8  C   UNL     1       0.105   0.496  -1.423  0.00  0.00    -0.015 C 
ATOM      9  C   UNL     1      -0.642   1.214  -2.536  0.00  0.00    -0.066 C 
ATOM     10  C   UNL     1      -0.291   2.698  -2.572  0.00  0.00    +0.007 C 
ATOM     11  N   UNL     1      -2.107   1.087  -2.437  0.00  0.00    +0.384 N 
ATOM     12  H   UNL     1      -2.535   1.653  -3.179  0.00  0.00    -0.081 HD
BRANCH  11  13
ATOM     13  C   UNL     1      -2.530  -0.324  -2.624  0.00  0.00    -0.075 C 
BRANCH  13  14
ATOM     14  C   UNL     1      -4.048  -0.345  -2.819  0.00  0.00    -0.034 C 
ATOM     15  C   UNL     1      -4.413   0.473  -4.059  0.00  0.00    +0.005 C 
ATOM     16  C   UNL     1      -4.518  -1.789  -3.004  0.00  0.00    +0.005 C 
ENDBRANCH  13  14
ENDBRANCH  11  13
ENDBRANCH   1   3
BRANCH   1  17
ATOM     17  C   UNL     1       0.410   5.549  -1.414  0.00  0.00    +0.135 C 
ATOM     18  S   UNL     1       1.769   4.696  -0.818  0.00  0.00    -0.019 S 
BRANCH  17  19
ATOM     19  N   UNL     1       0.499   6.871  -1.660  0.00  0.00    -0.297 N 
ATOM     20  H   UNL     1      -0.250   7.342  -2.058  0.00  0.00    +0.154 HD
BRANCH  19  26
ATOM     21  C   UNL     1       4.198   7.716   1.466  0.00  0.00    +0.044 C 
ATOM     22  C   UNL     1       3.485   7.994   0.168  0.00  0.00    -0.049 A 
ATOM     23  C   UNL     1       3.989   8.937  -0.710  0.00  0.00    +0.004 A 
ATOM     24  C   UNL     1       3.338   9.194  -1.902  0.00  0.00    +0.005 A 
ATOM     25  C   UNL     1       2.183   8.508  -2.222  0.00  0.00    -0.029 A 
ATOM     26  C   UNL     1       1.671   7.565  -1.341  0.00  0.00    +0.036 A 
ATOM     27  C   UNL     1       2.328   7.308  -0.144  0.00  0.00    +0.027 A 
ATOM     28  C   UNL     1       1.477   8.785  -3.524  0.00  0.00    +0.045 C 
ENDBRANCH  19  26
ENDBRANCH  17  19
ENDBRANCH   1  17
TORSDOF 6
