REMARK  Name = ZINC49330794
REMARK  5 active torsions:
REMARK  status: ('A' for Active; 'I' for Inactive)
REMARK    1  A    between atoms: C_1  and  C_2
REMARK    2  A    between atoms: N_6  and  C_7
REMARK    3  A    between atoms: C_7  and  C_8
REMARK    4  A    between atoms: C_8  and  N_9
REMARK    5  A    between atoms: N_12  and  C_15
REMARK                            x       y       z     vdW  Elec       q    Type
REMARK                         _______ _______ _______ _____ _____    ______ ____
ROOT
ATOM      1  N   UNL     1      -1.408   0.341   4.354  0.00  0.00    -0.298 NA
ATOM      2  C   UNL     1      -0.761   1.654   4.476  0.00  0.00    +0.103 C 
ATOM      3  C   UNL     1      -0.602   2.006   5.959  0.00  0.00    +0.120 C 
ATOM      4  N   UNL     1      -1.917   1.898   6.609  0.00  0.00    -0.326 N 
ATOM      5  C   UNL     1      -2.688   0.660   6.418  0.00  0.00    +0.120 C 
ATOM      6  C   UNL     1      -2.765   0.361   4.917  0.00  0.00    +0.103 C 
ENDROOT
BRANCH   4   7
ATOM      7  C   UNL     1      -2.421   2.946   7.389  0.00  0.00    +0.046 A 
ATOM      8  C   UNL     1      -3.713   2.881   7.908  0.00  0.00    +0.028 A 
ATOM      9  C   UNL     1      -4.170   3.938   8.673  0.00  0.00    +0.043 A 
ATOM     10  C   UNL     1      -3.331   5.024   8.898  0.00  0.00    +0.094 A 
ATOM     11  N   UNL     1      -2.110   5.053   8.389  0.00  0.00    -0.348 N 
ATOM     12  C   UNL     1      -1.639   4.058   7.660  0.00  0.00    +0.107 A 
ATOM     13  N   UNL     1      -3.781   6.095   9.668  0.00  0.00    -0.345 N 
ATOM     14  H   UNL     1      -4.675   6.080  10.043  0.00  0.00    +0.144 HD
ATOM     15  H   UNL     1      -3.200   6.855   9.828  0.00  0.00    +0.144 HD
ATOM     16  H   UNL     1      -1.544   5.822   8.560  0.00  0.00    +0.167 HD
ENDBRANCH   4   7
BRANCH   1  17
ATOM     17  C   UNL     1      -1.425  -0.110   2.957  0.00  0.00    +0.106 C 
BRANCH  17  18
ATOM     18  C   UNL     1       0.009  -0.358   2.484  0.00  0.00    +0.138 C 
BRANCH  18  24
ATOM     19  C   UNL     1      -0.073   1.487  -0.004  0.00  0.00    +0.084 C 
ATOM     20  C   UNL     1      -0.043  -0.019  -0.006  0.00  0.00    +0.084 A 
ATOM     21  N   UNL     1      -0.042  -0.779  -1.068  0.00  0.00    -0.350 N 
ATOM     22  C   UNL     1      -0.011  -2.066  -0.691  0.00  0.00    +0.101 A 
ATOM     23  C   UNL     1       0.008  -2.105   0.655  0.00  0.00    +0.104 A 
ATOM     24  N   UNL     1      -0.007  -0.808   1.089  0.00  0.00    -0.335 N 
ATOM     25  H   UNL     1      -0.060  -0.462  -1.985  0.00  0.00    +0.166 HD
ENDBRANCH  18  24
ENDBRANCH  17  18
ENDBRANCH   1  17
TORSDOF 4
