REMARK  Name = ZINC53941943
REMARK  9 active torsions:
REMARK  status: ('A' for Active; 'I' for Inactive)
REMARK    1  A    between atoms: C_1  and  C_2
REMARK    2  A    between atoms: C_2  and  C_3
REMARK    3  A    between atoms: C_2  and  C_4
REMARK    4  A    between atoms: C_2  and  N_5
REMARK    5  A    between atoms: N_8  and  C_11
REMARK    6  A    between atoms: C_11  and  C_12
REMARK    7  A    between atoms: C_12  and  C_13
REMARK    8  A    between atoms: C_13  and  C_15
REMARK    9  A    between atoms: C_13  and  N_22
REMARK                            x       y       z     vdW  Elec       q    Type
REMARK                         _______ _______ _______ _____ _____    ______ ____
ROOT
ATOM      1  C   UNL     1       2.726  -0.653  -4.887  0.00  0.00    -0.077 C 
ENDROOT
BRANCH   1   5
ATOM      2  N   UNL     1       0.690  -0.478  -1.207  0.00  0.00    -0.301 NA
ATOM      3  C   UNL     1      -0.043  -0.083  -2.418  0.00  0.00    +0.066 C 
ATOM      4  C   UNL     1       0.672  -0.646  -3.649  0.00  0.00    -0.063 C 
ATOM      5  N   UNL     1       2.046  -0.128  -3.696  0.00  0.00    +0.381 N 
ATOM      6  C   UNL     1       2.772  -0.550  -2.491  0.00  0.00    -0.063 C 
ATOM      7  C   UNL     1       2.075   0.013  -1.251  0.00  0.00    +0.066 C 
ATOM      8  H   UNL     1       2.024   0.880  -3.739  0.00  0.00    -0.082 HD
BRANCH   2  10
ATOM      9  C   UNL     1      -0.019   1.526   0.010  0.00  0.00    +0.027 C 
ATOM     10  C   UNL     1       0.002  -0.004   0.002  0.00  0.00    +0.013 C 
ATOM     11  C   UNL     1       0.742  -0.511   1.242  0.00  0.00    +0.027 C 
ATOM     12  C   UNL     1      -1.433  -0.534   0.013  0.00  0.00    +0.027 C 
ENDBRANCH   2  10
ENDBRANCH   1   5
BRANCH   1  13
ATOM     13  C   UNL     1       4.113  -0.018  -5.005  0.00  0.00    +0.005 C 
BRANCH  13  14
ATOM     14  C   UNL     1       4.822  -0.565  -6.245  0.00  0.00    +0.079 C 
BRANCH  14  15
ATOM     15  C   UNL     1       6.231  -0.034  -6.294  0.00  0.00    -0.031 A 
ATOM     16  C   UNL     1       6.471   1.246  -6.757  0.00  0.00    +0.006 A 
ATOM     17  C   UNL     1       7.764   1.734  -6.802  0.00  0.00    +0.015 A 
ATOM     18  C   UNL     1       8.817   0.941  -6.383  0.00  0.00    +0.018 A 
ATOM     19  C   UNL     1       8.576  -0.340  -5.920  0.00  0.00    +0.015 A 
ATOM     20  C   UNL     1       7.283  -0.825  -5.870  0.00  0.00    +0.006 A 
ATOM     21 BR   UNL     1      10.585   1.607  -6.444  0.00  0.00    -0.050 Br
ENDBRANCH  14  15
BRANCH  14  22
ATOM     22  N   UNL     1       4.096  -0.141  -7.450  0.00  0.00    -0.324 NA
ATOM     23  H   UNL     1       4.061   0.865  -7.516  0.00  0.00    +0.119 HD
ATOM     24  H   UNL     1       4.507  -0.543  -8.280  0.00  0.00    +0.119 HD
ENDBRANCH  14  22
ENDBRANCH  13  14
ENDBRANCH   1  13
TORSDOF 6
