REMARK  Name = ZINC10068174
REMARK  9 active torsions:
REMARK  status: ('A' for Active; 'I' for Inactive)
REMARK    1  A    between atoms: C_1  and  N_59
REMARK    2  A    between atoms: C_2  and  N_59
REMARK    3  A    between atoms: C_3  and  C_4
REMARK    4  A    between atoms: C_3  and  N_59
REMARK    5  A    between atoms: C_4  and  C_5
REMARK    6  A    between atoms: C_5  and  N_6
REMARK    7  A    between atoms: C_19  and  C_21
REMARK    8  A    between atoms: C_26  and  O_27
REMARK    9  A    between atoms: O_27  and  C_28
REMARK                            x       y       z     vdW  Elec       q    Type
REMARK                         _______ _______ _______ _____ _____    ______ ____
ROOT
ATOM      1  N   UNL     1      -1.984  -5.715   0.635  0.00  0.00    -0.246 N 
ATOM      2  C   UNL     1      -1.266  -4.549   0.424  0.00  0.00    +0.168 A 
ATOM      3  N   UNL     1      -1.661  -3.304   0.557  0.00  0.00    -0.224 NA
ATOM      4  C   UNL     1      -0.845  -2.253   0.314  0.00  0.00    +0.084 A 
ATOM      5  C   UNL     1      -1.146  -0.876   0.420  0.00  0.00    +0.078 A 
ATOM      6  C   UNL     1      -0.197   0.079   0.136  0.00  0.00    +0.168 A 
ATOM      7  C   UNL     1       1.091  -0.286  -0.264  0.00  0.00    +0.167 A 
ATOM      8  C   UNL     1       1.415  -1.627  -0.377  0.00  0.00    +0.066 A 
ATOM      9  C   UNL     1       0.467  -2.580  -0.093  0.00  0.00    +0.044 A 
ATOM     10  S   UNL     1       0.432  -4.356  -0.098  0.00  0.00    -0.052 S 
ATOM     11  O   UNL     1       1.823   0.845  -0.478  0.00  0.00    -0.453 OA
ATOM     12  C   UNL     1       1.103   1.899   0.186  0.00  0.00    +0.466 C 
ATOM     13  O   UNL     1      -0.263   1.446   0.169  0.00  0.00    -0.453 OA
ATOM     14  C   UNL     1      -1.396  -6.912   0.442  0.00  0.00    +0.256 C 
ATOM     15  O   UNL     1      -0.270  -6.970  -0.013  0.00  0.00    -0.269 OA
ENDROOT
BRANCH  14  16
ATOM     16  C   UNL     1      -2.118  -8.152   0.784  0.00  0.00    +0.079 A 
ATOM     17  C   UNL     1      -2.635  -8.332   2.069  0.00  0.00    +0.017 A 
ATOM     18  C   UNL     1      -3.313  -9.490   2.380  0.00  0.00    +0.001 A 
ATOM     19  C   UNL     1      -3.476 -10.483   1.427  0.00  0.00    +0.004 A 
ATOM     20  C   UNL     1      -2.965 -10.320   0.155  0.00  0.00    +0.047 A 
ATOM     21  C   UNL     1      -2.284  -9.158  -0.177  0.00  0.00    +0.141 A 
BRANCH  21  22
ATOM     22  O   UNL     1      -1.781  -8.997  -1.427  0.00  0.00    -0.455 OA
BRANCH  22  23
ATOM     23  C   UNL     1      -1.878 -10.040  -2.293  0.00  0.00    +0.128 A 
ATOM     24  C   UNL     1      -0.757 -10.801  -2.592  0.00  0.00    +0.046 A 
ATOM     25  C   UNL     1      -0.859 -11.864  -3.469  0.00  0.00    +0.004 A 
ATOM     26  C   UNL     1      -2.075 -12.163  -4.056  0.00  0.00    +0.000 A 
ATOM     27  C   UNL     1      -3.192 -11.403  -3.763  0.00  0.00    +0.004 A 
ATOM     28  C   UNL     1      -3.097 -10.342  -2.883  0.00  0.00    +0.046 A 
ENDBRANCH  22  23
ENDBRANCH  21  22
ENDBRANCH  14  16
BRANCH   1  29
ATOM     29  C   UNL     1      -3.382  -5.646   1.066  0.00  0.00    +0.114 C 
BRANCH  29  30
ATOM     30  C   UNL     1      -4.298  -5.738  -0.156  0.00  0.00    +0.001 C 
BRANCH  30  31
ATOM     31  C   UNL     1      -5.758  -5.667   0.295  0.00  0.00    -0.078 C 
BRANCH  31  34
ATOM     32  C   UNL     1      -8.040  -5.928  -0.474  0.00  0.00    -0.097 C 
ATOM     33  C   UNL     1      -6.481  -4.578  -1.743  0.00  0.00    -0.097 C 
ATOM     34  N   UNL     1      -6.630  -5.778  -0.893  0.00  0.00    +0.376 N 
ATOM     35  H   UNL     1      -6.353  -6.606  -1.434  0.00  0.00    -0.083 HD
ENDBRANCH  31  34
ENDBRANCH  30  31
ENDBRANCH  29  30
ENDBRANCH   1  29
TORSDOF 7
