REMARK  Name = ZINC08868874
REMARK  5 active torsions:
REMARK  status: ('A' for Active; 'I' for Inactive)
REMARK    1  A    between atoms: C_1  and  C_2
REMARK    2  A    between atoms: C_5  and  C_8
REMARK    3  A    between atoms: C_9  and  C_27
REMARK    4  A    between atoms: C_9  and  C_31
REMARK    5  A    between atoms: N_17  and  C_20
REMARK                            x       y       z     vdW  Elec       q    Type
REMARK                         _______ _______ _______ _____ _____    ______ ____
ROOT
ATOM      1  C   UNL     1      -0.383  -0.982   1.982  0.00  0.00    +0.106 C 
ATOM      2  C   UNL     1       0.565  -2.945   0.934  0.00  0.00    +0.264 C 
ATOM      3  C   UNL     1      -0.427  -2.697  -0.167  0.00  0.00    +0.098 A 
ATOM      4  C   UNL     1      -0.364  -3.436  -1.360  0.00  0.00    +0.262 A 
ATOM      5  O   UNL     1       0.503  -4.279  -1.515  0.00  0.00    -0.267 OA
ATOM      6  N   UNL     1      -1.270  -3.207  -2.331  0.00  0.00    -0.274 N 
ATOM      7  H   UNL     1      -1.227  -3.732  -3.182  0.00  0.00    +0.173 HD
ATOM      8  C   UNL     1      -2.231  -2.279  -2.168  0.00  0.00    +0.335 A 
ATOM      9  O   UNL     1      -3.039  -2.091  -3.057  0.00  0.00    -0.246 OA
ATOM     10  N   UNL     1      -2.310  -1.556  -1.036  0.00  0.00    -0.250 N 
ATOM     11  C   UNL     1      -1.405  -1.757  -0.022  0.00  0.00    +0.124 A 
ATOM     12  N   UNL     1      -1.474  -1.020   1.136  0.00  0.00    -0.286 N 
ATOM     13  H   UNL     1      -2.281  -0.531   1.357  0.00  0.00    +0.155 HD
ATOM     14  N   UNL     1       0.639  -1.844   1.957  0.00  0.00    -0.348 N 
ATOM     15  H   UNL     1       1.433  -1.759   2.603  0.00  0.00    +0.162 HD
ENDROOT
BRANCH   1  20
ATOM     16  C   UNL     1      -0.056   3.166   5.960  0.00  0.00    +0.044 C 
ATOM     17  C   UNL     1      -0.142   2.080   4.919  0.00  0.00    -0.050 A 
ATOM     18  C   UNL     1       0.867   1.138   4.821  0.00  0.00    +0.004 A 
ATOM     19  C   UNL     1       0.794   0.141   3.870  0.00  0.00    +0.011 A 
ATOM     20  C   UNL     1      -0.299   0.085   3.005  0.00  0.00    +0.013 A 
ATOM     21  C   UNL     1      -1.310   1.041   3.105  0.00  0.00    +0.011 A 
ATOM     22  C   UNL     1      -1.228   2.030   4.064  0.00  0.00    +0.004 A 
ENDBRANCH   1  20
BRANCH  10  23
ATOM     23  C   UNL     1      -3.321  -0.595  -0.889  0.00  0.00    +0.053 A 
ATOM     24  C   UNL     1      -3.093   0.718  -1.281  0.00  0.00    +0.029 A 
ATOM     25  C   UNL     1      -4.092   1.662  -1.141  0.00  0.00    +0.040 A 
ATOM     26  C   UNL     1      -5.315   1.302  -0.601  0.00  0.00    +0.124 A 
ATOM     27  C   UNL     1      -5.542  -0.005  -0.205  0.00  0.00    +0.040 A 
ATOM     28  C   UNL     1      -4.548  -0.953  -0.348  0.00  0.00    +0.029 A 
ATOM     29  F   UNL     1      -6.289   2.228  -0.461  0.00  0.00    -0.205 F 
ENDBRANCH  10  23
BRANCH   2  30
ATOM     30  C   UNL     1       0.205  -4.250   1.647  0.00  0.00    +0.426 C 
ATOM     31  F   UNL     1       0.242  -5.308   0.733  0.00  0.00    -0.167 F 
ATOM     32  F   UNL     1       1.125  -4.489   2.674  0.00  0.00    -0.167 F 
ATOM     33  F   UNL     1      -1.081  -4.146   2.188  0.00  0.00    -0.167 F 
ENDBRANCH   2  30
BRANCH   2  34
ATOM     34  C   UNL     1       1.963  -3.076   0.327  0.00  0.00    +0.426 C 
ATOM     35  F   UNL     1       2.154  -2.069  -0.626  0.00  0.00    -0.167 F 
ATOM     36  F   UNL     1       2.923  -2.950   1.337  0.00  0.00    -0.167 F 
ATOM     37  F   UNL     1       2.091  -4.327  -0.285  0.00  0.00    -0.167 F 
ENDBRANCH   2  34
TORSDOF 4
