REMARK  Name = ZINC07158376
REMARK  13 active torsions:
REMARK  status: ('A' for Active; 'I' for Inactive)
REMARK    1  A    between atoms: C_1  and  C_2
REMARK    2  A    between atoms: C_2  and  C_3
REMARK    3  A    between atoms: C_2  and  C_4
REMARK    4  A    between atoms: C_2  and  C_24
REMARK    5  A    between atoms: C_4  and  N_57
REMARK    6  A    between atoms: C_5  and  C_6
REMARK    7  A    between atoms: C_5  and  N_57
REMARK    8  A    between atoms: N_8  and  C_9
REMARK    9  A    between atoms: C_11  and  S_16
REMARK   10  A    between atoms: S_16  and  N_19
REMARK   11  A    between atoms: C_24  and  N_60
REMARK   12  A    between atoms: C_25  and  N_60
REMARK   13  A    between atoms: C_26  and  N_60
REMARK                            x       y       z     vdW  Elec       q    Type
REMARK                         _______ _______ _______ _____ _____    ______ ____
ROOT
ATOM      1  C   UNL     1      -4.292  -0.382   1.729  0.00  0.00    +0.200 C 
ATOM      2  O   UNL     1      -3.873  -0.827   0.682  0.00  0.00    -0.278 OA
ATOM      3  N   UNL     1      -3.999   0.883   2.089  0.00  0.00    -0.286 N 
ATOM      4  H   UNL     1      -4.272   1.216   2.959  0.00  0.00    +0.155 HD
ENDROOT
BRANCH   3   5
ATOM      5  C   UNL     1      -3.300   1.718   1.209  0.00  0.00    +0.054 A 
ATOM      6  C   UNL     1      -3.340   1.476  -0.158  0.00  0.00    +0.053 A 
ATOM      7  C   UNL     1      -2.650   2.301  -1.024  0.00  0.00    +0.107 A 
ATOM      8  C   UNL     1      -1.915   3.364  -0.532  0.00  0.00    +0.030 A 
ATOM      9  C   UNL     1      -1.878   3.612   0.828  0.00  0.00    +0.024 A 
ATOM     10  C   UNL     1      -2.566   2.790   1.700  0.00  0.00    +0.062 A 
ATOM     11 CL   UNL     1      -2.514   3.098   3.408  0.00  0.00    -0.082 Cl
BRANCH   7  12
ATOM     12  S   UNL     1      -2.700   1.994  -2.759  0.00  0.00    +0.061 S 
ATOM     13  O   UNL     1      -3.006   0.616  -2.919  0.00  0.00    -0.153 OA
ATOM     14  O   UNL     1      -1.530   2.583  -3.309  0.00  0.00    -0.153 OA
BRANCH  12  15
ATOM     15  N   UNL     1      -3.987   2.839  -3.368  0.00  0.00    -0.177 NA
ATOM     16  C   UNL     1      -5.360   2.330  -3.503  0.00  0.00    +0.109 C 
ATOM     17  C   UNL     1      -6.205   3.454  -4.138  0.00  0.00    +0.018 C 
ATOM     18  C   UNL     1      -5.138   4.325  -4.854  0.00  0.00    +0.018 C 
ATOM     19  C   UNL     1      -3.944   4.224  -3.873  0.00  0.00    +0.109 C 
ENDBRANCH  12  15
ENDBRANCH   7  12
ENDBRANCH   3   5
BRANCH   1  20
ATOM     20  C   UNL     1      -5.141  -1.244   2.628  0.00  0.00    +0.015 C 
BRANCH  20  21
ATOM     21  N   UNL     1      -5.310  -2.571   2.007  0.00  0.00    +0.385 N 
ATOM     22  H   UNL     1      -5.768  -2.461   1.094  0.00  0.00    -0.085 HD
ATOM     23  H   UNL     1      -4.388  -3.004   1.877  0.00  0.00    -0.085 HD
BRANCH  21  24
ATOM     24  C   UNL     1      -6.138  -3.437   2.866  0.00  0.00    -0.077 C 
BRANCH  24  26
ATOM     25  C   UNL     1      -6.974  -4.630   0.837  0.00  0.00    +0.007 C 
ATOM     26  C   UNL     1      -6.296  -4.804   2.197  0.00  0.00    -0.065 C 
ATOM     27  C   UNL     1      -4.917  -5.439   2.003  0.00  0.00    +0.007 C 
BRANCH  26  28
ATOM     28  C   UNL     1      -7.154  -5.709   3.083  0.00  0.00    -0.075 C 
BRANCH  28  31
ATOM     29  C   UNL     1      -6.076  -7.873   2.955  0.00  0.00    -0.097 C 
ATOM     30  C   UNL     1      -8.487  -7.712   2.805  0.00  0.00    -0.097 C 
ATOM     31  N   UNL     1      -7.206  -7.054   2.471  0.00  0.00    +0.376 N 
ATOM     32  H   UNL     1      -7.136  -6.959   1.451  0.00  0.00    -0.083 HD
ENDBRANCH  28  31
ENDBRANCH  26  28
ENDBRANCH  24  26
ENDBRANCH  21  24
ENDBRANCH  20  21
ENDBRANCH   1  20
TORSDOF 9
