REMARK  Name = ZINC20970423
REMARK  9 active torsions:
REMARK  status: ('A' for Active; 'I' for Inactive)
REMARK    1  A    between atoms: C_6  and  C_7
REMARK    2  A    between atoms: C_7  and  C_9
REMARK    3  A    between atoms: C_7  and  N_28
REMARK    4  A    between atoms: C_9  and  C_10
REMARK    5  A    between atoms: C_10  and  O_12
REMARK    6  A    between atoms: O_12  and  C_13
REMARK    7  A    between atoms: C_13  and  C_14
REMARK    8  A    between atoms: N_16  and  C_17
REMARK    9  A    between atoms: C_21  and  C_23
REMARK                            x       y       z     vdW  Elec       q    Type
REMARK                         _______ _______ _______ _____ _____    ______ ____
ROOT
ATOM      1  C   UNL     1      -1.816   2.155   2.393  0.00  0.00    +0.310 C 
ATOM      2  O   UNL     1      -1.587   0.973   2.486  0.00  0.00    -0.251 OA
ENDROOT
BRANCH   1   3
ATOM      3  C   UNL     1      -2.005   2.782   1.036  0.00  0.00    +0.147 C 
BRANCH   3   4
ATOM      4  C   UNL     1      -1.857   1.710  -0.046  0.00  0.00    +0.115 C 
BRANCH   4  10
ATOM      5  C   UNL     1      -1.198   3.027  -2.069  0.00  0.00    +0.007 A 
ATOM      6  C   UNL     1      -1.480   3.573  -3.307  0.00  0.00    +0.020 A 
ATOM      7  C   UNL     1      -2.736   3.410  -3.865  0.00  0.00    +0.041 A 
ATOM      8  C   UNL     1      -3.707   2.696  -3.186  0.00  0.00    +0.020 A 
ATOM      9  C   UNL     1      -3.422   2.146  -1.950  0.00  0.00    +0.007 A 
ATOM     10  C   UNL     1      -2.167   2.309  -1.393  0.00  0.00    -0.027 A 
ATOM     11 CL   UNL     1      -3.093   4.103  -5.416  0.00  0.00    -0.084 Cl
ENDBRANCH   4  10
BRANCH   4  12
ATOM     12  N   UNL     1      -0.484   1.199  -0.042  0.00  0.00    -0.292 N 
ATOM     13  C   UNL     1      -0.216  -0.016  -0.561  0.00  0.00    +0.298 C 
ATOM     14  O   UNL     1      -1.123  -0.722  -0.958  0.00  0.00    -0.253 OA
ATOM     15  N   UNL     1       1.058  -0.448  -0.641  0.00  0.00    -0.313 N 
ATOM     16  H   UNL     1       0.327   1.806   0.384  0.00  0.00    +0.151 HD
ATOM     17  H   UNL     1       1.277  -1.439  -1.064  0.00  0.00    +0.146 HD
ATOM     18  H   UNL     1       1.879   0.190  -0.282  0.00  0.00    +0.146 HD
ENDBRANCH   4  12
ENDBRANCH   3   4
ENDBRANCH   1   3
BRANCH   1  19
ATOM     19  O   UNL     1      -1.903   2.911   3.499  0.00  0.00    -0.455 OA
BRANCH  19  20
ATOM     20  C   UNL     1      -1.710   2.241   4.772  0.00  0.00    +0.328 C 
BRANCH  20  21
ATOM     21  C   UNL     1      -1.842   3.241   5.892  0.00  0.00    +0.255 C 
ATOM     22  O   UNL     1      -2.076   4.404   5.641  0.00  0.00    -0.272 OA
ATOM     23  N   UNL     1      -1.701   2.843   7.172  0.00  0.00    -0.283 N 
ATOM     24  H   UNL     1      -1.573   1.775   7.405  0.00  0.00    +0.155 HD
BRANCH  23  25
ATOM     25  C   UNL     1      -1.717   3.788   8.204  0.00  0.00    +0.034 A 
ATOM     26  C   UNL     1      -1.193   5.057   7.994  0.00  0.00    +0.025 A 
ATOM     27  C   UNL     1      -1.215   5.988   9.013  0.00  0.00    +0.022 A 
ATOM     28  C   UNL     1      -1.748   5.655  10.246  0.00  0.00    +0.053 A 
ATOM     29  C   UNL     1      -2.265   4.389  10.460  0.00  0.00    +0.075 A 
ATOM     30  C   UNL     1      -2.251   3.455   9.442  0.00  0.00    +0.037 A 
ATOM     31 CL   UNL     1      -1.767   6.827  11.527  0.00  0.00    -0.083 Cl
BRANCH  29  32
ATOM     32  C   UNL     1      -2.845   4.030  11.804  0.00  0.00    +0.419 C 
ATOM     33  F   UNL     1      -3.301   2.708  11.776  0.00  0.00    -0.166 F 
ATOM     34  F   UNL     1      -1.859   4.162  12.787  0.00  0.00    -0.166 F 
ATOM     35  F   UNL     1      -3.912   4.886  12.095  0.00  0.00    -0.166 F 
ENDBRANCH  29  32
ENDBRANCH  23  25
ENDBRANCH  20  21
ENDBRANCH  19  20
ENDBRANCH   1  19
TORSDOF 9
