REMARK  Name = ZINC39509304
REMARK  6 active torsions:
REMARK  status: ('A' for Active; 'I' for Inactive)
REMARK    1  A    between atoms: C_1  and  C_2
REMARK    2  A    between atoms: C_2  and  C_33
REMARK    3  A    between atoms: C_4  and  N_21
REMARK    4  A    between atoms: N_10  and  C_14
REMARK    5  A    between atoms: N_21  and  C_22
REMARK    6  A    between atoms: C_22  and  C_23
REMARK                            x       y       z     vdW  Elec       q    Type
REMARK                         _______ _______ _______ _____ _____    ______ ____
ROOT
ATOM      1  C   UNL     1      -0.567   1.679   0.849  0.00  0.00    +0.011 C 
ATOM      2  C   UNL     1      -0.401   0.182   0.578  0.00  0.00    -0.035 C 
ATOM      3  C   UNL     1      -1.779  -0.468   0.515  0.00  0.00    -0.009 C 
ATOM      4  C   UNL     1      -1.682  -1.997   0.379  0.00  0.00    -0.065 C 
ATOM      5  C   UNL     1      -0.888  -2.499   1.571  0.00  0.00    +0.012 C 
ATOM      6  C   UNL     1      -0.552  -3.997   1.577  0.00  0.00    +0.106 C 
ATOM      7  N   UNL     1       0.725  -4.026   2.345  0.00  0.00    -0.240 NA
ATOM      8  N   UNL     1       1.329  -2.785   2.291  0.00  0.00    -0.264 N 
ATOM      9  C   UNL     1       0.549  -1.920   1.412  0.00  0.00    +0.094 C 
ATOM     10  C   UNL     1       0.468  -0.436   1.687  0.00  0.00    +0.030 C 
ATOM     11  C   UNL     1       0.301  -0.006  -0.769  0.00  0.00    +0.011 C 
ATOM     12  H   UNL     1       1.342  -4.744   1.995  0.00  0.00    +0.144 HD
ENDROOT
BRANCH   8  13
ATOM     13  C   UNL     1       2.486  -2.406   2.978  0.00  0.00    +0.045 A 
ATOM     14  C   UNL     1       2.623  -2.707   4.327  0.00  0.00    +0.027 A 
ATOM     15  C   UNL     1       3.768  -2.332   5.004  0.00  0.00    +0.040 A 
ATOM     16  C   UNL     1       4.777  -1.657   4.339  0.00  0.00    +0.124 A 
ATOM     17  C   UNL     1       4.642  -1.356   2.994  0.00  0.00    +0.040 A 
ATOM     18  C   UNL     1       3.502  -1.734   2.312  0.00  0.00    +0.027 A 
ATOM     19  F   UNL     1       5.895  -1.291   5.003  0.00  0.00    -0.205 F 
ENDBRANCH   8  13
BRANCH   4  20
ATOM     20  N   UNL     1      -3.027  -2.587   0.386  0.00  0.00    +0.385 N 
ATOM     21  H   UNL     1      -2.953  -3.594   0.379  0.00  0.00    -0.085 HD
ATOM     22  H   UNL     1      -3.520  -2.292   1.215  0.00  0.00    -0.085 HD
BRANCH  20  23
ATOM     23  C   UNL     1      -3.763  -2.143  -0.806  0.00  0.00    -0.028 C 
BRANCH  23  24
ATOM     24  C   UNL     1      -5.143  -2.749  -0.798  0.00  0.00    -0.000 A 
ATOM     25  H   UNL     1      -4.828  -4.609  -1.681  0.00  0.00    +0.166 HD
ATOM     26  C   UNL     1      -6.245  -2.149  -0.322  0.00  0.00    +0.029 A 
ATOM     27  C   UNL     1      -7.357  -3.084  -0.511  0.00  0.00    -0.000 A 
ATOM     28  C   UNL     1      -8.722  -3.038  -0.224  0.00  0.00    +0.010 A 
ATOM     29  C   UNL     1      -9.516  -4.106  -0.533  0.00  0.00    +0.001 A 
ATOM     30  C   UNL     1      -8.976  -5.237  -1.130  0.00  0.00    +0.002 A 
ATOM     31  C   UNL     1      -7.631  -5.303  -1.422  0.00  0.00    +0.026 A 
ATOM     32  C   UNL     1      -6.804  -4.228  -1.116  0.00  0.00    +0.047 A 
ATOM     33  N   UNL     1      -5.459  -3.989  -1.282  0.00  0.00    -0.360 N 
ENDBRANCH  23  24
ENDBRANCH  20  23
ENDBRANCH   4  20
TORSDOF 4
