REMARK  Name = ZINC44168150
REMARK  11 active torsions:
REMARK  status: ('A' for Active; 'I' for Inactive)
REMARK    1  A    between atoms: C_1  and  C_2
REMARK    2  A    between atoms: C_2  and  C_3
REMARK    3  A    between atoms: C_8  and  C_9
REMARK    4  A    between atoms: C_14  and  C_17
REMARK    5  A    between atoms: N_19  and  C_20
REMARK    6  A    between atoms: C_20  and  C_21
REMARK    7  A    between atoms: C_26  and  C_27
REMARK    8  A    between atoms: C_28  and  C_34
REMARK    9  A    between atoms: C_28  and  C_35
REMARK   10  A    between atoms: C_31  and  C_32
REMARK   11  A    between atoms: C_31  and  C_33
REMARK                            x       y       z     vdW  Elec       q    Type
REMARK                         _______ _______ _______ _____ _____    ______ ____
ROOT
ATOM      1  C   UNL     1       2.886  -0.246  -0.027  0.00  0.00    -0.030 C 
ATOM      2  C   UNL     1       2.940  -1.453   0.917  0.00  0.00    +0.058 C 
ATOM      3  S   UNL     1       3.855  -0.967   2.413  0.00  0.00    -0.163 S 
ATOM      4  C   UNL     1       5.362  -0.209   1.729  0.00  0.00    +0.062 C 
ATOM      5  C   UNL     1       4.947   0.811   0.663  0.00  0.00    +0.027 C 
ATOM      6  N   UNL     1       4.243   0.131  -0.427  0.00  0.00    +0.392 N 
ATOM      7  H   UNL     1       4.755  -0.699  -0.685  0.00  0.00    -0.084 HD
ATOM      8  H   UNL     1       4.194   0.749  -1.223  0.00  0.00    -0.084 HD
ENDROOT
BRANCH   1  14
ATOM      9  C   UNL     1       0.707  -0.490  -1.238  0.00  0.00    -0.046 A 
ATOM     10  C   UNL     1      -0.019  -0.817  -2.364  0.00  0.00    +0.008 A 
ATOM     11  C   UNL     1       0.622  -1.264  -3.512  0.00  0.00    -0.038 A 
ATOM     12  C   UNL     1       1.994  -1.378  -3.527  0.00  0.00    -0.038 A 
ATOM     13  C   UNL     1       2.723  -1.051  -2.391  0.00  0.00    +0.006 A 
ATOM     14  C   UNL     1       2.085  -0.604  -1.252  0.00  0.00    -0.057 A 
ATOM     15  C   UNL     1       2.756  -1.840  -4.741  0.00  0.00    -0.010 C 
ATOM     16  C   UNL     1       1.826  -2.553  -5.720  0.00  0.00    +0.012 C 
ATOM     17  C   UNL     1       0.611  -1.654  -5.976  0.00  0.00    +0.012 C 
ATOM     18  C   UNL     1      -0.233  -1.611  -4.703  0.00  0.00    -0.010 C 
ATOM     19  C   UNL     1      -1.331  -0.557  -4.861  0.00  0.00    +0.016 C 
ATOM     20  C   UNL     1      -0.878  -2.980  -4.479  0.00  0.00    +0.016 C 
ATOM     21  C   UNL     1       3.385  -0.629  -5.433  0.00  0.00    +0.016 C 
ATOM     22  C   UNL     1       3.864  -2.802  -4.306  0.00  0.00    +0.016 C 
BRANCH   9  24
ATOM     23  C   UNL     1      -0.019   1.526   0.010  0.00  0.00    +0.009 C 
ATOM     24  C   UNL     1       0.002  -0.004   0.002  0.00  0.00    +0.032 C 
ENDBRANCH   9  24
ENDBRANCH   1  14
BRANCH   5  25
ATOM     25  C   UNL     1       6.174   1.493   0.117  0.00  0.00    +0.200 C 
ATOM     26  O   UNL     1       6.437   1.414  -1.064  0.00  0.00    -0.278 OA
ATOM     27  N   UNL     1       6.980   2.192   0.941  0.00  0.00    -0.313 N 
ATOM     28  H   UNL     1       6.770   2.255   1.886  0.00  0.00    +0.149 HD
BRANCH  27  29
ATOM     29  C   UNL     1       8.174   2.855   0.410  0.00  0.00    +0.139 C 
BRANCH  29  30
ATOM     30  C   UNL     1       8.896   3.561   1.529  0.00  0.00    -0.027 A 
ATOM     31  C   UNL     1       8.734   4.923   1.704  0.00  0.00    +0.005 A 
ATOM     32  C   UNL     1       9.396   5.571   2.730  0.00  0.00    +0.000 A 
ATOM     33  C   UNL     1      10.220   4.857   3.581  0.00  0.00    +0.000 A 
ATOM     34  C   UNL     1      10.380   3.495   3.406  0.00  0.00    +0.003 A 
ATOM     35  C   UNL     1       9.715   2.847   2.382  0.00  0.00    -0.046 A 
ATOM     36  C   UNL     1       9.886   1.361   2.195  0.00  0.00    +0.044 C 
ENDBRANCH  29  30
ENDBRANCH  27  29
ENDBRANCH   5  25
TORSDOF 5
