REMARK  Name = ZINC42361633
REMARK  10 active torsions:
REMARK  status: ('A' for Active; 'I' for Inactive)
REMARK    1  A    between atoms: C_1  and  C_2
REMARK    2  A    between atoms: C_2  and  O_3
REMARK    3  A    between atoms: O_3  and  C_4
REMARK    4  A    between atoms: C_9  and  C_10
REMARK    5  A    between atoms: C_10  and  C_12
REMARK    6  A    between atoms: C_10  and  N_14
REMARK    7  A    between atoms: C_12  and  N_13
REMARK    8  A    between atoms: N_14  and  C_15
REMARK    9  A    between atoms: N_14  and  C_16
REMARK   10  A    between atoms: C_16  and  C_17
REMARK                            x       y       z     vdW  Elec       q    Type
REMARK                         _______ _______ _______ _____ _____    ______ ____
ROOT
ATOM      1  C   UNL     1       1.587  -1.180  -3.442  0.00  0.00    +0.073 C 
ENDROOT
BRANCH   1   7
ATOM      2  C   UNL     1      -0.014  -1.395  -1.523  0.00  0.00    +0.125 A 
ATOM      3  C   UNL     1      -0.913  -2.132  -0.766  0.00  0.00    +0.046 A 
ATOM      4  C   UNL     1      -1.178  -3.447  -1.097  0.00  0.00    +0.004 A 
ATOM      5  C   UNL     1      -0.547  -4.029  -2.181  0.00  0.00    +0.001 A 
ATOM      6  C   UNL     1       0.350  -3.297  -2.937  0.00  0.00    +0.009 A 
ATOM      7  C   UNL     1       0.614  -1.980  -2.614  0.00  0.00    +0.010 A 
BRANCH   2   8
ATOM      8  O   UNL     1       0.248  -0.101  -1.200  0.00  0.00    -0.492 OA
BRANCH   8  10
ATOM      9  C   UNL     1      -0.015   1.892   0.141  0.00  0.00    +0.048 C 
ATOM     10  C   UNL     1      -0.434   0.435  -0.065  0.00  0.00    +0.225 C 
ENDBRANCH   8  10
ENDBRANCH   2   8
ENDBRANCH   1   7
BRANCH   1  11
ATOM     11  N   UNL     1       1.809  -1.858  -4.726  0.00  0.00    -0.296 NA
ATOM     12  C   UNL     1       2.779  -2.951  -4.583  0.00  0.00    +0.105 C 
BRANCH  11  13
ATOM     13  C   UNL     1       2.239  -0.904  -5.757  0.00  0.00    +0.120 C 
BRANCH  13  14
ATOM     14  C   UNL     1       2.073  -1.528  -7.119  0.00  0.00    -0.025 A 
ATOM     15  C   UNL     1       3.102  -2.254  -7.688  0.00  0.00    +0.028 A 
ATOM     16  C   UNL     1       2.920  -2.802  -8.915  0.00  0.00    +0.055 A 
ATOM     17  S   UNL     1       1.253  -2.293  -9.303  0.00  0.00    -0.090 S 
ATOM     18  C   UNL     1       0.910  -1.389  -7.801  0.00  0.00    +0.051 A 
ATOM     19 BR   UNL     1       4.120  -3.836  -9.948  0.00  0.00    -0.043 Br
ENDBRANCH  13  14
ENDBRANCH  11  13
ENDBRANCH   1  11
BRANCH   1  20
ATOM     20  C   UNL     1       2.915  -1.059  -2.692  0.00  0.00    -0.062 C 
BRANCH  20  21
ATOM     21  N   UNL     1       3.874  -0.308  -3.513  0.00  0.00    +0.379 N 
ATOM     22  H   UNL     1       4.205  -0.895  -4.265  0.00  0.00    -0.090 HD
ATOM     23  H   UNL     1       3.421   0.507  -3.898  0.00  0.00    -0.090 HD
ATOM     24  H   UNL     1       4.654  -0.022  -2.941  0.00  0.00    -0.090 HD
ENDBRANCH  20  21
ENDBRANCH   1  20
TORSDOF 8
