REMARK  Name = ZINC38688852
REMARK  6 active torsions:
REMARK  status: ('A' for Active; 'I' for Inactive)
REMARK    1  A    between atoms: C_1  and  C_2
REMARK    2  A    between atoms: C_2  and  N_3
REMARK    3  A    between atoms: C_4  and  C_16
REMARK    4  A    between atoms: C_17  and  C_18
REMARK    5  A    between atoms: C_21  and  O_27
REMARK    6  A    between atoms: O_27  and  C_28
REMARK                            x       y       z     vdW  Elec       q    Type
REMARK                         _______ _______ _______ _____ _____    ______ ____
ROOT
ATOM      1  N   UNL     1      -1.372  -0.511   0.012  0.00  0.00    -0.276 N 
ATOM      2  C   UNL     1      -2.036  -0.761   1.292  0.00  0.00    +0.185 C 
ATOM      3  N   UNL     1      -3.482  -0.539   1.167  0.00  0.00    -0.322 N 
ATOM      4  C   UNL     1      -4.138  -1.051   0.053  0.00  0.00    +0.041 A 
ATOM      5  C   UNL     1      -5.466  -1.438   0.099  0.00  0.00    +0.025 A 
ATOM      6  C   UNL     1      -6.071  -1.943  -1.036  0.00  0.00    +0.016 A 
ATOM      7  C   UNL     1      -5.357  -2.066  -2.219  0.00  0.00    +0.014 A 
ATOM      8  C   UNL     1      -4.033  -1.683  -2.282  0.00  0.00    +0.029 A 
ATOM      9  C   UNL     1      -3.412  -1.171  -1.145  0.00  0.00    +0.059 A 
ATOM     10  C   UNL     1      -2.005  -0.734  -1.158  0.00  0.00    +0.250 C 
ATOM     11  O   UNL     1      -1.419  -0.580  -2.213  0.00  0.00    -0.270 OA
ATOM     12  I   UNL     1      -6.298  -2.838  -3.925  0.00  0.00    -0.044 I 
ATOM     13  H   UNL     1      -3.968  -0.048   1.847  0.00  0.00    +0.148 HD
ENDROOT
BRANCH   1  15
ATOM     14  C   UNL     1      -0.019   1.526   0.010  0.00  0.00    +0.024 C 
ATOM     15  C   UNL     1       0.002  -0.004   0.002  0.00  0.00    +0.107 C 
ENDBRANCH   1  15
BRANCH   2  16
ATOM     16  C   UNL     1      -1.787  -2.186   1.713  0.00  0.00    +0.015 C 
ATOM     17  C   UNL     1      -1.158  -2.444   2.869  0.00  0.00    +0.005 C 
BRANCH  17  18
ATOM     18  C   UNL     1      -0.925  -3.778   3.263  0.00  0.00    -0.019 C 
ATOM     19  C   UNL     1      -0.298  -4.213   4.423  0.00  0.00    +0.006 A 
ATOM     20  C   UNL     1       0.275  -3.521   5.515  0.00  0.00    +0.056 A 
ATOM     21  C   UNL     1       0.833  -4.222   6.538  0.00  0.00    +0.121 A 
ATOM     22  C   UNL     1       0.857  -5.625   6.539  0.00  0.00    +0.047 A 
ATOM     23  C   UNL     1       0.328  -6.349   5.527  0.00  0.00    +0.029 A 
ATOM     24  C   UNL     1      -0.275  -5.687   4.422  0.00  0.00    +0.043 A 
ATOM     25  N   UNL     1      -0.848  -6.155   3.335  0.00  0.00    -0.380 N 
ATOM     26  C   UNL     1      -1.313  -5.033   2.514  0.00  0.00    +0.149 C 
ATOM     27  H   UNL     1      -0.951  -7.094   3.113  0.00  0.00    +0.160 HD
BRANCH  21  28
ATOM     28  O   UNL     1       1.382  -3.547   7.583  0.00  0.00    -0.495 OA
ATOM     29  C   UNL     1       1.956  -4.331   8.631  0.00  0.00    +0.277 C 
ENDBRANCH  21  28
ENDBRANCH  17  18
ENDBRANCH   2  16
TORSDOF 4
