REMARK  Name = ZINC12309882
REMARK  10 active torsions:
REMARK  status: ('A' for Active; 'I' for Inactive)
REMARK    1  A    between atoms: C_1  and  C_2
REMARK    2  A    between atoms: C_2  and  C_3
REMARK    3  A    between atoms: C_2  and  C_4
REMARK    4  A    between atoms: C_10  and  N_11
REMARK    5  A    between atoms: N_11  and  O_12
REMARK    6  A    between atoms: O_12  and  C_13
REMARK    7  A    between atoms: C_13  and  C_14
REMARK    8  A    between atoms: C_14  and  O_15
REMARK    9  A    between atoms: N_18  and  C_23
REMARK   10  A    between atoms: N_21  and  C_22
REMARK                            x       y       z     vdW  Elec       q    Type
REMARK                         _______ _______ _______ _____ _____    ______ ____
ROOT
ATOM      1  C   UNL     1       1.019   5.962  -0.734  0.00  0.00    -0.003 A 
ATOM      2  C   UNL     1       2.087   5.152  -0.654  0.00  0.00    +0.090 A 
ATOM      3  N   UNL     1       1.965   3.825  -0.341  0.00  0.00    -0.347 N 
ATOM      4  H   UNL     1       2.854   3.244  -0.055  0.00  0.00    +0.167 HD
ATOM      5  C   UNL     1       0.767   3.183  -0.370  0.00  0.00    +0.129 A 
ATOM      6  C   UNL     1      -0.412   3.920  -0.435  0.00  0.00    +0.106 A 
ATOM      7  C   UNL     1      -0.319   5.392  -0.482  0.00  0.00    +0.082 A 
ATOM      8  C   UNL     1      -1.655   3.245  -0.455  0.00  0.00    +0.268 A 
ATOM      9  O   UNL     1      -2.699   3.870  -0.508  0.00  0.00    -0.267 OA
ATOM     10  N   UNL     1      -1.661   1.895  -0.419  0.00  0.00    -0.263 N 
ATOM     11  C   UNL     1      -0.510   1.203  -0.355  0.00  0.00    +0.333 A 
ATOM     12  O   UNL     1      -0.553  -0.011  -0.321  0.00  0.00    -0.246 OA
ATOM     13  N   UNL     1       0.688   1.815  -0.332  0.00  0.00    -0.282 N 
ATOM     14  C   UNL     1       1.914   1.015  -0.266  0.00  0.00    +0.155 C 
ATOM     15  C   UNL     1      -2.937   1.176  -0.445  0.00  0.00    +0.157 C 
ENDROOT
BRANCH   1  17
ATOM     16  C   UNL     1       1.513   8.207   0.197  0.00  0.00    +0.012 C 
ATOM     17  C   UNL     1       1.183   7.421  -1.074  0.00  0.00    +0.016 C 
ATOM     18  C   UNL     1       2.319   7.585  -2.085  0.00  0.00    +0.012 C 
ENDBRANCH   1  17
BRANCH   7  19
ATOM     19  N   UNL     1      -1.374   6.156  -0.308  0.00  0.00    -0.265 N 
ATOM     20  H   UNL     1      -1.381   7.182  -0.705  0.00  0.00    +0.194 HD
BRANCH  19  21
ATOM     21  O   UNL     1      -2.501   5.659   0.391  0.00  0.00    -0.272 OA
BRANCH  21  22
ATOM     22  C   UNL     1      -3.573   6.596   0.505  0.00  0.00    +0.220 C 
BRANCH  22  23
ATOM     23  C   UNL     1      -4.731   5.956   1.274  0.00  0.00    +0.186 C 
BRANCH  23  24
ATOM     24  O   UNL     1      -4.320   5.686   2.615  0.00  0.00    -0.393 OA
ATOM     25  H   UNL     1      -5.023   5.222   3.323  0.00  0.00    +0.209 HD
ENDBRANCH  23  24
ENDBRANCH  22  23
ENDBRANCH  21  22
ENDBRANCH  19  21
ENDBRANCH   7  19
TORSDOF 6
