REMARK  Name = ZINC37392430
REMARK  3 active torsions:
REMARK  status: ('A' for Active; 'I' for Inactive)
REMARK    1  A    between atoms: C_3  and  N_9
REMARK    2  A    between atoms: C_10  and  C_12
REMARK    3  A    between atoms: C_15  and  O_19
REMARK                            x       y       z     vdW  Elec       q    Type
REMARK                         _______ _______ _______ _____ _____    ______ ____
ROOT
ATOM      1  N   UNL     1       3.584   2.127  -0.021  0.00  0.00    -0.286 N 
ATOM      2  C   UNL     1       3.568   3.471  -0.116  0.00  0.00    +0.203 C 
ATOM      3  O   UNL     1       2.512   4.067  -0.103  0.00  0.00    -0.277 OA
ATOM      4  H   UNL     1       4.429   1.656   0.049  0.00  0.00    +0.155 HD
ENDROOT
BRANCH   1   7
ATOM      5  C   UNL     1       0.065   1.243  -0.620  0.00  0.00    +0.017 A 
ATOM      6  C   UNL     1       1.250   1.953  -0.618  0.00  0.00    +0.026 A 
ATOM      7  C   UNL     1       2.381   1.410  -0.024  0.00  0.00    +0.052 A 
ATOM      8  C   UNL     1       2.318   0.154   0.567  0.00  0.00    +0.063 A 
ATOM      9  C   UNL     1       1.129  -0.551   0.562  0.00  0.00    +0.037 A 
ATOM     10  C   UNL     1       0.004  -0.007  -0.031  0.00  0.00    +0.019 A 
ATOM     11 BR   UNL     1      -1.621  -0.974  -0.036  0.00  0.00    -0.050 Br
ATOM     12 CL   UNL     1       3.730  -0.529   1.311  0.00  0.00    -0.082 Cl
ENDBRANCH   1   7
BRANCH   2  13
ATOM     13  C   UNL     1       4.862   4.234  -0.238  0.00  0.00    +0.019 C 
ATOM     14  C   UNL     1       5.506   4.445   1.155  0.00  0.00    +0.023 C 
ATOM     15  C   UNL     1       6.389   5.696   0.942  0.00  0.00    +0.097 C 
ATOM     16  C   UNL     1       5.786   6.410  -0.282  0.00  0.00    -0.050 C 
ATOM     17  N   UNL     1       4.612   5.618  -0.715  0.00  0.00    +0.388 N 
ATOM     18  H   UNL     1       4.532   5.630  -1.721  0.00  0.00    -0.085 HD
ATOM     19  H   UNL     1       3.772   5.985  -0.293  0.00  0.00    -0.085 HD
BRANCH  15  20
ATOM     20  O   UNL     1       7.739   5.311   0.678  0.00  0.00    -0.394 OA
ATOM     21  H   UNL     1       8.340   6.055   0.535  0.00  0.00    +0.210 HD
ENDBRANCH  15  20
ENDBRANCH   2  13
TORSDOF 3
