REMARK  Name = ZINC36397258
REMARK  7 active torsions:
REMARK  status: ('A' for Active; 'I' for Inactive)
REMARK    1  A    between atoms: C_1  and  C_2
REMARK    2  A    between atoms: N_5  and  C_7
REMARK    3  A    between atoms: C_10  and  C_13
REMARK    4  A    between atoms: C_23  and  C_30
REMARK    5  A    between atoms: C_25  and  C_27
REMARK    6  A    between atoms: C_27  and  C_28
REMARK    7  A    between atoms: C_27  and  C_29
REMARK                            x       y       z     vdW  Elec       q    Type
REMARK                         _______ _______ _______ _____ _____    ______ ____
ROOT
ATOM      1  C   UNL     1       0.109  -6.696   3.951  0.00  0.00    +0.247 C 
ATOM      2  O   UNL     1       0.005  -7.805   3.462  0.00  0.00    -0.270 OA
ATOM      3  N   UNL     1       0.210  -6.556   5.288  0.00  0.00    -0.295 N 
ATOM      4  C   UNL     1       0.209  -5.221   5.902  0.00  0.00    +0.127 C 
ATOM      5  C   UNL     1      -0.909  -5.165   6.951  0.00  0.00    +0.125 C 
ATOM      6  N   UNL     1      -0.796  -6.345   7.820  0.00  0.00    -0.312 N 
ATOM      7  C   UNL     1      -0.795  -7.680   7.206  0.00  0.00    +0.125 C 
ATOM      8  C   UNL     1       0.316  -7.736   6.157  0.00  0.00    +0.127 C 
ATOM      9  C   UNL     1      -0.693  -6.200   9.194  0.00  0.00    +0.125 A 
ATOM     10  C   UNL     1      -0.922  -4.961   9.797  0.00  0.00    +0.064 A 
ATOM     11  C   UNL     1      -0.807  -4.869  11.170  0.00  0.00    +0.017 A 
ATOM     12  N   UNL     1      -0.484  -5.950  11.866  0.00  0.00    -0.347 N 
ATOM     13  C   UNL     1      -0.273  -7.105  11.267  0.00  0.00    +0.112 A 
ATOM     14  N   UNL     1      -0.379  -7.240   9.961  0.00  0.00    -0.219 NA
ATOM     15  C   UNL     1      -1.044  -3.555  11.868  0.00  0.00    +0.063 C 
ATOM     16  H   UNL     1      -0.402  -5.890  12.830  0.00  0.00    +0.167 HD
ENDROOT
BRANCH   1  20
ATOM     17  C   UNL     1       0.152  -3.266   1.447  0.00  0.00    +0.065 A 
ATOM     18  C   UNL     1      -0.606  -4.375   1.090  0.00  0.00    +0.028 A 
ATOM     19  C   UNL     1      -0.623  -5.489   1.900  0.00  0.00    +0.015 A 
ATOM     20  C   UNL     1       0.124  -5.504   3.080  0.00  0.00    +0.037 A 
ATOM     21  C   UNL     1       0.885  -4.388   3.435  0.00  0.00    +0.015 A 
ATOM     22  C   UNL     1       0.901  -3.279   2.618  0.00  0.00    +0.028 A 
BRANCH  17  27
ATOM     23  C   UNL     1       1.216   1.255  -0.285  0.00  0.00    +0.067 C 
ATOM     24  C   UNL     1       0.645  -0.131  -0.135  0.00  0.00    +0.060 A 
ATOM     25  C   UNL     1      -0.233  -0.757  -1.028  0.00  0.00    +0.044 A 
ATOM     26  C   UNL     1      -0.514  -1.988  -0.544  0.00  0.00    +0.115 A 
ATOM     27  N   UNL     1       0.166  -2.136   0.623  0.00  0.00    -0.240 N 
ATOM     28  N   UNL     1       0.888  -0.957   0.850  0.00  0.00    -0.172 NA
ENDBRANCH  17  27
ENDBRANCH   1  20
BRANCH  13  29
ATOM     29  C   UNL     1       0.092  -8.306  12.101  0.00  0.00    +0.049 C 
ATOM     30  C   UNL     1       1.602  -8.316  12.347  0.00  0.00    +0.015 C 
ATOM     31  C   UNL     1      -0.643  -8.240  13.441  0.00  0.00    +0.015 C 
ENDBRANCH  13  29
TORSDOF 3
