REMARK  Name = ZINC12452785
REMARK  5 active torsions:
REMARK  status: ('A' for Active; 'I' for Inactive)
REMARK    1  A    between atoms: C_6  and  C_7
REMARK    2  A    between atoms: C_12  and  C_13
REMARK    3  A    between atoms: C_12  and  N_66
REMARK    4  A    between atoms: C_16  and  C_21
REMARK    5  A    between atoms: N_23  and  C_24
REMARK                            x       y       z     vdW  Elec       q    Type
REMARK                         _______ _______ _______ _____ _____    ______ ____
ROOT
ATOM      1  C   UNL     1      -1.199   1.617   0.022  0.00  0.00    +0.003 A 
ATOM      2  C   UNL     1      -1.259   2.973   0.051  0.00  0.00    +0.020 A 
ATOM      3  C   UNL     1      -0.085   3.725   0.043  0.00  0.00    +0.020 A 
ATOM      4  C   UNL     1       1.141   3.063   0.010  0.00  0.00    +0.101 A 
ATOM      5  C   UNL     1       1.152   1.645  -0.014  0.00  0.00    +0.261 A 
ATOM      6  O   UNL     1       2.211   1.042  -0.044  0.00  0.00    -0.267 OA
ATOM      7  N   UNL     1      -0.012   0.966  -0.005  0.00  0.00    -0.327 N 
ATOM      8  H   UNL     1       0.001  -0.004  -0.021  0.00  0.00    +0.169 HD
ENDROOT
BRANCH   4   9
ATOM      9  C   UNL     1       2.401   3.821   0.000  0.00  0.00    +0.250 C 
ATOM     10  O   UNL     1       2.380   5.035  -0.086  0.00  0.00    -0.270 OA
ATOM     11  N   UNL     1       3.579   3.172   0.087  0.00  0.00    -0.308 N 
ATOM     12  H   UNL     1       3.600   2.203   0.082  0.00  0.00    +0.149 HD
BRANCH  11  13
ATOM     13  C   UNL     1       4.828   3.931   0.190  0.00  0.00    +0.079 C 
ATOM     14  C   UNL     1       5.309   4.314  -1.211  0.00  0.00    +0.010 C 
ATOM     15  C   UNL     1       6.614   5.106  -1.103  0.00  0.00    +0.009 C 
ATOM     16  C   UNL     1       7.677   4.247  -0.415  0.00  0.00    -0.010 C 
ATOM     17  C   UNL     1       7.917   2.979  -1.236  0.00  0.00    +0.007 C 
ATOM     18  C   UNL     1       6.613   2.186  -1.343  0.00  0.00    -0.010 C 
ATOM     19  C   UNL     1       5.550   3.045  -2.031  0.00  0.00    +0.009 C 
ATOM     20  C   UNL     1       6.131   1.804   0.058  0.00  0.00    +0.009 C 
ATOM     21  C   UNL     1       5.891   3.072   0.878  0.00  0.00    +0.010 C 
ATOM     22  C   UNL     1       7.195   3.865   0.986  0.00  0.00    +0.009 C 
ENDBRANCH  11  13
ENDBRANCH   4   9
BRANCH   1  23
ATOM     23  C   UNL     1      -2.478   0.820   0.025  0.00  0.00    -0.024 C 
BRANCH  23  29
ATOM     24  C   UNL     1      -2.708  -1.801  -3.260  0.00  0.00    -0.048 C 
ATOM     25  C   UNL     1      -1.528  -1.447  -2.802  0.00  0.00    -0.041 C 
ATOM     26  C   UNL     1      -1.346  -0.597  -1.577  0.00  0.00    -0.050 C 
ATOM     27  C   UNL     1      -3.708  -0.883  -1.184  0.00  0.00    -0.073 C 
ATOM     28  C   UNL     1      -3.993  -1.381  -2.603  0.00  0.00    +0.017 C 
ATOM     29  N   UNL     1      -2.607   0.098  -1.261  0.00  0.00    +0.386 N 
ATOM     30  H   UNL     1      -2.813   0.775  -2.005  0.00  0.00    -0.081 HD
BRANCH  24  36
ATOM     31  C   UNL     1      -3.347  -2.149  -5.642  0.00  0.00    +0.011 A 
ATOM     32  C   UNL     1      -3.401  -2.940  -6.770  0.00  0.00    +0.039 A 
ATOM     33  C   UNL     1      -2.898  -4.231  -6.739  0.00  0.00    +0.123 A 
ATOM     34  C   UNL     1      -2.334  -4.732  -5.577  0.00  0.00    +0.039 A 
ATOM     35  C   UNL     1      -2.270  -3.947  -4.445  0.00  0.00    +0.011 A 
ATOM     36  C   UNL     1      -2.775  -2.647  -4.471  0.00  0.00    -0.022 A 
ATOM     37  F   UNL     1      -2.958  -5.004  -7.846  0.00  0.00    -0.205 F 
ENDBRANCH  24  36
ENDBRANCH  23  29
ENDBRANCH   1  23
TORSDOF 5
