REMARK  Name = ZINC66156262
REMARK  9 active torsions:
REMARK  status: ('A' for Active; 'I' for Inactive)
REMARK    1  A    between atoms: C_1  and  C_2
REMARK    2  A    between atoms: C_2  and  O_3
REMARK    3  A    between atoms: O_3  and  C_4
REMARK    4  A    between atoms: C_9  and  N_12
REMARK    5  A    between atoms: C_13  and  C_15
REMARK    6  A    between atoms: C_15  and  N_16
REMARK    7  A    between atoms: C_20  and  C_23
REMARK    8  A    between atoms: C_23  and  C_24
REMARK    9  A    between atoms: C_24  and  C_25
REMARK                            x       y       z     vdW  Elec       q    Type
REMARK                         _______ _______ _______ _____ _____    ______ ____
ROOT
ATOM      1  N   UNL     1      -6.017  -3.787   2.206  0.00  0.00    -0.314 N 
ATOM      2  C   UNL     1      -6.821  -4.862   2.081  0.00  0.00    +0.197 C 
ATOM      3  O   UNL     1      -6.813  -5.510   1.056  0.00  0.00    -0.278 OA
ATOM      4  H   UNL     1      -6.024  -3.269   3.025  0.00  0.00    +0.149 HD
ENDROOT
BRANCH   1  10
ATOM      5  C   UNL     1      -1.497  -1.836   0.006  0.00  0.00    +0.403 C 
ATOM      6  O   UNL     1      -0.523  -2.563  -0.007  0.00  0.00    -0.226 OA
ATOM      7  N   UNL     1      -2.735  -2.368   0.015  0.00  0.00    -0.267 N 
ATOM      8  C   UNL     1      -3.922  -1.502   0.025  0.00  0.00    +0.113 C 
ATOM      9  C   UNL     1      -4.819  -1.908   1.199  0.00  0.00    +0.041 C 
ATOM     10  C   UNL     1      -5.132  -3.402   1.103  0.00  0.00    +0.076 C 
ATOM     11  C   UNL     1      -3.832  -4.205   1.189  0.00  0.00    +0.041 C 
ATOM     12  C   UNL     1      -2.924  -3.825   0.009  0.00  0.00    +0.113 C 
BRANCH   5  13
ATOM     13  O   UNL     1      -1.339  -0.499   0.012  0.00  0.00    -0.451 OA
BRANCH  13  15
ATOM     14  C   UNL     1      -0.019   1.526   0.010  0.00  0.00    +0.048 C 
ATOM     15  C   UNL     1       0.002  -0.004   0.002  0.00  0.00    +0.230 C 
ENDBRANCH  13  15
ENDBRANCH   5  13
ENDBRANCH   1  10
BRANCH   2  16
ATOM     16  C   UNL     1      -7.731  -5.258   3.215  0.00  0.00    +0.019 C 
BRANCH  16  17
ATOM     17  N   UNL     1      -8.498  -6.451   2.833  0.00  0.00    +0.386 N 
ATOM     18  C   UNL     1      -7.581  -7.582   2.647  0.00  0.00    -0.078 C 
ATOM     19  C   UNL     1      -8.365  -8.806   2.171  0.00  0.00    -0.018 C 
ATOM     20  C   UNL     1      -9.420  -9.170   3.221  0.00  0.00    -0.000 C 
ATOM     21  C   UNL     1     -10.325  -7.958   3.461  0.00  0.00    -0.027 C 
ATOM     22  C   UNL     1      -9.469  -6.765   3.889  0.00  0.00    -0.075 C 
ATOM     23  H   UNL     1      -8.989  -6.272   1.970  0.00  0.00    -0.081 HD
BRANCH  21  24
ATOM     24  C   UNL     1     -11.335  -8.285   4.563  0.00  0.00    +0.011 C 
BRANCH  24  25
ATOM     25  C   UNL     1     -12.268  -9.399   4.085  0.00  0.00    +0.096 C 
BRANCH  25  26
ATOM     26  C   UNL     1     -13.263  -9.722   5.171  0.00  0.00    +0.210 C 
ATOM     27  O   UNL     1     -13.228  -9.119   6.223  0.00  0.00    -0.276 OA
ATOM     28  N   UNL     1     -14.190 -10.679   4.973  0.00  0.00    -0.329 N 
ATOM     29  H   UNL     1     -14.218 -11.161   4.131  0.00  0.00    +0.145 HD
ATOM     30  H   UNL     1     -14.830 -10.886   5.672  0.00  0.00    +0.145 HD
ENDBRANCH  25  26
ENDBRANCH  24  25
ENDBRANCH  21  24
ENDBRANCH  16  17
ENDBRANCH   2  16
TORSDOF 8
