REMARK  Name = ZINC63835613
REMARK  2 active torsions:
REMARK  status: ('A' for Active; 'I' for Inactive)
REMARK    1  A    between atoms: C_7  and  N_10
REMARK    2  A    between atoms: C_11  and  C_13
REMARK                            x       y       z     vdW  Elec       q    Type
REMARK                         _______ _______ _______ _____ _____    ______ ____
ROOT
ATOM      1  N   UNL     1       0.700  -3.088  -0.022  0.00  0.00    -0.285 N 
ATOM      2  C   UNL     1      -0.625  -2.872   0.093  0.00  0.00    +0.240 C 
ATOM      3  O   UNL     1      -1.056  -1.739   0.104  0.00  0.00    -0.273 OA
ATOM      4  H   UNL     1       1.039  -3.993  -0.105  0.00  0.00    +0.155 HD
ENDROOT
BRANCH   1  11
ATOM      5  C   UNL     1       5.194  -2.924  -0.060  0.00  0.00    +0.001 A 
ATOM      6  C   UNL     1       5.698  -1.620  -0.056  0.00  0.00    +0.002 A 
ATOM      7  C   UNL     1       4.884  -0.538  -0.041  0.00  0.00    +0.026 A 
ATOM      8  C   UNL     1       3.475  -0.714  -0.031  0.00  0.00    +0.044 A 
ATOM      9  N   UNL     1       2.487   0.158  -0.016  0.00  0.00    -0.379 N 
ATOM     10  C   UNL     1       1.211  -0.564  -0.010  0.00  0.00    +0.164 C 
ATOM     11  C   UNL     1       1.564  -2.035  -0.023  0.00  0.00    +0.039 C 
ATOM     12  C   UNL     1       2.947  -2.089  -0.035  0.00  0.00    +0.017 A 
ATOM     13  C   UNL     1       3.861  -3.170  -0.051  0.00  0.00    +0.011 A 
ATOM     14  H   UNL     1       2.588   1.123  -0.010  0.00  0.00    +0.160 HD
ENDBRANCH   1  11
BRANCH   2  15
ATOM     15  C   UNL     1      -1.571  -4.039   0.209  0.00  0.00    +0.188 C 
ATOM     16  C   UNL     1      -1.920  -4.606  -1.173  0.00  0.00    +0.092 C 
ATOM     17  C   UNL     1      -0.958  -5.698  -1.557  0.00  0.00    -0.015 C 
ATOM     18  C   UNL     1      -1.481  -6.785  -2.143  0.00  0.00    -0.003 C 
ATOM     19  C   UNL     1      -2.914  -6.902  -2.392  0.00  0.00    +0.002 C 
ATOM     20  C   UNL     1      -3.827  -6.066  -1.848  0.00  0.00    +0.025 C 
ATOM     21  C   UNL     1      -3.383  -4.996  -1.016  0.00  0.00    +0.068 C 
ATOM     22  N   UNL     1      -3.870  -4.324  -0.029  0.00  0.00    -0.190 NA
ATOM     23  N   UNL     1      -2.906  -3.599   0.684  0.00  0.00    -0.256 N 
ATOM     24  H   UNL     1      -3.079  -2.931   1.365  0.00  0.00    +0.169 HD
ENDBRANCH   2  15
TORSDOF 2
