REMARK  Name = ZINC08936566
REMARK  6 active torsions:
REMARK  status: ('A' for Active; 'I' for Inactive)
REMARK    1  A    between atoms: C_1  and  C_2
REMARK    2  A    between atoms: C_2  and  C_21
REMARK    3  A    between atoms: N_5  and  C_9
REMARK    4  A    between atoms: C_9  and  C_10
REMARK    5  A    between atoms: N_12  and  C_13
REMARK    6  A    between atoms: C_14  and  C_18
REMARK                            x       y       z     vdW  Elec       q    Type
REMARK                         _______ _______ _______ _____ _____    ______ ____
ROOT
ATOM      1  C   UNL     1       7.391   7.624   1.085  0.00  0.00    +0.047 C 
ATOM      2  C   UNL     1       6.600   6.405   0.608  0.00  0.00    +0.136 C 
ATOM      3  C   UNL     1       5.169   6.472   1.103  0.00  0.00    +0.251 C 
ATOM      4  O   UNL     1       4.792   6.489   2.255  0.00  0.00    -0.272 OA
ATOM      5  N   UNL     1       4.402   6.507  -0.005  0.00  0.00    -0.215 N 
ATOM      6  C   UNL     1       5.142   6.479  -1.119  0.00  0.00    +0.310 C 
ATOM      7  O   UNL     1       4.676   6.506  -2.241  0.00  0.00    -0.252 OA
ATOM      8  N   UNL     1       6.461   6.418  -0.858  0.00  0.00    -0.281 N 
ATOM      9  H   UNL     1       7.179   6.390  -1.509  0.00  0.00    +0.152 HD
ENDROOT
BRANCH   2  10
ATOM     10  C   UNL     1       7.264   5.132   1.066  0.00  0.00    +0.003 A 
ATOM     11  C   UNL     1       7.674   4.193   0.137  0.00  0.00    +0.009 A 
ATOM     12  C   UNL     1       8.283   3.026   0.555  0.00  0.00    +0.020 A 
ATOM     13  C   UNL     1       8.483   2.795   1.905  0.00  0.00    +0.042 A 
ATOM     14  C   UNL     1       8.074   3.734   2.835  0.00  0.00    +0.040 A 
ATOM     15  C   UNL     1       7.470   4.905   2.415  0.00  0.00    +0.048 A 
ATOM     16 CL   UNL     1       6.963   6.087   3.581  0.00  0.00    -0.083 Cl
ATOM     17 CL   UNL     1       9.249   1.329   2.431  0.00  0.00    -0.083 Cl
ENDBRANCH   2  10
BRANCH   5  18
ATOM     18  C   UNL     1       2.938   6.574   0.009  0.00  0.00    +0.214 C 
BRANCH  18  19
ATOM     19  C   UNL     1       2.372   5.177   0.007  0.00  0.00    +0.236 C 
ATOM     20  O   UNL     1       3.117   4.220  -0.005  0.00  0.00    -0.274 OA
ATOM     21  N   UNL     1       1.037   4.991   0.018  0.00  0.00    -0.278 N 
ATOM     22  H   UNL     1       0.441   5.756   0.028  0.00  0.00    +0.155 HD
BRANCH  21  23
ATOM     23  C   UNL     1       0.516   3.706   0.016  0.00  0.00    +0.084 A 
ATOM     24  C   UNL     1      -0.818   3.316   0.027  0.00  0.00    +0.065 A 
ATOM     25  C   UNL     1      -1.079   1.896   0.017  0.00  0.00    +0.022 A 
ATOM     26  C   UNL     1      -0.013   1.076   0.008  0.00  0.00    +0.048 A 
ATOM     27  S   UNL     1       1.369   2.200   0.001  0.00  0.00    -0.081 S 
BRANCH  24  28
ATOM     28  C   UNL     1      -1.907   4.298   0.042  0.00  0.00    +0.244 C 
ATOM     29  O   UNL     1      -1.653   5.488   0.045  0.00  0.00    -0.270 OA
ATOM     30  N   UNL     1      -3.189   3.882   0.052  0.00  0.00    -0.325 N 
ATOM     31  H   UNL     1      -3.391   2.933   0.049  0.00  0.00    +0.145 HD
ATOM     32  H   UNL     1      -3.909   4.532   0.062  0.00  0.00    +0.145 HD
ENDBRANCH  24  28
ENDBRANCH  21  23
ENDBRANCH  18  19
ENDBRANCH   5  18
TORSDOF 5
