REMARK  Name = ZINC67162137
REMARK  8 active torsions:
REMARK  status: ('A' for Active; 'I' for Inactive)
REMARK    1  A    between atoms: C_1  and  C_2
REMARK    2  A    between atoms: C_2  and  C_4
REMARK    3  A    between atoms: C_2  and  N_10
REMARK    4  A    between atoms: C_11  and  C_13
REMARK    5  A    between atoms: C_13  and  C_14
REMARK    6  A    between atoms: C_14  and  C_15
REMARK    7  A    between atoms: C_15  and  C_16
REMARK    8  A    between atoms: C_16  and  C_17
REMARK                            x       y       z     vdW  Elec       q    Type
REMARK                         _______ _______ _______ _____ _____    ______ ____
ROOT
ATOM      1  C   UNL     1       4.245  -1.105  -2.204  0.00  0.00    +0.009 C 
ENDROOT
BRANCH   1   2
ATOM      2  C   UNL     1       2.736  -1.073  -2.455  0.00  0.00    +0.096 C 
BRANCH   2   4
ATOM      3  N   UNL     1       0.688  -0.476  -1.203  0.00  0.00    -0.308 N 
ATOM      4  C   UNL     1       2.031  -0.587  -1.215  0.00  0.00    +0.213 C 
ATOM      5  O   UNL     1       2.672  -0.295  -0.228  0.00  0.00    -0.276 OA
ATOM      6  H   UNL     1       0.175  -0.710  -1.993  0.00  0.00    +0.149 HD
BRANCH   3   8
ATOM      7  C   UNL     1      -0.019   1.526   0.010  0.00  0.00    +0.033 C 
ATOM      8  C   UNL     1       0.002  -0.004   0.002  0.00  0.00    +0.107 C 
BRANCH   8   9
ATOM      9  C   UNL     1      -1.412  -0.526   0.013  0.00  0.00    +0.011 A 
ATOM     10  C   UNL     1      -2.141  -0.993   1.055  0.00  0.00    +0.014 A 
ATOM     11  C   UNL     1      -3.435  -1.425   0.828  0.00  0.00    +0.028 A 
ATOM     12  C   UNL     1      -3.935  -1.368  -0.431  0.00  0.00    +0.078 A 
ATOM     13  S   UNL     1      -2.563  -0.681  -1.343  0.00  0.00    -0.080 S 
ATOM     14 CL   UNL     1      -5.505  -1.836  -1.006  0.00  0.00    -0.076 Cl
ENDBRANCH   8   9
ENDBRANCH   3   8
ENDBRANCH   2   4
ENDBRANCH   1   2
BRANCH   1  15
ATOM     15  C   UNL     1       4.961  -1.599  -3.462  0.00  0.00    +0.002 C 
BRANCH  15  16
ATOM     16  C   UNL     1       6.470  -1.631  -3.211  0.00  0.00    +0.016 C 
BRANCH  16  17
ATOM     17  C   UNL     1       7.186  -2.125  -4.470  0.00  0.00    +0.069 C 
ATOM     18  C   UNL     1       8.681  -2.141  -4.276  0.00  0.00    +0.108 C 
ATOM     19  C   UNL     1       9.071  -3.453  -3.527  0.00  0.00    +0.105 C 
ATOM     20  C   UNL     1       8.576  -4.590  -4.418  0.00  0.00    +0.093 C 
ATOM     21  S   UNL     1       6.860  -3.925  -4.764  0.00  0.00    -0.154 S 
ATOM     22  N   UNL     1      10.482  -3.202  -3.336  0.00  0.00    -0.294 N 
ATOM     23  C   UNL     1      10.593  -1.849  -3.180  0.00  0.00    +0.300 C 
ATOM     24  O   UNL     1      11.591  -1.300  -2.754  0.00  0.00    -0.253 OA
ATOM     25  N   UNL     1       9.458  -1.189  -3.538  0.00  0.00    -0.294 N 
ATOM     26  H   UNL     1      11.198  -3.856  -3.322  0.00  0.00    +0.151 HD
ATOM     27  H   UNL     1       9.230  -0.267  -3.340  0.00  0.00    +0.151 HD
ENDBRANCH  16  17
ENDBRANCH  15  16
ENDBRANCH   1  15
TORSDOF 7
