REMARK  Name = ZINC04818747
REMARK  8 active torsions:
REMARK  status: ('A' for Active; 'I' for Inactive)
REMARK    1  A    between atoms: C_1  and  C_2
REMARK    2  A    between atoms: C_2  and  C_23
REMARK    3  A    between atoms: C_4  and  N_9
REMARK    4  A    between atoms: C_6  and  C_7
REMARK    5  A    between atoms: C_6  and  C_8
REMARK    6  A    between atoms: N_9  and  C_10
REMARK    7  A    between atoms: C_10  and  N_12
REMARK    8  A    between atoms: N_12  and  C_13
REMARK                            x       y       z     vdW  Elec       q    Type
REMARK                         _______ _______ _______ _____ _____    ______ ____
ROOT
ATOM      1  N   UNL     1      -4.839   3.718  -0.136  0.00  0.00    -0.324 N 
ATOM      2  H   UNL     1      -4.866   4.687  -0.131  0.00  0.00    +0.148 HD
ENDROOT
BRANCH   1   6
ATOM      3  C   UNL     1      -8.622   1.955   1.268  0.00  0.00    -0.010 C 
ATOM      4  C   UNL     1      -8.559   3.028   0.175  0.00  0.00    -0.072 C 
ATOM      5  C   UNL     1      -7.244   3.796   0.289  0.00  0.00    +0.009 C 
ATOM      6  C   UNL     1      -6.086   2.949  -0.239  0.00  0.00    +0.069 C 
ATOM      7  C   UNL     1      -6.355   2.620  -1.707  0.00  0.00    +0.009 C 
ATOM      8  C   UNL     1      -7.660   1.840  -1.846  0.00  0.00    -0.072 C 
ATOM      9  C   UNL     1      -7.443   0.392  -1.389  0.00  0.00    -0.010 C 
ATOM     10  C   UNL     1      -8.017   1.796  -3.349  0.00  0.00    -0.010 C 
ATOM     11  C   UNL     1      -9.706   4.027   0.448  0.00  0.00    -0.010 C 
ATOM     12  N   UNL     1      -8.834   2.454  -1.169  0.00  0.00    +0.386 N 
ATOM     13  H   UNL     1      -9.189   3.207  -1.770  0.00  0.00    -0.084 HD
ATOM     14  H   UNL     1      -9.555   1.731  -1.065  0.00  0.00    -0.084 HD
ENDBRANCH   1   6
BRANCH   1  15
ATOM     15  C   UNL     1      -3.657   3.076  -0.049  0.00  0.00    +0.135 C 
ATOM     16  S   UNL     1      -3.610   1.365  -0.058  0.00  0.00    -0.019 S 
BRANCH  15  17
ATOM     17  N   UNL     1      -2.513   3.781   0.045  0.00  0.00    -0.296 N 
ATOM     18  H   UNL     1      -2.543   4.748   0.113  0.00  0.00    +0.154 HD
BRANCH  17  19
ATOM     19  C   UNL     1      -1.284   3.120   0.045  0.00  0.00    +0.040 A 
ATOM     20  C   UNL     1      -1.085   2.021   0.854  0.00  0.00    +0.024 A 
ATOM     21  C   UNL     1       0.139   1.358   0.865  0.00  0.00    +0.002 A 
ATOM     22  C   UNL     1       1.167   1.768   0.072  0.00  0.00    +0.008 A 
ATOM     23  C   UNL     1       1.004   2.880  -0.771  0.00  0.00    -0.016 A 
ATOM     24  C   UNL     1      -0.235   3.566  -0.787  0.00  0.00    +0.003 A 
ATOM     25  C   UNL     1      -0.398   4.676  -1.631  0.00  0.00    +0.010 A 
ATOM     26  C   UNL     1       0.636   5.079  -2.421  0.00  0.00    +0.001 A 
ATOM     27  C   UNL     1       1.855   4.405  -2.406  0.00  0.00    +0.001 A 
ATOM     28  C   UNL     1       2.048   3.324  -1.601  0.00  0.00    +0.008 A 
ENDBRANCH  17  19
ENDBRANCH  15  17
ENDBRANCH   1  15
TORSDOF 4
