REMARK  Name = ZINC36311285
REMARK  6 active torsions:
REMARK  status: ('A' for Active; 'I' for Inactive)
REMARK    1  A    between atoms: C_4  and  C_32
REMARK    2  A    between atoms: C_5  and  C_7
REMARK    3  A    between atoms: N_12  and  C_15
REMARK    4  A    between atoms: C_15  and  C_17
REMARK    5  A    between atoms: C_15  and  C_22
REMARK    6  A    between atoms: N_24  and  C_25
REMARK                            x       y       z     vdW  Elec       q    Type
REMARK                         _______ _______ _______ _____ _____    ______ ____
ROOT
ATOM      1  C   UNL     1       1.439  -1.321   1.903  0.00  0.00    +0.247 C 
ATOM      2  O   UNL     1       1.393  -0.329   2.603  0.00  0.00    -0.270 OA
ATOM      3  N   UNL     1       0.303  -1.846   1.402  0.00  0.00    -0.301 N 
ATOM      4  C   UNL     1      -0.988  -1.165   1.581  0.00  0.00    +0.089 C 
ATOM      5  C   UNL     1      -2.000  -2.178   2.127  0.00  0.00    -0.058 C 
ATOM      6  N   UNL     1      -2.049  -3.347   1.239  0.00  0.00    +0.390 N 
ATOM      7  C   UNL     1      -0.753  -4.037   1.250  0.00  0.00    -0.058 C 
ATOM      8  C   UNL     1       0.321  -3.114   0.655  0.00  0.00    +0.089 C 
ATOM      9  H   UNL     1      -2.260  -3.045   0.300  0.00  0.00    -0.081 HD
ENDROOT
BRANCH   1  14
ATOM     10  C   UNL     1       4.317  -2.808   0.002  0.00  0.00    +0.001 A 
ATOM     11  C   UNL     1       5.180  -3.135   1.033  0.00  0.00    +0.001 A 
ATOM     12  C   UNL     1       4.830  -2.873   2.346  0.00  0.00    +0.013 A 
ATOM     13  C   UNL     1       3.617  -2.284   2.635  0.00  0.00    +0.067 A 
ATOM     14  C   UNL     1       2.741  -1.952   1.600  0.00  0.00    +0.049 A 
ATOM     15  C   UNL     1       3.101  -2.219   0.278  0.00  0.00    +0.013 A 
BRANCH  13  16
ATOM     16  C   UNL     1       3.237  -2.001   4.066  0.00  0.00    +0.418 C 
ATOM     17  F   UNL     1       4.267  -2.420   4.914  0.00  0.00    -0.166 F 
ATOM     18  F   UNL     1       3.028  -0.627   4.229  0.00  0.00    -0.166 F 
ATOM     19  F   UNL     1       2.062  -2.692   4.382  0.00  0.00    -0.166 F 
ENDBRANCH  13  16
ENDBRANCH   1  14
BRANCH   6  20
ATOM     20  C   UNL     1      -3.097  -4.267   1.701  0.00  0.00    +0.023 C 
BRANCH  20  21
ATOM     21  C   UNL     1      -3.148  -5.486   0.778  0.00  0.00    -0.016 C 
ATOM     22  C   UNL     1      -3.500  -5.047  -0.658  0.00  0.00    +0.002 C 
ATOM     23  C   UNL     1      -4.411  -6.181  -1.190  0.00  0.00    +0.000 C 
ATOM     24  C   UNL     1      -5.256  -6.552   0.054  0.00  0.00    +0.000 C 
ATOM     25  C   UNL     1      -4.265  -6.443   1.231  0.00  0.00    +0.002 C 
ENDBRANCH  20  21
BRANCH  20  26
ATOM     26  C   UNL     1      -4.429  -3.563   1.679  0.00  0.00    +0.204 C 
ATOM     27  O   UNL     1      -4.635  -2.680   0.874  0.00  0.00    -0.277 OA
ATOM     28  N   UNL     1      -5.392  -3.915   2.554  0.00  0.00    -0.287 N 
ATOM     29  H   UNL     1      -5.195  -4.548   3.263  0.00  0.00    +0.155 HD
BRANCH  28  30
ATOM     30  C   UNL     1      -6.675  -3.369   2.440  0.00  0.00    +0.033 A 
ATOM     31  C   UNL     1      -7.190  -3.057   1.189  0.00  0.00    +0.025 A 
ATOM     32  C   UNL     1      -8.456  -2.517   1.079  0.00  0.00    +0.022 A 
ATOM     33  C   UNL     1      -9.213  -2.287   2.215  0.00  0.00    +0.041 A 
ATOM     34  C   UNL     1      -8.702  -2.597   3.463  0.00  0.00    +0.022 A 
ATOM     35  C   UNL     1      -7.438  -3.142   3.578  0.00  0.00    +0.025 A 
ATOM     36 CL   UNL     1     -10.804  -1.608   2.073  0.00  0.00    -0.084 Cl
ENDBRANCH  28  30
ENDBRANCH  20  26
ENDBRANCH   6  20
TORSDOF 6
