REMARK  Name = ZINC14748784
REMARK  10 active torsions:
REMARK  status: ('A' for Active; 'I' for Inactive)
REMARK    1  A    between atoms: C_1  and  C_2
REMARK    2  A    between atoms: C_2  and  C_3
REMARK    3  A    between atoms: C_2  and  C_4
REMARK    4  A    between atoms: C_2  and  N_59
REMARK    5  A    between atoms: C_4  and  O_5
REMARK    6  A    between atoms: C_6  and  N_59
REMARK    7  A    between atoms: C_12  and  C_22
REMARK    8  A    between atoms: N_14  and  C_15
REMARK    9  A    between atoms: C_15  and  C_16
REMARK   10  A    between atoms: N_24  and  C_25
REMARK                            x       y       z     vdW  Elec       q    Type
REMARK                         _______ _______ _______ _____ _____    ______ ____
ROOT
ATOM      1  C   UNL     1       4.716   5.529   0.125  0.00  0.00    -0.066 C 
ATOM      2  C   UNL     1       4.513   6.334   1.412  0.00  0.00    -0.009 C 
ATOM      3  C   UNL     1       3.080   6.881   1.457  0.00  0.00    +0.054 C 
ATOM      4  C   UNL     1       2.130   5.746   1.177  0.00  0.00    +0.043 A 
ATOM      5  C   UNL     1       2.504   4.567   0.621  0.00  0.00    +0.004 A 
ATOM      6  C   UNL     1       1.335   3.792   0.536  0.00  0.00    +0.150 A 
ATOM      7  N   UNL     1       0.354   4.532   1.024  0.00  0.00    -0.166 NA
ATOM      8  N   UNL     1       0.808   5.676   1.407  0.00  0.00    -0.267 N 
ATOM      9  C   UNL     1       3.908   4.227   0.203  0.00  0.00    +0.023 C 
ENDROOT
BRANCH   6  10
ATOM     10  C   UNL     1       1.222   2.421  -0.001  0.00  0.00    +0.264 C 
ATOM     11  O   UNL     1       2.209   1.852  -0.427  0.00  0.00    -0.268 OA
ATOM     12  N   UNL     1       0.026   1.800  -0.019  0.00  0.00    -0.313 N 
ATOM     13  C   UNL     1      -0.085   0.440  -0.551  0.00  0.00    +0.128 C 
ATOM     14  H   UNL     1      -0.762   2.255   0.317  0.00  0.00    +0.149 HD
ENDBRANCH   6  10
BRANCH   1  15
ATOM     15  N   UNL     1       6.147   5.205  -0.027  0.00  0.00    +0.386 N 
ATOM     16  H   UNL     1       6.647   5.468   0.830  0.00  0.00    -0.085 HD
ATOM     17  H   UNL     1       6.250   4.197  -0.188  0.00  0.00    -0.085 HD
BRANCH  15  19
ATOM     18  C   UNL     1       6.500   7.443  -0.977  0.00  0.00    -0.008 C 
ATOM     19  C   UNL     1       6.719   5.942  -1.170  0.00  0.00    -0.050 C 
ATOM     20  C   UNL     1       8.220   5.652  -1.252  0.00  0.00    -0.008 C 
BRANCH  19  21
ATOM     21  C   UNL     1       6.041   5.489  -2.465  0.00  0.00    +0.143 C 
BRANCH  21  22
ATOM     22  O   UNL     1       6.673   6.122  -3.580  0.00  0.00    -0.396 OA
ATOM     23  H   UNL     1       6.293   5.880  -4.436  0.00  0.00    +0.209 HD
ENDBRANCH  21  22
ENDBRANCH  19  21
ENDBRANCH  15  19
ENDBRANCH   1  15
BRANCH   8  24
ATOM     24  C   UNL     1       0.001   6.745   2.000  0.00  0.00    +0.147 C 
BRANCH  24  25
ATOM     25  C   UNL     1      -0.537   7.652   0.891  0.00  0.00    +0.010 C 
ATOM     26  C   UNL     1       0.630   8.361   0.202  0.00  0.00    +0.005 C 
ATOM     27  C   UNL     1       0.092   9.268  -0.907  0.00  0.00    +0.000 C 
ATOM     28  C   UNL     1      -0.851  10.310  -0.300  0.00  0.00    +0.000 C 
ATOM     29  C   UNL     1      -2.018   9.600   0.389  0.00  0.00    +0.000 C 
ATOM     30  C   UNL     1      -1.480   8.693   1.498  0.00  0.00    +0.005 C 
ENDBRANCH  24  25
ENDBRANCH   8  24
TORSDOF 7
