REMARK  Name = ZINC03257692
REMARK  10 active torsions:
REMARK  status: ('A' for Active; 'I' for Inactive)
REMARK    1  A    between atoms: C_1  and  O_2
REMARK    2  A    between atoms: O_2  and  C_3
REMARK    3  A    between atoms: C_6  and  N_9
REMARK    4  A    between atoms: N_9  and  S_10
REMARK    5  A    between atoms: S_10  and  C_13
REMARK    6  A    between atoms: C_17  and  C_19
REMARK    7  A    between atoms: N_21  and  N_22
REMARK    8  A    between atoms: C_23  and  C_25
REMARK    9  A    between atoms: C_25  and  C_33
REMARK   10  A    between atoms: C_26  and  C_27
REMARK                            x       y       z     vdW  Elec       q    Type
REMARK                         _______ _______ _______ _____ _____    ______ ____
ROOT
ATOM      1  C   UNL     1      -2.724  -0.524   0.484  0.00  0.00    +0.109 A 
ATOM      2  C   UNL     1      -3.296   0.705   0.763  0.00  0.00    +0.029 A 
ATOM      3  C   UNL     1      -4.523   1.042   0.220  0.00  0.00    +0.003 A 
ATOM      4  C   UNL     1      -5.188   0.150  -0.596  0.00  0.00    +0.013 A 
ATOM      5  C   UNL     1      -4.619  -1.093  -0.877  0.00  0.00    +0.040 A 
ATOM      6  C   UNL     1      -3.378  -1.425  -0.330  0.00  0.00    +0.042 A 
ENDROOT
BRANCH   5   7
ATOM      7  C   UNL     1      -5.326  -2.054  -1.750  0.00  0.00    +0.260 C 
ATOM      8  O   UNL     1      -4.828  -3.136  -1.992  0.00  0.00    -0.269 OA
ATOM      9  N   UNL     1      -6.524  -1.730  -2.277  0.00  0.00    -0.230 N 
ATOM     10  H   UNL     1      -6.921  -0.867  -2.083  0.00  0.00    +0.173 HD
BRANCH   9  11
ATOM     11  N   UNL     1      -7.194  -2.641  -3.104  0.00  0.00    -0.230 N 
ATOM     12  C   UNL     1      -8.392  -2.318  -3.631  0.00  0.00    +0.270 C 
ATOM     13  O   UNL     1      -8.890  -1.235  -3.388  0.00  0.00    -0.268 OA
ATOM     14  H   UNL     1      -6.796  -3.504  -3.297  0.00  0.00    +0.173 HD
BRANCH  12  15
ATOM     15  C   UNL     1      -9.096  -3.275  -4.500  0.00  0.00    +0.115 C 
ATOM     16  C   UNL     1     -10.310  -2.947  -5.034  0.00  0.00    +0.032 C 
BRANCH  16  17
ATOM     17  C   UNL     1     -10.938  -3.828  -6.025  0.00  0.00    -0.024 A 
ATOM     18  C   UNL     1     -10.145  -4.611  -6.874  0.00  0.00    +0.008 A 
ATOM     19  C   UNL     1     -10.743  -5.440  -7.798  0.00  0.00    +0.001 A 
ATOM     20  C   UNL     1     -12.123  -5.492  -7.897  0.00  0.00    +0.000 A 
ATOM     21  C   UNL     1     -12.914  -4.717  -7.066  0.00  0.00    +0.001 A 
ATOM     22  C   UNL     1     -12.333  -3.887  -6.132  0.00  0.00    +0.008 A 
ENDBRANCH  16  17
BRANCH  15  23
ATOM     23  C   UNL     1      -8.509  -4.549  -4.786  0.00  0.00    +0.104 C 
ATOM     24  N   UNL     1      -8.043  -5.560  -5.012  0.00  0.00    -0.191 NA
ENDBRANCH  15  23
ENDBRANCH  12  15
ENDBRANCH   9  11
ENDBRANCH   5   7
BRANCH   1  25
ATOM     25  S   UNL     1      -1.158  -0.941   1.177  0.00  0.00    +0.072 S 
ATOM     26  O   UNL     1      -1.042  -2.355   1.097  0.00  0.00    -0.150 OA
ATOM     27  O   UNL     1      -1.057  -0.236   2.407  0.00  0.00    -0.150 OA
BRANCH  25  28
ATOM     28  N   UNL     1       0.003  -0.314   0.176  0.00  0.00    -0.216 N 
ATOM     29  H   UNL     1       0.617   0.359   0.507  0.00  0.00    +0.174 HD
BRANCH  28  33
ATOM     30  C   UNL     1       0.287  -1.632  -3.769  0.00  0.00    +0.120 A 
ATOM     31  C   UNL     1       0.322  -0.274  -3.487  0.00  0.00    +0.047 A 
ATOM     32  C   UNL     1       0.228   0.163  -2.180  0.00  0.00    +0.028 A 
ATOM     33  C   UNL     1       0.098  -0.757  -1.149  0.00  0.00    +0.048 A 
ATOM     34  C   UNL     1       0.067  -2.116  -1.431  0.00  0.00    +0.028 A 
ATOM     35  C   UNL     1       0.156  -2.551  -2.739  0.00  0.00    +0.047 A 
BRANCH  30  37
ATOM     36  C   UNL     1       0.336  -3.473  -5.273  0.00  0.00    +0.277 C 
ATOM     37  O   UNL     1       0.380  -2.062  -5.056  0.00  0.00    -0.495 OA
ENDBRANCH  30  37
ENDBRANCH  28  33
ENDBRANCH  25  28
ENDBRANCH   1  25
TORSDOF 9
