REMARK  Name = ZINC30879705
REMARK  11 active torsions:
REMARK  status: ('A' for Active; 'I' for Inactive)
REMARK    1  A    between atoms: C_1  and  N_2
REMARK    2  A    between atoms: N_2  and  C_3
REMARK    3  A    between atoms: N_2  and  C_10
REMARK    4  A    between atoms: C_3  and  C_4
REMARK    5  A    between atoms: C_12  and  C_22
REMARK    6  A    between atoms: C_15  and  C_20
REMARK    7  A    between atoms: C_17  and  O_19
REMARK    8  A    between atoms: C_20  and  O_21
REMARK    9  A    between atoms: C_22  and  N_23
REMARK   10  A    between atoms: N_23  and  S_24
REMARK   11  A    between atoms: S_24  and  C_27
REMARK                            x       y       z     vdW  Elec       q    Type
REMARK                         _______ _______ _______ _____ _____    ______ ____
ROOT
ATOM      1  C   UNL     1      -1.316   1.982   1.655  0.00  0.00    -0.006 C 
ATOM      2  C   UNL     1      -2.322   3.157   1.718  0.00  0.00    +0.123 C 
ATOM      3  O   UNL     1      -2.230   3.789   0.422  0.00  0.00    -0.369 OA
ATOM      4  C   UNL     1      -2.132   2.704  -0.525  0.00  0.00    +0.171 C 
ATOM      5  C   UNL     1      -1.192   1.678   0.146  0.00  0.00    +0.134 C 
ENDROOT
BRANCH   1   7
ATOM      6  C   UNL     1       0.520   3.552   1.497  0.00  0.00    -0.095 C 
ATOM      7  N   UNL     1      -0.016   2.384   2.208  0.00  0.00    +0.386 N 
ATOM      8  H   UNL     1      -0.169   2.669   3.259  0.00  0.00    -0.081 HD
BRANCH   7   9
ATOM      9  C   UNL     1       0.938   1.267   2.178  0.00  0.00    -0.043 C 
BRANCH   9  10
ATOM     10  C   UNL     1       2.167   1.634   2.968  0.00  0.00    -0.064 A 
ATOM     11  C   UNL     1       3.233   2.251   2.339  0.00  0.00    +0.002 A 
ATOM     12  C   UNL     1       4.360   2.592   3.064  0.00  0.00    +0.000 A 
ATOM     13  C   UNL     1       4.424   2.309   4.416  0.00  0.00    +0.000 A 
ATOM     14  C   UNL     1       3.360   1.688   5.043  0.00  0.00    +0.000 A 
ATOM     15  C   UNL     1       2.232   1.350   4.319  0.00  0.00    +0.002 A 
ENDBRANCH   9  10
ENDBRANCH   7   9
ENDBRANCH   1   7
BRANCH   5  16
ATOM     16  O   UNL     1       0.154   1.870  -0.295  0.00  0.00    -0.391 OA
ATOM     17  H   UNL     1       0.418   1.696  -1.348  0.00  0.00    +0.210 HD
ENDBRANCH   5  16
BRANCH   4  18
ATOM     18  C   UNL     1      -1.528   3.199  -1.841  0.00  0.00    +0.190 C 
BRANCH  18  19
ATOM     19  O   UNL     1      -2.462   4.055  -2.501  0.00  0.00    -0.392 OA
ATOM     20  H   UNL     1      -2.203   4.510  -3.469  0.00  0.00    +0.210 HD
ENDBRANCH  18  19
ENDBRANCH   4  18
BRANCH   2  21
ATOM     21  C   UNL     1      -1.922   4.140   2.820  0.00  0.00    +0.136 C 
BRANCH  21  22
ATOM     22  N   UNL     1      -2.909   5.220   2.892  0.00  0.00    -0.188 NA
ATOM     23  H   UNL     1      -3.511   5.475   2.007  0.00  0.00    +0.148 HD
BRANCH  22  24
ATOM     24  S   UNL     1      -2.951   6.217   4.213  0.00  0.00    +0.058 S 
ATOM     25  O   UNL     1      -3.983   7.164   3.975  0.00  0.00    -0.153 OA
ATOM     26  O   UNL     1      -2.938   5.375   5.358  0.00  0.00    -0.153 OA
BRANCH  24  27
ATOM     27  C   UNL     1      -1.436   7.117   4.234  0.00  0.00    +0.105 A 
ATOM     28  C   UNL     1      -0.342   6.613   4.912  0.00  0.00    +0.031 A 
ATOM     29  C   UNL     1       0.848   7.316   4.925  0.00  0.00    +0.040 A 
ATOM     30  C   UNL     1       0.940   8.531   4.267  0.00  0.00    +0.124 A 
ATOM     31  C   UNL     1      -0.158   9.038   3.593  0.00  0.00    +0.040 A 
ATOM     32  C   UNL     1      -1.345   8.330   3.577  0.00  0.00    +0.031 A 
ATOM     33  F   UNL     1       2.102   9.221   4.283  0.00  0.00    -0.205 F 
ENDBRANCH  24  27
ENDBRANCH  22  24
ENDBRANCH  21  22
ENDBRANCH   2  21
TORSDOF 10
