REMARK  Name = ZINC32664978
REMARK  10 active torsions:
REMARK  status: ('A' for Active; 'I' for Inactive)
REMARK    1  A    between atoms: C_1  and  C_2
REMARK    2  A    between atoms: C_7  and  N_8
REMARK    3  A    between atoms: C_11  and  C_16
REMARK    4  A    between atoms: C_16  and  N_17
REMARK    5  A    between atoms: N_17  and  C_18
REMARK    6  A    between atoms: N_17  and  C_22
REMARK    7  A    between atoms: C_18  and  C_19
REMARK    8  A    between atoms: C_19  and  O_20
REMARK    9  A    between atoms: O_20  and  C_21
REMARK   10  A    between atoms: C_22  and  C_23
REMARK                            x       y       z     vdW  Elec       q    Type
REMARK                         _______ _______ _______ _____ _____    ______ ____
ROOT
ATOM      1  C   UNL     1       2.986   5.670   0.224  0.00  0.00    -0.000 C 
ENDROOT
BRANCH   1   5
ATOM      2  N   UNL     1       3.401   7.758   4.524  0.00  0.00    -0.283 N 
ATOM      3  C   UNL     1       3.302   6.605   3.770  0.00  0.00    +0.224 A 
ATOM      4  N   UNL     1       3.203   6.681   2.445  0.00  0.00    -0.201 NA
ATOM      5  C   UNL     1       3.103   5.579   1.723  0.00  0.00    +0.120 A 
ATOM      6  N   UNL     1       3.110   4.396   2.313  0.00  0.00    -0.202 NA
ATOM      7  C   UNL     1       3.213   4.311   3.637  0.00  0.00    +0.217 A 
ATOM      8  N   UNL     1       3.309   5.418   4.367  0.00  0.00    -0.181 NA
ATOM      9  N   UNL     1       3.221   3.076   4.252  0.00  0.00    -0.327 N 
ATOM     10  H   UNL     1       3.305   8.741   4.040  0.00  0.00    +0.155 HD
ATOM     11  H   UNL     1       3.306   3.007   5.347  0.00  0.00    +0.145 HD
ATOM     12  H   UNL     1       3.141   2.160   3.648  0.00  0.00    +0.145 HD
BRANCH   2  19
ATOM     13  C   UNL     1       2.597   9.952   6.148  0.00  0.00    +0.045 C 
ATOM     14  C   UNL     1       3.246   8.724   6.732  0.00  0.00    -0.029 A 
ATOM     15  C   UNL     1       3.467   8.639   8.093  0.00  0.00    +0.005 A 
ATOM     16  C   UNL     1       4.061   7.512   8.629  0.00  0.00    +0.000 A 
ATOM     17  C   UNL     1       4.437   6.466   7.806  0.00  0.00    +0.002 A 
ATOM     18  C   UNL     1       4.215   6.543   6.445  0.00  0.00    +0.023 A 
ATOM     19  C   UNL     1       3.623   7.676   5.902  0.00  0.00    +0.036 A 
ENDBRANCH   2  19
ENDBRANCH   1   5
BRANCH   1  20
ATOM     20  N   UNL     1       1.580   5.884  -0.145  0.00  0.00    +0.391 N 
ATOM     21  H   UNL     1       1.220   6.772   0.394  0.00  0.00    -0.081 HD
BRANCH  20  22
ATOM     22  C   UNL     1       1.447   6.146  -1.585  0.00  0.00    -0.049 C 
BRANCH  22  23
ATOM     23  C   UNL     1       1.782   7.611  -1.870  0.00  0.00    +0.141 C 
BRANCH  23  24
ATOM     24  O   UNL     1       3.197   7.799  -1.801  0.00  0.00    -0.385 OA
ATOM     25  C   UNL     1       3.611   9.159  -1.948  0.00  0.00    +0.193 C 
ENDBRANCH  23  24
ENDBRANCH  22  23
ENDBRANCH  20  22
BRANCH  20  26
ATOM     26  C   UNL     1       0.750   4.742   0.261  0.00  0.00    -0.003 C 
BRANCH  26  27
ATOM     27  C   UNL     1      -0.706   5.095   0.093  0.00  0.00    +0.094 A 
ATOM     28  N   UNL     1      -1.637   4.161   0.419  0.00  0.00    -0.312 N 
ATOM     29  C   UNL     1      -2.957   4.426   0.281  0.00  0.00    +0.259 A 
ATOM     30  O   UNL     1      -3.802   3.599   0.570  0.00  0.00    -0.267 OA
ATOM     31  C   UNL     1      -3.331   5.755  -0.226  0.00  0.00    +0.065 A 
ATOM     32  C   UNL     1      -4.662   6.128  -0.404  0.00  0.00    +0.015 A 
ATOM     33  C   UNL     1      -4.955   7.383  -0.892  0.00  0.00    +0.001 A 
ATOM     34  C   UNL     1      -3.938   8.276  -1.201  0.00  0.00    +0.002 A 
ATOM     35  C   UNL     1      -2.617   7.934  -1.011  0.00  0.00    +0.028 A 
ATOM     36  C   UNL     1      -2.294   6.663  -0.534  0.00  0.00    +0.078 A 
ATOM     37  N   UNL     1      -1.006   6.275  -0.356  0.00  0.00    -0.236 NA
ATOM     38  H   UNL     1      -1.321   3.178   0.800  0.00  0.00    +0.170 HD
ENDBRANCH  26  27
ENDBRANCH  20  26
ENDBRANCH   1  20
TORSDOF 8
