REMARK  Name = ZINC12483722
REMARK  9 active torsions:
REMARK  status: ('A' for Active; 'I' for Inactive)
REMARK    1  A    between atoms: C_1  and  C_2
REMARK    2  A    between atoms: C_2  and  N_46
REMARK    3  A    between atoms: C_3  and  C_4
REMARK    4  A    between atoms: C_3  and  N_46
REMARK    5  A    between atoms: C_5  and  N_46
REMARK    6  A    between atoms: C_7  and  O_25
REMARK    7  A    between atoms: C_9  and  N_18
REMARK    8  A    between atoms: N_21  and  C_22
REMARK    9  A    between atoms: C_22  and  C_23
REMARK                            x       y       z     vdW  Elec       q    Type
REMARK                         _______ _______ _______ _____ _____    ______ ____
ROOT
ATOM      1  C   UNL     1       1.093   3.103   0.026  0.00  0.00    +0.019 C 
ATOM      2  C   UNL     1       1.140   1.572   0.042  0.00  0.00    +0.129 C 
ATOM      3  C   UNL     1       1.883   1.075  -1.204  0.00  0.00    +0.132 C 
ATOM      4  C   UNL     1       1.250   1.728  -2.443  0.00  0.00    +0.169 C 
ATOM      5  C   UNL     1      -0.287   1.635  -2.291  0.00  0.00    +0.196 C 
ATOM      6  O   UNL     1      -0.665   2.842  -1.605  0.00  0.00    -0.350 OA
ATOM      7  C   UNL     1       0.547   3.568  -1.334  0.00  0.00    +0.240 C 
ATOM      8  O   UNL     1       1.491   3.154  -2.346  0.00  0.00    -0.345 OA
ENDROOT
BRANCH   3   9
ATOM      9  N   UNL     1       3.296   1.451  -1.117  0.00  0.00    -0.292 N 
ATOM     10  C   UNL     1       4.225   0.738  -1.783  0.00  0.00    +0.300 C 
ATOM     11  O   UNL     1       3.891  -0.218  -2.456  0.00  0.00    -0.253 OA
ATOM     12  N   UNL     1       5.525   1.084  -1.704  0.00  0.00    -0.296 N 
ATOM     13  H   UNL     1       3.563   2.214  -0.580  0.00  0.00    +0.151 HD
ATOM     14  H   UNL     1       5.792   1.847  -1.167  0.00  0.00    +0.151 HD
BRANCH  12  15
ATOM     15  C   UNL     1       6.536   0.309  -2.428  0.00  0.00    +0.132 C 
BRANCH  15  16
ATOM     16  C   UNL     1       7.899   0.899  -2.173  0.00  0.00    -0.016 C 
ATOM     17  C   UNL     1       8.862   0.144  -1.705  0.00  0.00    +0.005 C 
ENDBRANCH  15  16
ENDBRANCH  12  15
ENDBRANCH   3   9
BRANCH   2  18
ATOM     18  O   UNL     1      -0.192   1.053   0.042  0.00  0.00    -0.391 OA
ATOM     19  H   UNL     1      -0.237   0.087   0.052  0.00  0.00    +0.210 HD
ENDBRANCH   2  18
BRANCH   1  20
ATOM     20  N   UNL     1       2.462   3.629   0.205  0.00  0.00    +0.386 N 
ATOM     21  H   UNL     1       3.067   3.244  -0.529  0.00  0.00    -0.081 HD
BRANCH  20  23
ATOM     22  C   UNL     1       3.897   5.591  -0.059  0.00  0.00    -0.017 C 
ATOM     23  C   UNL     1       2.456   5.103   0.097  0.00  0.00    -0.082 C 
ENDBRANCH  20  23
BRANCH  20  24
ATOM     24  C   UNL     1       2.991   3.222   1.524  0.00  0.00    -0.082 C 
ATOM     25  C   UNL     1       2.018   3.617   2.637  0.00  0.00    -0.017 C 
ENDBRANCH  20  24
ENDBRANCH   1  20
TORSDOF 7
