REMARK  Name = ZINC01891926
REMARK  6 active torsions:
REMARK  status: ('A' for Active; 'I' for Inactive)
REMARK    1  A    between atoms: C_1  and  C_2
REMARK    2  A    between atoms: C_5  and  O_9
REMARK    3  A    between atoms: O_9  and  C_10
REMARK    4  A    between atoms: C_10  and  C_11
REMARK    5  A    between atoms: N_13  and  C_14
REMARK    6  A    between atoms: C_15  and  C_22
REMARK                            x       y       z     vdW  Elec       q    Type
REMARK                         _______ _______ _______ _____ _____    ______ ____
ROOT
ATOM      1  C   UNL     1       3.714  -0.859  -0.040  0.00  0.00    +0.255 C 
ATOM      2  O   UNL     1       4.664  -0.105  -0.044  0.00  0.00    -0.272 OA
ATOM      3  N   UNL     1       3.910  -2.192  -0.049  0.00  0.00    -0.277 N 
ATOM      4  H   UNL     1       3.150  -2.794  -0.045  0.00  0.00    +0.155 HD
ENDROOT
BRANCH   3   5
ATOM      5  C   UNL     1       5.199  -2.703  -0.065  0.00  0.00    +0.084 A 
ATOM      6  C   UNL     1       5.600  -4.028  -0.070  0.00  0.00    +0.068 A 
ATOM      7  C   UNL     1       7.036  -4.301  -0.091  0.00  0.00    -0.023 A 
ATOM      8  C   UNL     1       7.825  -3.211  -0.093  0.00  0.00    -0.004 A 
ATOM      9  S   UNL     1       6.699  -1.838  -0.074  0.00  0.00    -0.077 S 
ATOM     10  C   UNL     1       9.286  -3.572  -0.112  0.00  0.00    +0.043 C 
ATOM     11  C   UNL     1       9.315  -5.051  -0.559  0.00  0.00    +0.010 C 
ATOM     12  C   UNL     1       7.927  -5.544  -0.105  0.00  0.00    +0.037 C 
BRANCH   6  13
ATOM     13  C   UNL     1       4.619  -5.118  -0.060  0.00  0.00    +0.244 C 
ATOM     14  O   UNL     1       4.200  -5.569  -1.110  0.00  0.00    -0.270 OA
ATOM     15  N   UNL     1       4.181  -5.619   1.112  0.00  0.00    -0.325 N 
ATOM     16  H   UNL     1       4.515  -5.259   1.948  0.00  0.00    +0.145 HD
ATOM     17  H   UNL     1       3.533  -6.340   1.119  0.00  0.00    +0.145 HD
ENDBRANCH   6  13
ENDBRANCH   3   5
BRANCH   1  18
ATOM     18  C   UNL     1       2.313  -0.304  -0.023  0.00  0.00    +0.325 C 
BRANCH  18  19
ATOM     19  O   UNL     1       2.366   1.124  -0.015  0.00  0.00    -0.482 OA
BRANCH  19  24
ATOM     20  C   UNL     1      -2.554   3.866   0.046  0.00  0.00    +0.044 C 
ATOM     21  C   UNL     1      -1.238   3.133   0.030  0.00  0.00    -0.049 A 
ATOM     22  C   UNL     1      -1.218   1.751   0.017  0.00  0.00    +0.007 A 
ATOM     23  C   UNL     1      -0.013   1.076   0.008  0.00  0.00    +0.047 A 
ATOM     24  C   UNL     1       1.179   1.786   0.000  0.00  0.00    +0.135 A 
ATOM     25  C   UNL     1       1.157   3.174   0.008  0.00  0.00    +0.060 A 
ATOM     26  C   UNL     1      -0.052   3.844   0.023  0.00  0.00    +0.022 A 
ATOM     27 BR   UNL     1       2.778   4.147  -0.003  0.00  0.00    -0.047 Br
ENDBRANCH  19  24
ENDBRANCH  18  19
ENDBRANCH   1  18
TORSDOF 5
