REMARK  Name = ZINC56683037
REMARK  10 active torsions:
REMARK  status: ('A' for Active; 'I' for Inactive)
REMARK    1  A    between atoms: C_1  and  C_2
REMARK    2  A    between atoms: N_7  and  C_9
REMARK    3  A    between atoms: C_9  and  C_11
REMARK    4  A    between atoms: C_9  and  C_12
REMARK    5  A    between atoms: C_12  and  N_13
REMARK    6  A    between atoms: N_16  and  C_17
REMARK    7  A    between atoms: C_19  and  C_24
REMARK    8  A    between atoms: N_26  and  C_27
REMARK    9  A    between atoms: C_27  and  C_28
REMARK   10  A    between atoms: C_27  and  C_29
REMARK                            x       y       z     vdW  Elec       q    Type
REMARK                         _______ _______ _______ _____ _____    ______ ____
ROOT
ATOM      1  N   UNL     1       1.966  -4.564   1.338  0.00  0.00    -0.301 N 
ATOM      2  C   UNL     1       1.927  -5.894   1.123  0.00  0.00    +0.304 C 
ATOM      3  O   UNL     1       1.308  -6.615   1.882  0.00  0.00    -0.253 OA
ATOM      4  N   UNL     1       2.574  -6.424   0.067  0.00  0.00    -0.268 N 
ATOM      5  H   UNL     1       2.459  -3.989   0.733  0.00  0.00    +0.150 HD
ATOM      6  H   UNL     1       3.008  -5.844  -0.578  0.00  0.00    +0.156 HD
ENDROOT
BRANCH   4   7
ATOM      7  C   UNL     1       2.621  -7.814  -0.100  0.00  0.00    +0.054 A 
ATOM      8  C   UNL     1       1.549  -8.596   0.300  0.00  0.00    +0.038 A 
ATOM      9  C   UNL     1       1.599  -9.980   0.131  0.00  0.00    +0.039 A 
ATOM     10  C   UNL     1       2.730 -10.569  -0.440  0.00  0.00    +0.014 A 
ATOM     11  C   UNL     1       3.792  -9.782  -0.834  0.00  0.00    +0.022 A 
ATOM     12  C   UNL     1       3.740  -8.409  -0.672  0.00  0.00    +0.062 A 
ATOM     13 CL   UNL     1       5.078  -7.426  -1.179  0.00  0.00    -0.082 Cl
BRANCH   9  14
ATOM     14  C   UNL     1       0.460 -10.820   0.555  0.00  0.00    +0.244 C 
ATOM     15  O   UNL     1      -0.523 -10.306   1.052  0.00  0.00    -0.270 OA
ATOM     16  N   UNL     1       0.511 -12.157   0.391  0.00  0.00    -0.309 N 
ATOM     17  H   UNL     1       1.296 -12.568  -0.005  0.00  0.00    +0.149 HD
BRANCH  16  18
ATOM     18  C   UNL     1      -0.618 -12.990   0.812  0.00  0.00    +0.067 C 
ATOM     19  C   UNL     1      -1.660 -13.040  -0.307  0.00  0.00    +0.027 C 
ATOM     20  C   UNL     1      -0.123 -14.407   1.111  0.00  0.00    +0.027 C 
ENDBRANCH  16  18
ENDBRANCH   9  14
ENDBRANCH   4   7
BRANCH   1  21
ATOM     21  C   UNL     1       1.262  -3.987   2.486  0.00  0.00    +0.090 C 
BRANCH  21  22
ATOM     22  C   UNL     1       1.357  -2.461   2.429  0.00  0.00    -0.054 C 
ATOM     23  C   UNL     1       0.517  -1.855   3.555  0.00  0.00    -0.012 C 
BRANCH  22  29
ATOM     24  C   UNL     1      -2.561  -2.279  -0.502  0.00  0.00    +0.005 C 
ATOM     25  C   UNL     1      -1.080  -1.917  -0.374  0.00  0.00    -0.031 C 
ATOM     26  C   UNL     1      -0.906  -0.405  -0.539  0.00  0.00    -0.001 C 
ATOM     27  C   UNL     1       0.568  -0.044  -0.332  0.00  0.00    -0.018 C 
ATOM     28  C   UNL     1       1.017  -0.532   1.047  0.00  0.00    -0.078 C 
ATOM     29  N   UNL     1       0.851  -1.988   1.133  0.00  0.00    +0.383 N 
ATOM     30  C   UNL     1      -0.569  -2.337   1.006  0.00  0.00    -0.075 C 
ATOM     31  H   UNL     1       1.372  -2.429   0.390  0.00  0.00    -0.081 HD
ENDBRANCH  22  29
ENDBRANCH  21  22
ENDBRANCH   1  21
TORSDOF 6
