REMARK  Name = ZINC02118399
REMARK  5 active torsions:
REMARK  status: ('A' for Active; 'I' for Inactive)
REMARK    1  A    between atoms: C_1  and  O_2
REMARK    2  A    between atoms: O_2  and  C_3
REMARK    3  A    between atoms: C_5  and  C_11
REMARK    4  A    between atoms: C_8  and  O_9
REMARK    5  A    between atoms: C_11  and  N_46
REMARK                            x       y       z     vdW  Elec       q    Type
REMARK                         _______ _______ _______ _____ _____    ______ ____
ROOT
ATOM      1  C   UNL     1       4.221   5.009  -1.443  0.00  0.00    -0.073 C 
ATOM      2  C   UNL     1       4.667   5.219  -2.882  0.00  0.00    -0.007 C 
ATOM      3  C   UNL     1       3.680   6.120  -3.630  0.00  0.00    +0.011 C 
ATOM      4  C   UNL     1       2.297   5.466  -3.540  0.00  0.00    +0.020 C 
ATOM      5  C   UNL     1       1.906   5.380  -2.055  0.00  0.00    -0.069 C 
ATOM      6  C   UNL     1       2.381   4.052  -4.070  0.00  0.00    +0.023 A 
ATOM      7  C   UNL     1       1.259   3.522  -4.625  0.00  0.00    +0.022 A 
ATOM      8  C   UNL     1       1.247   2.198  -5.077  0.00  0.00    +0.007 A 
ATOM      9  C   UNL     1       2.372   1.441  -4.927  0.00  0.00    +0.070 A 
ATOM     10  C   UNL     1       3.510   2.017  -4.348  0.00  0.00    +0.251 A 
ATOM     11  O   UNL     1       4.502   1.332  -4.153  0.00  0.00    -0.268 OA
ATOM     12  N   UNL     1       3.522   3.328  -4.003  0.00  0.00    -0.312 N 
ATOM     13  C   UNL     1       4.814   3.903  -3.626  0.00  0.00    +0.126 C 
ATOM     14  N   UNL     1       2.854   4.451  -1.399  0.00  0.00    +0.383 N 
ATOM     15  H   UNL     1       2.844   3.555  -1.902  0.00  0.00    -0.081 HD
ENDROOT
BRANCH  14  16
ATOM     16  C   UNL     1       2.448   4.219   0.001  0.00  0.00    -0.043 C 
BRANCH  16  19
ATOM     17  C   UNL     1      -0.016   1.356   0.009  0.00  0.00    +0.163 A 
ATOM     18  C   UNL     1       1.173   2.066   0.002  0.00  0.00    +0.051 A 
ATOM     19  C   UNL     1       1.153   3.449   0.010  0.00  0.00    -0.059 A 
ATOM     20  C   UNL     1      -0.052   4.125   0.024  0.00  0.00    +0.020 A 
ATOM     21  C   UNL     1      -1.243   3.422   0.032  0.00  0.00    +0.059 A 
ATOM     22  C   UNL     1      -1.230   2.036   0.019  0.00  0.00    +0.172 A 
ATOM     23  I   UNL     1      -3.067   4.452   0.054  0.00  0.00    -0.040 I 
BRANCH  17  25
ATOM     24  C   UNL     1       1.284  -0.635  -0.014  0.00  0.00    +0.277 C 
ATOM     25  O   UNL     1       0.002  -0.004   0.002  0.00  0.00    -0.491 OA
ENDBRANCH  17  25
BRANCH  22  26
ATOM     26  O   UNL     1      -2.400   1.343   0.021  0.00  0.00    -0.503 OA
ATOM     27  H   UNL     1      -2.734   1.138   0.905  0.00  0.00    +0.292 HD
ENDBRANCH  22  26
ENDBRANCH  16  19
ENDBRANCH  14  16
TORSDOF 4
