REMARK  Name = ZINC53123674
REMARK  18 active torsions:
REMARK  status: ('A' for Active; 'I' for Inactive)
REMARK    1  A    between atoms: C_1  and  C_2
REMARK    2  A    between atoms: C_2  and  C_3
REMARK    3  A    between atoms: C_3  and  C_4
REMARK    4  A    between atoms: C_4  and  N_5
REMARK    5  A    between atoms: C_6  and  N_29
REMARK    6  A    between atoms: C_7  and  N_14
REMARK    7  A    between atoms: N_14  and  C_15
REMARK    8  A    between atoms: C_15  and  C_16
REMARK    9  A    between atoms: C_17  and  C_19
REMARK   10  A    between atoms: C_19  and  N_20
REMARK   11  A    between atoms: N_20  and  C_21
REMARK   12  A    between atoms: C_21  and  C_22
REMARK   13  A    between atoms: C_21  and  C_23
REMARK   14  A    between atoms: C_21  and  C_24
REMARK   15  A    between atoms: C_24  and  C_25
REMARK   16  A    between atoms: C_25  and  C_26
REMARK   17  A    between atoms: C_25  and  C_27
REMARK   18  A    between atoms: C_25  and  C_28
REMARK                            x       y       z     vdW  Elec       q    Type
REMARK                         _______ _______ _______ _____ _____    ______ ____
ROOT
ATOM      1  N   UNL     1       5.006  -1.957   2.706  0.00  0.00    -0.266 N 
ATOM      2  C   UNL     1       5.973  -2.000   1.766  0.00  0.00    +0.203 C 
ATOM      3  O   UNL     1       5.676  -1.978   0.589  0.00  0.00    -0.277 OA
ENDROOT
BRANCH   1   6
ATOM      4  N   UNL     1       1.674  -0.475   2.255  0.00  0.00    -0.280 N 
ATOM      5  C   UNL     1       2.987  -0.618   2.640  0.00  0.00    +0.127 A 
ATOM      6  C   UNL     1       3.659  -1.781   2.325  0.00  0.00    +0.140 A 
ATOM      7  C   UNL     1       2.977  -2.789   1.617  0.00  0.00    +0.277 A 
ATOM      8  O   UNL     1       3.547  -3.827   1.326  0.00  0.00    -0.266 OA
ATOM      9  N   UNL     1       1.691  -2.599   1.263  0.00  0.00    -0.273 N 
ATOM     10  H   UNL     1       1.221  -3.293   0.775  0.00  0.00    +0.173 HD
ATOM     11  C   UNL     1       1.051  -1.461   1.584  0.00  0.00    +0.331 A 
ATOM     12  O   UNL     1      -0.112  -1.317   1.256  0.00  0.00    -0.246 OA
BRANCH   5  13
ATOM     13  N   UNL     1       3.622   0.387   3.331  0.00  0.00    -0.343 N 
ATOM     14  H   UNL     1       3.163   1.225   3.498  0.00  0.00    +0.144 HD
ATOM     15  H   UNL     1       4.528   0.257   3.650  0.00  0.00    +0.144 HD
ENDBRANCH   5  13
BRANCH   4  16
ATOM     16  C   UNL     1       0.948   0.754   2.583  0.00  0.00    +0.128 C 
BRANCH  16  17
ATOM     17  C   UNL     1       0.272   0.599   3.947  0.00  0.00    +0.021 C 
BRANCH  17  19
ATOM     18  C   UNL     1      -1.162   1.728   5.653  0.00  0.00    +0.004 C 
ATOM     19  C   UNL     1      -0.486   1.883   4.289  0.00  0.00    -0.002 C 
ENDBRANCH  17  19
ENDBRANCH  16  17
ENDBRANCH   4  16
ENDBRANCH   1   6
BRANCH   1  20
ATOM     20  C   UNL     1       5.355  -2.095   4.122  0.00  0.00    +0.110 C 
ATOM     21  C   UNL     1       5.424  -3.578   4.489  0.00  0.00    +0.025 C 
ENDBRANCH   1  20
BRANCH   2  22
ATOM     22  C   UNL     1       7.421  -2.074   2.176  0.00  0.00    +0.016 C 
BRANCH  22  23
ATOM     23  N   UNL     1       8.269  -2.109   0.978  0.00  0.00    +0.388 N 
ATOM     24  H   UNL     1       8.035  -2.918   0.423  0.00  0.00    -0.084 HD
ATOM     25  H   UNL     1       8.116  -1.273   0.433  0.00  0.00    -0.084 HD
BRANCH  23  26
ATOM     26  C   UNL     1       9.680  -2.181   1.378  0.00  0.00    -0.073 C 
ATOM     27  C   UNL     1       9.983  -1.067   2.382  0.00  0.00    -0.010 C 
ATOM     28  C   UNL     1       9.958  -3.540   2.024  0.00  0.00    -0.010 C 
BRANCH  26  29
ATOM     29  C   UNL     1      10.570  -2.011   0.145  0.00  0.00    -0.007 C 
BRANCH  29  30
ATOM     30  C   UNL     1       9.996  -2.829  -1.014  0.00  0.00    -0.039 C 
ATOM     31  C   UNL     1       8.783  -2.104  -1.599  0.00  0.00    +0.010 C 
ATOM     32  C   UNL     1      11.063  -2.995  -2.099  0.00  0.00    +0.010 C 
ATOM     33  C   UNL     1       9.570  -4.207  -0.504  0.00  0.00    +0.010 C 
ENDBRANCH  29  30
ENDBRANCH  26  29
ENDBRANCH  23  26
ENDBRANCH  22  23
ENDBRANCH   2  22
TORSDOF 11
