REMARK  Name = ZINC38018545
REMARK  7 active torsions:
REMARK  status: ('A' for Active; 'I' for Inactive)
REMARK    1  A    between atoms: C_1  and  C_2
REMARK    2  A    between atoms: C_2  and  C_4
REMARK    3  A    between atoms: C_2  and  N_12
REMARK    4  A    between atoms: C_6  and  O_11
REMARK    5  A    between atoms: C_9  and  O_10
REMARK    6  A    between atoms: N_12  and  C_13
REMARK    7  A    between atoms: C_13  and  C_14
REMARK                            x       y       z     vdW  Elec       q    Type
REMARK                         _______ _______ _______ _____ _____    ______ ____
ROOT
ATOM      1  C   UNL     1      -0.019   1.526   0.010  0.00  0.00    -0.009 C 
ATOM      2  C   UNL     1       0.002  -0.004   0.002  0.00  0.00    -0.040 C 
ENDROOT
BRANCH   2   3
ATOM      3  C   UNL     1      -1.412  -0.526   0.013  0.00  0.00    -0.017 A 
ATOM      4  C   UNL     1      -2.014  -0.864   1.209  0.00  0.00    +0.051 A 
ATOM      5  C   UNL     1      -3.316  -1.343   1.219  0.00  0.00    +0.117 A 
ATOM      6  C   UNL     1      -4.012  -1.484   0.028  0.00  0.00    +0.049 A 
ATOM      7  C   UNL     1      -3.410  -1.146  -1.168  0.00  0.00    +0.049 A 
ATOM      8  C   UNL     1      -2.110  -0.661  -1.178  0.00  0.00    +0.119 A 
BRANCH   8   9
ATOM      9  O   UNL     1      -1.519  -0.323  -2.355  0.00  0.00    -0.507 OA
ATOM     10  H   UNL     1      -1.044  -1.051  -2.780  0.00  0.00    +0.292 HD
ENDBRANCH   8   9
BRANCH   5  11
ATOM     11  O   UNL     1      -3.908  -1.676   2.397  0.00  0.00    -0.507 OA
ATOM     12  H   UNL     1      -4.384  -0.947   2.818  0.00  0.00    +0.292 HD
ENDBRANCH   5  11
ENDBRANCH   2   3
BRANCH   2  13
ATOM     13  N   UNL     1       0.713  -0.491   1.192  0.00  0.00    +0.386 N 
ATOM     14  H   UNL     1       0.290  -0.099   2.020  0.00  0.00    -0.085 HD
ATOM     15  H   UNL     1       0.655  -1.497   1.230  0.00  0.00    -0.085 HD
BRANCH  13  16
ATOM     16  C   UNL     1       2.122  -0.083   1.122  0.00  0.00    -0.039 C 
BRANCH  16  17
ATOM     17  C   UNL     1       2.851  -0.582   2.343  0.00  0.00    -0.026 A 
ATOM     18  C   UNL     1       3.502  -1.756   2.527  0.00  0.00    +0.010 A 
ATOM     19  C   UNL     1       4.106  -2.004   3.746  0.00  0.00    +0.023 A 
ATOM     20  C   UNL     1       4.029  -1.064   4.721  0.00  0.00    +0.055 A 
ATOM     21  S   UNL     1       3.087   0.224   3.919  0.00  0.00    -0.088 S 
ATOM     22 BR   UNL     1       4.741  -1.103   6.472  0.00  0.00    -0.043 Br
ENDBRANCH  16  17
ENDBRANCH  13  16
ENDBRANCH   2  13
TORSDOF 6
