REMARK  Name = ZINC12330102
REMARK  8 active torsions:
REMARK  status: ('A' for Active; 'I' for Inactive)
REMARK    1  A    between atoms: C_1  and  O_2
REMARK    2  A    between atoms: O_2  and  C_3
REMARK    3  A    between atoms: C_7  and  C_9
REMARK    4  A    between atoms: C_9  and  C_11
REMARK    5  A    between atoms: C_9  and  O_29
REMARK    6  A    between atoms: C_11  and  N_55
REMARK    7  A    between atoms: C_18  and  O_28
REMARK    8  A    between atoms: C_22  and  O_27
REMARK                            x       y       z     vdW  Elec       q    Type
REMARK                         _______ _______ _______ _____ _____    ______ ____
ROOT
ATOM      1  C   UNL     1      -2.888   5.402   6.542  0.00  0.00    -0.075 C 
ATOM      2  C   UNL     1      -3.666   6.067   7.680  0.00  0.00    +0.029 C 
ATOM      3  C   UNL     1      -2.701   6.428   8.810  0.00  0.00    +0.110 C 
ATOM      4  C   UNL     1      -1.602   7.344   8.266  0.00  0.00    +0.029 C 
ATOM      5  C   UNL     1      -0.884   6.641   7.111  0.00  0.00    -0.075 C 
ATOM      6  C   UNL     1      -3.464   7.150   9.926  0.00  0.00    +0.084 C 
ATOM      7  C   UNL     1      -2.455   7.598  10.987  0.00  0.00    +0.152 C 
ATOM      8  C   UNL     1      -1.538   6.453  11.334  0.00  0.00    +0.026 A 
ATOM      9  C   UNL     1      -0.805   6.520  12.507  0.00  0.00    +0.055 A 
ATOM     10  C   UNL     1       0.057   5.492  12.852  0.00  0.00    +0.117 A 
ATOM     11  C   UNL     1       0.186   4.390  12.019  0.00  0.00    +0.049 A 
ATOM     12  C   UNL     1      -0.544   4.321  10.851  0.00  0.00    +0.049 A 
ATOM     13  C   UNL     1      -1.412   5.352  10.505  0.00  0.00    +0.127 A 
ATOM     14  O   UNL     1      -2.118   5.243   9.348  0.00  0.00    -0.485 OA
ATOM     15  N   UNL     1      -1.865   6.348   6.045  0.00  0.00    +0.382 N 
ATOM     16  H   UNL     1      -2.327   7.222   5.767  0.00  0.00    -0.082 HD
ENDROOT
BRANCH  10  17
ATOM     17  O   UNL     1       0.774   5.562  14.005  0.00  0.00    -0.507 OA
ATOM     18  H   UNL     1       0.327   5.179  14.771  0.00  0.00    +0.292 HD
ENDBRANCH  10  17
BRANCH   7  19
ATOM     19  O   UNL     1      -3.156   8.018  12.159  0.00  0.00    -0.387 OA
ATOM     20  H   UNL     1      -2.580   8.320  12.875  0.00  0.00    +0.210 HD
ENDBRANCH   7  19
BRANCH  15  21
ATOM     21  C   UNL     1      -1.177   5.774   4.870  0.00  0.00    -0.042 C 
BRANCH  21  22
ATOM     22  C   UNL     1      -2.223   5.365   3.830  0.00  0.00    +0.128 C 
BRANCH  22  27
ATOM     23  C   UNL     1      -0.787   2.975   1.279  0.00  0.00    +0.120 A 
ATOM     24  C   UNL     1      -0.250   3.856   0.351  0.00  0.00    +0.045 A 
ATOM     25  C   UNL     1      -0.361   5.218   0.548  0.00  0.00    +0.004 A 
ATOM     26  C   UNL     1      -0.998   5.705   1.675  0.00  0.00    +0.006 A 
ATOM     27  C   UNL     1      -1.529   4.831   2.604  0.00  0.00    -0.017 A 
ATOM     28  C   UNL     1      -1.425   3.467   2.409  0.00  0.00    +0.051 A 
BRANCH  23  30
ATOM     29  C   UNL     1      -0.013   1.200  -0.100  0.00  0.00    +0.277 C 
ATOM     30  O   UNL     1      -0.683   1.634   1.085  0.00  0.00    -0.495 OA
ENDBRANCH  23  30
ENDBRANCH  22  27
BRANCH  22  31
ATOM     31  O   UNL     1      -3.011   6.503   3.474  0.00  0.00    -0.389 OA
ATOM     32  H   UNL     1      -2.501   7.231   3.095  0.00  0.00    +0.210 HD
ENDBRANCH  22  31
ENDBRANCH  21  22
ENDBRANCH  15  21
TORSDOF 7
