REMARK  Name = ZINC15072449
REMARK  12 active torsions:
REMARK  status: ('A' for Active; 'I' for Inactive)
REMARK    1  A    between atoms: C_4  and  C_7
REMARK    2  A    between atoms: C_7  and  C_8
REMARK    3  A    between atoms: C_8  and  C_9
REMARK    4  A    between atoms: C_9  and  C_10
REMARK    5  A    between atoms: C_10  and  C_26
REMARK    6  A    between atoms: C_15  and  C_16
REMARK    7  A    between atoms: C_15  and  N_61
REMARK    8  A    between atoms: C_21  and  O_22
REMARK    9  A    between atoms: O_22  and  C_23
REMARK   10  A    between atoms: C_23  and  C_24
REMARK   11  A    between atoms: C_24  and  O_25
REMARK   12  A    between atoms: C_26  and  O_27
REMARK                            x       y       z     vdW  Elec       q    Type
REMARK                         _______ _______ _______ _____ _____    ______ ____
ROOT
ATOM      1  C   UNL     1      -0.191   7.806  -2.873  0.00  0.00    -0.021 C 
ATOM      2  C   UNL     1       0.997   7.152  -3.584  0.00  0.00    +0.005 C 
ATOM      3  C   UNL     1       0.979   7.550  -5.062  0.00  0.00    -0.018 C 
ATOM      4  C   UNL     1       1.023   9.075  -5.176  0.00  0.00    -0.078 C 
ATOM      5  C   UNL     1      -0.114   9.324  -3.050  0.00  0.00    -0.069 C 
ATOM      6  N   UNL     1      -0.160   9.642  -4.493  0.00  0.00    +0.383 N 
ATOM      7  H   UNL     1      -1.008   9.228  -4.898  0.00  0.00    -0.081 HD
ENDROOT
BRANCH   1   8
ATOM      8  C   UNL     1      -0.147   7.462  -1.383  0.00  0.00    +0.007 C 
BRANCH   8   9
ATOM      9  C   UNL     1      -1.325   8.130  -0.670  0.00  0.00    +0.005 C 
BRANCH   9  10
ATOM     10  C   UNL     1      -1.298   7.761   0.814  0.00  0.00    +0.035 C 
BRANCH  10  14
ATOM     11  C   UNL     1      -4.587   9.625   2.804  0.00  0.00    +0.000 A 
ATOM     12  C   UNL     1      -3.376  10.284   2.704  0.00  0.00    +0.000 A 
ATOM     13  C   UNL     1      -2.310   9.679   2.064  0.00  0.00    +0.003 A 
ATOM     14  C   UNL     1      -2.458   8.418   1.516  0.00  0.00    -0.047 A 
ATOM     15  C   UNL     1      -3.671   7.761   1.612  0.00  0.00    +0.003 A 
ATOM     16  C   UNL     1      -4.735   8.365   2.255  0.00  0.00    +0.000 A 
ENDBRANCH  10  14
ENDBRANCH   9  10
ENDBRANCH   8   9
ENDBRANCH   1   8
BRANCH   6  17
ATOM     17  C   UNL     1      -0.201  11.106  -4.686  0.00  0.00    -0.039 C 
BRANCH  17  18
ATOM     18  C   UNL     1       0.982  11.761  -4.019  0.00  0.00    -0.022 A 
ATOM     19  C   UNL     1       0.834  12.360  -2.783  0.00  0.00    +0.005 A 
ATOM     20  C   UNL     1       1.918  12.962  -2.171  0.00  0.00    +0.000 A 
ATOM     21  C   UNL     1       3.152  12.966  -2.794  0.00  0.00    +0.004 A 
ATOM     22  C   UNL     1       3.305  12.368  -4.030  0.00  0.00    +0.046 A 
ATOM     23  C   UNL     1       2.220  11.759  -4.644  0.00  0.00    +0.122 A 
BRANCH  23  24
ATOM     24  O   UNL     1       2.369  11.166  -5.858  0.00  0.00    -0.489 OA
BRANCH  24  25
ATOM     25  C   UNL     1       3.673  11.202  -6.442  0.00  0.00    +0.256 C 
BRANCH  25  26
ATOM     26  C   UNL     1       3.645  10.490  -7.796  0.00  0.00    +0.196 C 
BRANCH  26  27
ATOM     27  O   UNL     1       2.807  11.214  -8.698  0.00  0.00    -0.392 OA
ATOM     28  H   UNL     1       2.742  10.819  -9.578  0.00  0.00    +0.210 HD
ENDBRANCH  26  27
ENDBRANCH  25  26
ENDBRANCH  24  25
ENDBRANCH  23  24
ENDBRANCH  17  18
ENDBRANCH   6  17
BRANCH   1  29
ATOM     29  C   UNL     1      -1.497   7.286  -3.478  0.00  0.00    +0.160 C 
BRANCH  29  30
ATOM     30  O   UNL     1      -1.588   5.875  -3.276  0.00  0.00    -0.395 OA
ATOM     31  H   UNL     1      -2.392   5.477  -3.635  0.00  0.00    +0.209 HD
ENDBRANCH  29  30
ENDBRANCH   1  29
TORSDOF 12
