REMARK  Name = ZINC13125604
REMARK  8 active torsions:
REMARK  status: ('A' for Active; 'I' for Inactive)
REMARK    1  A    between atoms: C_1  and  C_2
REMARK    2  A    between atoms: C_3  and  N_15
REMARK    3  A    between atoms: N_6  and  C_9
REMARK    4  A    between atoms: N_7  and  C_8
REMARK    5  A    between atoms: N_15  and  C_16
REMARK    6  A    between atoms: C_16  and  N_17
REMARK    7  A    between atoms: N_18  and  C_19
REMARK    8  A    between atoms: C_28  and  O_29
REMARK                            x       y       z     vdW  Elec       q    Type
REMARK                         _______ _______ _______ _____ _____    ______ ____
ROOT
ATOM      1  C   UNL     1      -0.394  -0.623  -3.461  0.00  0.00    +0.154 C 
ATOM      2  S   UNL     1      -1.132  -2.165  -3.371  0.00  0.00    -0.017 S 
ENDROOT
BRANCH   1   3
ATOM      3  N   UNL     1      -0.345   0.034  -4.637  0.00  0.00    -0.217 N 
ATOM      4  N   UNL     1       0.211   1.195  -4.705  0.00  0.00    -0.175 NA
ATOM      5  H   UNL     1      -0.729  -0.368  -5.433  0.00  0.00    +0.176 HD
BRANCH   4   6
ATOM      6  C   UNL     1       0.260   1.847  -5.873  0.00  0.00    +0.150 A 
ATOM      7  C   UNL     1       0.860   3.173  -6.126  0.00  0.00    +0.031 A 
ATOM      8  C   UNL     1       1.513   4.102  -5.321  0.00  0.00    +0.027 A 
ATOM      9  C   UNL     1       1.970   5.282  -5.872  0.00  0.00    +0.019 A 
ATOM     10  C   UNL     1       1.780   5.542  -7.221  0.00  0.00    +0.017 A 
ATOM     11  C   UNL     1       1.134   4.628  -8.028  0.00  0.00    +0.027 A 
ATOM     12  C   UNL     1       0.668   3.434  -7.491  0.00  0.00    +0.051 A 
ATOM     13  N   UNL     1      -0.001   2.354  -8.043  0.00  0.00    -0.324 N 
ATOM     14  H   UNL     1      -0.257   2.281  -8.976  0.00  0.00    +0.169 HD
ATOM     15  C   UNL     1      -0.242   1.409  -7.100  0.00  0.00    +0.219 A 
ATOM     16 BR   UNL     1       2.857   6.548  -4.784  0.00  0.00    -0.050 Br
BRANCH  15  17
ATOM     17  O   UNL     1      -0.870   0.233  -7.314  0.00  0.00    -0.492 OA
ATOM     18  H   UNL     1      -1.829   0.272  -7.195  0.00  0.00    +0.294 HD
ENDBRANCH  15  17
ENDBRANCH   4   6
ENDBRANCH   1   3
BRANCH   1  19
ATOM     19  N   UNL     1       0.139  -0.066  -2.356  0.00  0.00    -0.290 N 
ATOM     20  H   UNL     1       0.617   0.776  -2.419  0.00  0.00    +0.154 HD
BRANCH  19  23
ATOM     21  C   UNL     1      -1.224   1.168   0.101  0.00  0.00    +0.067 C 
ATOM     22  C   UNL     1      -0.591  -0.195  -0.006  0.00  0.00    +0.059 A 
ATOM     23  C   UNL     1       0.002  -0.706  -1.109  0.00  0.00    +0.121 A 
ATOM     24  C   UNL     1       0.476  -2.047  -0.765  0.00  0.00    +0.293 A 
ATOM     25  O   UNL     1       1.062  -2.820  -1.501  0.00  0.00    -0.264 OA
ATOM     26  N   UNL     1       0.139  -2.264   0.524  0.00  0.00    -0.216 N 
ATOM     27  N   UNL     1      -0.515  -1.122   1.000  0.00  0.00    -0.282 N 
ATOM     28  C   UNL     1      -1.039  -0.948   2.357  0.00  0.00    +0.171 C 
BRANCH  26  29
ATOM     29  C   UNL     1       0.403  -3.426   1.256  0.00  0.00    +0.067 A 
ATOM     30  C   UNL     1      -0.608  -4.026   1.996  0.00  0.00    +0.028 A 
ATOM     31  C   UNL     1      -0.345  -5.173   2.719  0.00  0.00    +0.002 A 
ATOM     32  C   UNL     1       0.923  -5.724   2.706  0.00  0.00    +0.000 A 
ATOM     33  C   UNL     1       1.932  -5.129   1.970  0.00  0.00    +0.002 A 
ATOM     34  C   UNL     1       1.674  -3.985   1.241  0.00  0.00    +0.028 A 
ENDBRANCH  26  29
ENDBRANCH  19  23
ENDBRANCH   1  19
TORSDOF 6
