REMARK  Name = ZINC51048090
REMARK  5 active torsions:
REMARK  status: ('A' for Active; 'I' for Inactive)
REMARK    1  A    between atoms: C_4  and  N_8
REMARK    2  A    between atoms: C_9  and  C_11
REMARK    3  A    between atoms: C_11  and  N_12
REMARK    4  A    between atoms: C_16  and  C_19
REMARK    5  A    between atoms: N_21  and  C_22
REMARK                            x       y       z     vdW  Elec       q    Type
REMARK                         _______ _______ _______ _____ _____    ______ ____
ROOT
ATOM      1  N   UNL     1       4.718  -4.171   0.247  0.00  0.00    +0.386 N 
ATOM      2  C   UNL     1       4.009  -4.467   1.497  0.00  0.00    -0.078 C 
ATOM      3  C   UNL     1       3.680  -5.960   1.560  0.00  0.00    -0.018 C 
ATOM      4  C   UNL     1       4.981  -6.766   1.506  0.00  0.00    +0.009 C 
ATOM      5  C   UNL     1       5.748  -6.394   0.234  0.00  0.00    +0.058 C 
ATOM      6  C   UNL     1       6.000  -4.885   0.220  0.00  0.00    -0.065 C 
ATOM      7  H   UNL     1       4.154  -4.466  -0.536  0.00  0.00    -0.081 HD
ENDROOT
BRANCH   5   8
ATOM      8  C   UNL     1       7.066  -7.125   0.209  0.00  0.00    +0.215 C 
ATOM      9  O   UNL     1       8.105  -6.501   0.179  0.00  0.00    -0.276 OA
ATOM     10  N   UNL     1       7.089  -8.473   0.220  0.00  0.00    -0.312 N 
ATOM     11  H   UNL     1       6.258  -8.972   0.244  0.00  0.00    +0.149 HD
BRANCH  10  12
ATOM     12  C   UNL     1       8.370  -9.183   0.195  0.00  0.00    +0.073 C 
ATOM     13  C   UNL     1       8.489 -10.393  -0.734  0.00  0.00    +0.024 C 
ATOM     14  C   UNL     1       8.405 -10.597   0.780  0.00  0.00    +0.024 C 
ENDBRANCH  10  12
ENDBRANCH   5   8
BRANCH   1  15
ATOM     15  C   UNL     1       4.962  -2.725   0.155  0.00  0.00    +0.019 C 
BRANCH  15  17
ATOM     16  N   UNL     1       3.623  -0.654  -0.036  0.00  0.00    -0.285 N 
ATOM     17  C   UNL     1       3.646  -1.998   0.058  0.00  0.00    +0.201 C 
ATOM     18  O   UNL     1       2.606  -2.623   0.065  0.00  0.00    -0.278 OA
ATOM     19  H   UNL     1       4.454  -0.159  -0.107  0.00  0.00    +0.155 HD
BRANCH  16  23
ATOM     20  C   UNL     1      -0.018   1.377  -0.024  0.00  0.00    +0.023 A 
ATOM     21  C   UNL     1       1.092   1.948   0.572  0.00  0.00    +0.041 A 
ATOM     22  C   UNL     1       2.301   1.278   0.570  0.00  0.00    +0.145 A 
ATOM     23  C   UNL     1       2.400   0.028  -0.032  0.00  0.00    +0.070 A 
ATOM     24  C   UNL     1       1.284  -0.542  -0.629  0.00  0.00    +0.046 A 
ATOM     25  C   UNL     1       0.078   0.134  -0.623  0.00  0.00    +0.043 A 
ATOM     26 CL   UNL     1      -1.319  -0.579  -1.369  0.00  0.00    -0.083 Cl
ATOM     27  F   UNL     1       3.385   1.836   1.151  0.00  0.00    -0.204 F 
ENDBRANCH  16  23
ENDBRANCH  15  17
ENDBRANCH   1  15
TORSDOF 5
