REMARK  Name = ZINC39695703
REMARK  10 active torsions:
REMARK  status: ('A' for Active; 'I' for Inactive)
REMARK    1  A    between atoms: C_1  and  C_2
REMARK    2  A    between atoms: C_10  and  C_12
REMARK    3  A    between atoms: C_12  and  C_13
REMARK    4  A    between atoms: C_12  and  N_14
REMARK    5  A    between atoms: C_15  and  C_17
REMARK    6  A    between atoms: C_27  and  C_29
REMARK    7  A    between atoms: C_31  and  O_37
REMARK    8  A    between atoms: C_33  and  O_35
REMARK    9  A    between atoms: O_35  and  C_36
REMARK   10  A    between atoms: O_37  and  C_38
REMARK                            x       y       z     vdW  Elec       q    Type
REMARK                         _______ _______ _______ _____ _____    ______ ____
ROOT
ATOM      1  C   UNL     1      -2.013  -8.399   1.350  0.00  0.00    +0.100 C 
ATOM      2  C   UNL     1      -3.181  -8.040   0.404  0.00  0.00    +0.121 C 
ATOM      3  N   UNL     1      -4.024  -9.259   0.371  0.00  0.00    -0.296 N 
ATOM      4  C   UNL     1      -4.008  -9.756   1.767  0.00  0.00    +0.115 C 
ATOM      5  C   UNL     1      -2.563  -9.523   2.243  0.00  0.00    -0.004 C 
ATOM      6  C   UNL     1      -2.554  -9.088   3.706  0.00  0.00    -0.010 C 
ATOM      7  C   UNL     1      -3.050 -10.243   4.580  0.00  0.00    -0.082 C 
ATOM      8  N   UNL     1      -2.181 -11.411   4.391  0.00  0.00    +0.379 N 
ATOM      9  C   UNL     1      -2.268 -11.880   3.002  0.00  0.00    -0.082 C 
ATOM     10  C   UNL     1      -1.739 -10.794   2.061  0.00  0.00    -0.010 C 
ATOM     11  C   UNL     1      -4.660  -9.794  -0.690  0.00  0.00    +0.247 C 
ATOM     12  O   UNL     1      -4.487  -9.331  -1.800  0.00  0.00    -0.270 OA
ATOM     13  H   UNL     1      -1.228 -11.156   4.599  0.00  0.00    -0.086 HD
ATOM     14  H   UNL     1      -2.473 -12.150   5.013  0.00  0.00    -0.086 HD
ENDROOT
BRANCH  11  15
ATOM     15  C   UNL     1      -5.569 -10.945  -0.502  0.00  0.00    +0.044 A 
ATOM     16  C   UNL     1      -6.126 -11.200   0.751  0.00  0.00    +0.059 A 
ATOM     17  C   UNL     1      -6.978 -12.279   0.922  0.00  0.00    +0.124 A 
ATOM     18  C   UNL     1      -7.276 -13.107  -0.151  0.00  0.00    +0.091 A 
ATOM     19  C   UNL     1      -6.725 -12.857  -1.399  0.00  0.00    +0.124 A 
ATOM     20  C   UNL     1      -5.877 -11.776  -1.580  0.00  0.00    +0.059 A 
BRANCH  19  21
ATOM     21  O   UNL     1      -7.021 -13.670  -2.447  0.00  0.00    -0.495 OA
ATOM     22  C   UNL     1      -7.906 -14.762  -2.190  0.00  0.00    +0.277 C 
ENDBRANCH  19  21
BRANCH  17  23
ATOM     23  O   UNL     1      -7.521 -12.529   2.143  0.00  0.00    -0.495 OA
ATOM     24  C   UNL     1      -8.390 -13.658   2.248  0.00  0.00    +0.277 C 
ENDBRANCH  17  23
ENDBRANCH  11  15
BRANCH   1  26
ATOM     25  N   UNL     1      -0.363  -7.071   2.627  0.00  0.00    -0.305 N 
ATOM     26  C   UNL     1      -1.629  -7.205   2.185  0.00  0.00    +0.219 C 
ATOM     27  O   UNL     1      -2.460  -6.365   2.461  0.00  0.00    -0.275 OA
ATOM     28  H   UNL     1       0.301  -7.743   2.407  0.00  0.00    +0.149 HD
BRANCH  25  29
ATOM     29  C   UNL     1       0.010  -5.910   3.439  0.00  0.00    +0.136 C 
ATOM     30  C   UNL     1      -0.317  -6.189   4.908  0.00  0.00    +0.036 C 
BRANCH  29  40
ATOM     31  C   UNL     1       6.994  -3.367   3.050  0.00  0.00    +0.044 C 
ATOM     32  C   UNL     1       5.795  -4.279   3.010  0.00  0.00    -0.048 A 
ATOM     33  C   UNL     1       5.958  -5.619   2.688  0.00  0.00    +0.005 A 
ATOM     34  C   UNL     1       4.884  -6.462   2.646  0.00  0.00    +0.030 A 
ATOM     35  C   UNL     1       3.606  -5.975   2.931  0.00  0.00    +0.089 A 
ATOM     36  C   UNL     1       3.439  -4.619   3.257  0.00  0.00    +0.067 A 
ATOM     37  C   UNL     1       4.543  -3.778   3.299  0.00  0.00    +0.031 A 
ATOM     38  N   UNL     1       2.088  -4.444   3.482  0.00  0.00    -0.340 N 
ATOM     39  H   UNL     1       1.649  -3.615   3.728  0.00  0.00    +0.167 HD
ATOM     40  C   UNL     1       1.488  -5.650   3.294  0.00  0.00    +0.128 A 
ATOM     41  N   UNL     1       2.374  -6.546   2.972  0.00  0.00    -0.231 NA
ENDBRANCH  29  40
ENDBRANCH  25  29
ENDBRANCH   1  26
TORSDOF 6
