REMARK  Name = ZINC02129765
REMARK  12 active torsions:
REMARK  status: ('A' for Active; 'I' for Inactive)
REMARK    1  A    between atoms: C_1  and  C_2
REMARK    2  A    between atoms: C_2  and  C_3
REMARK    3  A    between atoms: C_6  and  N_9
REMARK    4  A    between atoms: C_10  and  C_12
REMARK    5  A    between atoms: C_12  and  C_14
REMARK    6  A    between atoms: C_12  and  N_15
REMARK    7  A    between atoms: C_16  and  C_18
REMARK    8  A    between atoms: C_24  and  C_26
REMARK    9  A    between atoms: C_26  and  C_28
REMARK   10  A    between atoms: C_26  and  N_31
REMARK   11  A    between atoms: C_28  and  C_29
REMARK   12  A    between atoms: C_28  and  C_30
REMARK                            x       y       z     vdW  Elec       q    Type
REMARK                         _______ _______ _______ _____ _____    ______ ____
ROOT
ATOM      1  N   UNL     1      -8.138  -1.895  -2.026  0.00  0.00    -0.304 N 
ATOM      2  C   UNL     1      -9.446  -1.790  -2.334  0.00  0.00    +0.217 C 
ATOM      3  O   UNL     1     -10.246  -1.468  -1.481  0.00  0.00    -0.275 OA
ATOM      4  H   UNL     1      -7.499  -2.152  -2.709  0.00  0.00    +0.149 HD
ENDROOT
BRANCH   2   5
ATOM      5  C   UNL     1      -9.915  -2.072  -3.739  0.00  0.00    +0.078 C 
ATOM      6  C   UNL     1      -9.226  -1.109  -4.709  0.00  0.00    +0.032 C 
ATOM      7  C   UNL     1      -9.679  -1.421  -6.139  0.00  0.00    +0.108 C 
ATOM      8  N   UNL     1     -11.147  -1.382  -6.190  0.00  0.00    -0.303 N 
ATOM      9  C   UNL     1     -11.909  -2.203  -5.238  0.00  0.00    +0.108 C 
ATOM     10  C   UNL     1     -11.431  -1.881  -3.818  0.00  0.00    +0.032 C 
ATOM     11  C   UNL     1     -11.782  -0.609  -7.092  0.00  0.00    +0.201 C 
ATOM     12  O   UNL     1     -11.146  -0.015  -7.936  0.00  0.00    -0.277 OA
BRANCH  11  13
ATOM     13  C   UNL     1     -13.283  -0.482  -7.051  0.00  0.00    +0.016 C 
BRANCH  13  14
ATOM     14  N   UNL     1     -13.673   0.866  -7.488  0.00  0.00    +0.386 N 
ATOM     15  H   UNL     1     -13.347   1.021  -8.430  0.00  0.00    -0.089 HD
ATOM     16  H   UNL     1     -14.678   0.951  -7.461  0.00  0.00    -0.089 HD
ATOM     17  H   UNL     1     -13.260   1.551  -6.873  0.00  0.00    -0.089 HD
ENDBRANCH  13  14
BRANCH  13  18
ATOM     18  C   UNL     1     -13.908  -1.521  -7.984  0.00  0.00    -0.023 C 
ATOM     19  C   UNL     1     -13.574  -2.926  -7.480  0.00  0.00    +0.006 C 
ATOM     20  C   UNL     1     -15.427  -1.336  -8.009  0.00  0.00    +0.006 C 
ENDBRANCH  13  18
ENDBRANCH  11  13
ENDBRANCH   2   5
BRANCH   1  21
ATOM     21  C   UNL     1      -7.683  -1.621  -0.661  0.00  0.00    +0.156 C 
ATOM     22  C   UNL     1      -7.834  -2.883   0.190  0.00  0.00    +0.038 C 
BRANCH  21  24
ATOM     23  N   UNL     1      -5.599  -0.901   0.460  0.00  0.00    -0.284 N 
ATOM     24  C   UNL     1      -6.235  -1.205  -0.689  0.00  0.00    +0.237 C 
ATOM     25  O   UNL     1      -5.642  -1.143  -1.745  0.00  0.00    -0.273 OA
ATOM     26  H   UNL     1      -6.047  -1.029   1.310  0.00  0.00    +0.155 HD
BRANCH  23  30
ATOM     27  C   UNL     1      -1.710   0.589   0.357  0.00  0.00    -0.048 A 
ATOM     28  C   UNL     1      -2.566   0.822  -0.704  0.00  0.00    +0.005 A 
ATOM     29  C   UNL     1      -3.856   0.329  -0.673  0.00  0.00    +0.023 A 
ATOM     30  C   UNL     1      -4.292  -0.401   0.425  0.00  0.00    +0.033 A 
ATOM     31  C   UNL     1      -3.430  -0.633   1.488  0.00  0.00    +0.023 A 
ATOM     32  C   UNL     1      -2.140  -0.142   1.449  0.00  0.00    +0.005 A 
BRANCH  27  34
ATOM     33  C   UNL     1       0.622   0.095  -0.329  0.00  0.00    +0.009 C 
ATOM     34  C   UNL     1      -0.303   1.128   0.320  0.00  0.00    +0.032 C 
ENDBRANCH  27  34
ENDBRANCH  23  30
ENDBRANCH  21  24
ENDBRANCH   1  21
TORSDOF 8
