REMARK  Name = ZINC53366477
REMARK  12 active torsions:
REMARK  status: ('A' for Active; 'I' for Inactive)
REMARK    1  A    between atoms: C_1  and  C_2
REMARK    2  A    between atoms: C_2  and  C_3
REMARK    3  A    between atoms: C_3  and  N_4
REMARK    4  A    between atoms: C_5  and  C_7
REMARK    5  A    between atoms: C_7  and  N_8
REMARK    6  A    between atoms: N_8  and  C_9
REMARK    7  A    between atoms: N_8  and  C_12
REMARK    8  A    between atoms: C_9  and  C_10
REMARK    9  A    between atoms: C_10  and  C_11
REMARK   10  A    between atoms: C_12  and  C_13
REMARK   11  A    between atoms: N_15  and  C_16
REMARK   12  A    between atoms: C_17  and  C_25
REMARK                            x       y       z     vdW  Elec       q    Type
REMARK                         _______ _______ _______ _____ _____    ______ ____
ROOT
ATOM      1  C   UNL     1       3.104  -6.149  -4.840  0.00  0.00    +0.201 C 
ATOM      2  O   UNL     1       3.588  -5.296  -5.553  0.00  0.00    -0.278 OA
ATOM      3  N   UNL     1       3.337  -7.452  -5.095  0.00  0.00    -0.281 N 
ATOM      4  H   UNL     1       2.950  -8.134  -4.524  0.00  0.00    +0.155 HD
ENDROOT
BRANCH   3   5
ATOM      5  C   UNL     1       4.127  -7.816  -6.174  0.00  0.00    +0.084 A 
ATOM      6  C   UNL     1       4.466  -9.095  -6.589  0.00  0.00    +0.068 A 
ATOM      7  C   UNL     1       5.317  -9.209  -7.761  0.00  0.00    -0.023 A 
ATOM      8  C   UNL     1       5.673  -8.025  -8.303  0.00  0.00    -0.004 A 
ATOM      9  S   UNL     1       4.889  -6.811  -7.283  0.00  0.00    -0.077 S 
ATOM     10  C   UNL     1       6.538  -7.810  -9.506  0.00  0.00    +0.043 C 
ATOM     11  C   UNL     1       7.272  -9.124  -9.813  0.00  0.00    +0.005 C 
ATOM     12  C   UNL     1       6.260 -10.273  -9.793  0.00  0.00    +0.005 C 
ATOM     13  C   UNL     1       5.788 -10.527  -8.359  0.00  0.00    +0.037 C 
BRANCH   6  14
ATOM     14  C   UNL     1       3.986 -10.282  -5.874  0.00  0.00    +0.244 C 
ATOM     15  O   UNL     1       2.933 -10.801  -6.195  0.00  0.00    -0.270 OA
ATOM     16  N   UNL     1       4.711 -10.798  -4.862  0.00  0.00    -0.325 N 
ATOM     17  H   UNL     1       5.551 -10.384  -4.606  0.00  0.00    +0.145 HD
ATOM     18  H   UNL     1       4.394 -11.583  -4.389  0.00  0.00    +0.145 HD
ENDBRANCH   6  14
ENDBRANCH   3   5
BRANCH   1  19
ATOM     19  C   UNL     1       2.245  -5.753  -3.667  0.00  0.00    +0.020 C 
BRANCH  19  20
ATOM     20  N   UNL     1       2.029  -4.300  -3.687  0.00  0.00    +0.391 N 
ATOM     21  H   UNL     1       2.919  -3.828  -3.741  0.00  0.00    -0.080 HD
BRANCH  20  22
ATOM     22  C   UNL     1       1.214  -3.942  -4.856  0.00  0.00    +0.019 C 
BRANCH  22  24
ATOM     23  N   UNL     1       0.388  -1.881  -5.946  0.00  0.00    -0.317 N 
ATOM     24  C   UNL     1       1.095  -2.442  -4.945  0.00  0.00    +0.196 C 
ATOM     25  O   UNL     1       1.636  -1.741  -4.117  0.00  0.00    -0.278 OA
ATOM     26  H   UNL     1      -0.045  -2.442  -6.608  0.00  0.00    +0.149 HD
BRANCH  23  27
ATOM     27  C   UNL     1       0.272  -0.423  -6.032  0.00  0.00    +0.104 C 
BRANCH  27  29
ATOM     28  C   UNL     1      -0.698   1.472  -7.341  0.00  0.00    +0.005 C 
ATOM     29  C   UNL     1      -0.577  -0.051  -7.250  0.00  0.00    +0.015 C 
ENDBRANCH  27  29
ENDBRANCH  23  27
ENDBRANCH  22  24
ENDBRANCH  20  22
BRANCH  20  30
ATOM     30  C   UNL     1       1.332  -3.891  -2.460  0.00  0.00    -0.078 C 
BRANCH  30  31
ATOM     31  C   UNL     1       2.237  -4.140  -1.252  0.00  0.00    -0.022 C 
ATOM     32  C   UNL     1       1.567  -3.590   0.009  0.00  0.00    +0.002 C 
ENDBRANCH  30  31
ENDBRANCH  20  30
ENDBRANCH  19  20
ENDBRANCH   1  19
TORSDOF 10
