REMARK  Name = ZINC66243583
REMARK  9 active torsions:
REMARK  status: ('A' for Active; 'I' for Inactive)
REMARK    1  A    between atoms: C_1  and  C_2
REMARK    2  A    between atoms: C_2  and  C_3
REMARK    3  A    between atoms: C_3  and  O_4
REMARK    4  A    between atoms: O_4  and  C_5
REMARK    5  A    between atoms: C_10  and  O_11
REMARK    6  A    between atoms: O_11  and  C_12
REMARK    7  A    between atoms: C_13  and  C_18
REMARK    8  A    between atoms: C_18  and  N_19
REMARK    9  A    between atoms: N_22  and  C_23
REMARK                            x       y       z     vdW  Elec       q    Type
REMARK                         _______ _______ _______ _____ _____    ______ ____
ROOT
ATOM      1  C   UNL     1       1.043  -6.035   1.388  0.00  0.00    +0.226 A 
ATOM      2  C   UNL     1       0.572  -6.821   0.343  0.00  0.00    +0.034 A 
ATOM      3  C   UNL     1       0.751  -8.192   0.399  0.00  0.00    +0.012 A 
ATOM      4  C   UNL     1       1.397  -8.731   1.502  0.00  0.00    +0.020 A 
ATOM      5  C   UNL     1       1.839  -7.891   2.504  0.00  0.00    +0.114 A 
ATOM      6  N   UNL     1       1.659  -6.586   2.421  0.00  0.00    -0.221 NA
ENDROOT
BRANCH   1   7
ATOM      7  O   UNL     1       0.874  -4.690   1.346  0.00  0.00    -0.434 OA
BRANCH   7  13
ATOM      8  C   UNL     1       2.735  -3.541   2.293  0.00  0.00    +0.163 A 
ATOM      9  C   UNL     1       3.271  -2.780   3.320  0.00  0.00    +0.049 A 
ATOM     10  C   UNL     1       2.486  -2.432   4.404  0.00  0.00    +0.004 A 
ATOM     11  C   UNL     1       1.167  -2.841   4.467  0.00  0.00    +0.004 A 
ATOM     12  C   UNL     1       0.626  -3.600   3.446  0.00  0.00    +0.050 A 
ATOM     13  C   UNL     1       1.406  -3.948   2.354  0.00  0.00    +0.172 A 
BRANCH   8  14
ATOM     14  O   UNL     1       3.505  -3.884   1.227  0.00  0.00    -0.488 OA
BRANCH  14  15
ATOM     15  C   UNL     1       4.861  -3.432   1.233  0.00  0.00    +0.229 C 
BRANCH  15  17
ATOM     16  C   UNL     1       7.016  -3.428  -0.032  0.00  0.00    +0.007 C 
ATOM     17  C   UNL     1       5.564  -3.912  -0.038  0.00  0.00    +0.038 C 
ENDBRANCH  15  17
ENDBRANCH  14  15
ENDBRANCH   8  14
ENDBRANCH   7  13
ENDBRANCH   1   7
BRANCH   2  18
ATOM     18  C   UNL     1      -0.125  -6.189  -0.834  0.00  0.00    +0.156 C 
BRANCH  18  19
ATOM     19  N   UNL     1       0.874  -5.636  -1.753  0.00  0.00    -0.354 N 
ATOM     20  C   UNL     1       0.471  -5.006  -2.907  0.00  0.00    +0.169 C 
ATOM     21  N   UNL     1      -0.798  -4.900  -3.183  0.00  0.00    -0.371 N 
ATOM     22  N   UNL     1       1.408  -4.488  -3.769  0.00  0.00    -0.355 N 
ATOM     23  H   UNL     1       1.818  -5.715  -1.548  0.00  0.00    +0.163 HD
ATOM     24  H   UNL     1      -1.082  -4.455  -3.997  0.00  0.00    +0.159 HD
ATOM     25  H   UNL     1       2.353  -4.567  -3.564  0.00  0.00    +0.163 HD
ATOM     26  H   UNL     1      -1.459  -5.265  -2.574  0.00  0.00    +0.159 HD
BRANCH  22  27
ATOM     27  C   UNL     1       0.980  -3.816  -4.999  0.00  0.00    +0.082 C 
ATOM     28  C   UNL     1       0.725  -2.320  -4.722  0.00  0.00    +0.024 C 
ATOM     29  C   UNL     1       2.050  -1.628  -5.127  0.00  0.00    +0.002 C 
ATOM     30  C   UNL     1       2.484  -2.426  -6.381  0.00  0.00    +0.002 C 
ATOM     31  C   UNL     1       2.098  -3.884  -6.053  0.00  0.00    +0.024 C 
ENDBRANCH  22  27
ENDBRANCH  18  19
ENDBRANCH   2  18
TORSDOF 8
