REMARK  Name = ZINC67414912
REMARK  8 active torsions:
REMARK  status: ('A' for Active; 'I' for Inactive)
REMARK    1  A    between atoms: C_1  and  C_2
REMARK    2  A    between atoms: C_2  and  C_3
REMARK    3  A    between atoms: C_3  and  N_4
REMARK    4  A    between atoms: C_7  and  C_10
REMARK    5  A    between atoms: C_10  and  N_11
REMARK    6  A    between atoms: N_14  and  N_15
REMARK    7  A    between atoms: C_16  and  C_18
REMARK    8  A    between atoms: C_18  and  C_19
REMARK                            x       y       z     vdW  Elec       q    Type
REMARK                         _______ _______ _______ _____ _____    ______ ____
ROOT
ATOM      1  N   UNL     1       0.986  -6.621  -3.506  0.00  0.00    -0.298 N 
ATOM      2  C   UNL     1       1.175  -7.950  -3.624  0.00  0.00    +0.316 C 
ATOM      3  O   UNL     1       0.765  -8.701  -2.760  0.00  0.00    -0.251 OA
ATOM      4  N   UNL     1       1.817  -8.447  -4.699  0.00  0.00    -0.218 N 
ATOM      5  H   UNL     1       1.313  -6.022  -4.196  0.00  0.00    +0.150 HD
ATOM      6  H   UNL     1       1.953  -9.404  -4.784  0.00  0.00    +0.174 HD
ENDROOT
BRANCH   4   7
ATOM      7  N   UNL     1       2.289  -7.582  -5.695  0.00  0.00    -0.233 N 
ATOM      8  C   UNL     1       2.932  -8.079  -6.771  0.00  0.00    +0.229 C 
ATOM      9  O   UNL     1       3.101  -9.275  -6.877  0.00  0.00    -0.274 OA
ATOM     10  H   UNL     1       2.154  -6.625  -5.610  0.00  0.00    +0.173 HD
BRANCH   8  11
ATOM     11  C   UNL     1       3.440  -7.148  -7.841  0.00  0.00    +0.101 C 
BRANCH  11  12
ATOM     12  C   UNL     1       4.125  -7.962  -8.941  0.00  0.00    -0.002 C 
ATOM     13  C   UNL     1       5.372  -8.641  -8.371  0.00  0.00    +0.004 C 
ATOM     14  C   UNL     1       6.057  -9.455  -9.471  0.00  0.00    +0.000 C 
ATOM     15  C   UNL     1       6.462  -8.525 -10.616  0.00  0.00    +0.000 C 
ATOM     16  C   UNL     1       5.215  -7.845 -11.186  0.00  0.00    +0.000 C 
ATOM     17  C   UNL     1       4.530  -7.031 -10.086  0.00  0.00    +0.004 C 
ENDBRANCH  11  12
ENDBRANCH   8  11
ENDBRANCH   4   7
BRANCH   1  18
ATOM     18  C   UNL     1       0.288  -6.080  -2.337  0.00  0.00    +0.109 C 
BRANCH  18  22
ATOM     19  N   UNL     1       0.738  -1.966  -1.265  0.00  0.00    +0.380 N 
ATOM     20  C   UNL     1      -0.636  -2.472  -1.366  0.00  0.00    -0.079 C 
ATOM     21  C   UNL     1      -0.627  -4.001  -1.293  0.00  0.00    -0.014 C 
ATOM     22  C   UNL     1       0.209  -4.557  -2.449  0.00  0.00    +0.003 C 
ATOM     23  C   UNL     1       1.620  -3.964  -2.376  0.00  0.00    -0.014 C 
ATOM     24  C   UNL     1       1.528  -2.437  -2.409  0.00  0.00    -0.079 C 
ATOM     25  H   UNL     1       1.155  -2.301  -0.409  0.00  0.00    -0.082 HD
BRANCH  19  26
ATOM     26  C   UNL     1       0.718  -0.497  -1.257  0.00  0.00    -0.079 C 
BRANCH  26  28
ATOM     27  C   UNL     1      -0.019   1.526   0.010  0.00  0.00    +0.002 C 
ATOM     28  C   UNL     1       0.002  -0.004   0.002  0.00  0.00    -0.022 C 
ENDBRANCH  26  28
ENDBRANCH  19  26
ENDBRANCH  18  22
ENDBRANCH   1  18
TORSDOF 7
