REMARK  Name = ZINC39711373
REMARK  11 active torsions:
REMARK  status: ('A' for Active; 'I' for Inactive)
REMARK    1  A    between atoms: C_1  and  C_2
REMARK    2  A    between atoms: C_7  and  N_8
REMARK    3  A    between atoms: N_11  and  C_14
REMARK    4  A    between atoms: C_14  and  C_16
REMARK    5  A    between atoms: C_14  and  C_30
REMARK    6  A    between atoms: C_22  and  O_28
REMARK    7  A    between atoms: O_28  and  C_29
REMARK    8  A    between atoms: N_35  and  C_36
REMARK    9  A    between atoms: C_36  and  C_37
REMARK   10  A    between atoms: C_36  and  C_38
REMARK   11  A    between atoms: C_36  and  C_39
REMARK                            x       y       z     vdW  Elec       q    Type
REMARK                         _______ _______ _______ _____ _____    ______ ____
ROOT
ATOM      1  C   UNL     1      -0.009   3.514   4.662  0.00  0.00    -0.009 C 
ENDROOT
BRANCH   1   2
ATOM      2  C   UNL     1      -1.294   3.641   5.482  0.00  0.00    +0.088 C 
ATOM      3  C   UNL     1      -1.213   2.654   6.630  0.00  0.00    -0.006 C 
ATOM      4  C   UNL     1      -1.312   3.154   7.892  0.00  0.00    -0.007 A 
ATOM      5  C   UNL     1      -1.243   2.266   9.055  0.00  0.00    +0.013 A 
ATOM      6  C   UNL     1      -1.345   2.798  10.296  0.00  0.00    +0.046 A 
ATOM      7  C   UNL     1      -1.516   4.178  10.485  0.00  0.00    +0.122 A 
ATOM      8  C   UNL     1      -1.588   5.062   9.431  0.00  0.00    +0.069 A 
ATOM      9  C   UNL     1      -1.492   4.600   8.111  0.00  0.00    +0.044 A 
ATOM     10  N   UNL     1      -1.564   5.466   7.097  0.00  0.00    -0.284 N 
ATOM     11  C   UNL     1      -1.479   5.101   5.831  0.00  0.00    +0.223 C 
ATOM     12  O   UNL     1      -1.550   5.936   4.949  0.00  0.00    -0.275 OA
ATOM     13  H   UNL     1      -1.684   6.407   7.300  0.00  0.00    +0.155 HD
BRANCH   7  14
ATOM     14  O   UNL     1      -1.613   4.657  11.748  0.00  0.00    -0.495 OA
ATOM     15  C   UNL     1      -1.533   3.706  12.811  0.00  0.00    +0.277 C 
ENDBRANCH   7  14
ENDBRANCH   1   2
BRANCH   1  19
ATOM     16  N   UNL     1       0.452  -0.053   2.524  0.00  0.00    -0.333 N 
ATOM     17  C   UNL     1      -0.833   0.154   3.209  0.00  0.00    +0.086 C 
ATOM     18  C   UNL     1      -0.984   1.647   3.518  0.00  0.00    -0.059 C 
ATOM     19  N   UNL     1       0.187   2.111   4.272  0.00  0.00    +0.387 N 
ATOM     20  C   UNL     1       1.393   2.000   3.442  0.00  0.00    -0.059 C 
ATOM     21  C   UNL     1       1.663   0.519   3.133  0.00  0.00    +0.086 C 
ATOM     22  H   UNL     1       0.297   1.547   5.101  0.00  0.00    -0.081 HD
BRANCH  16  29
ATOM     23  C   UNL     1       0.176   1.367   0.075  0.00  0.00    +0.045 C 
ATOM     24  C   UNL     1       0.392  -0.124   0.112  0.00  0.00    -0.029 A 
ATOM     25  C   UNL     1       0.467  -0.841  -1.066  0.00  0.00    +0.006 A 
ATOM     26  C   UNL     1       0.666  -2.209  -1.033  0.00  0.00    +0.020 A 
ATOM     27  C   UNL     1       0.790  -2.864   0.180  0.00  0.00    +0.043 A 
ATOM     28  C   UNL     1       0.715  -2.152   1.362  0.00  0.00    +0.043 A 
ATOM     29  C   UNL     1       0.522  -0.777   1.331  0.00  0.00    +0.034 A 
ATOM     30 CL   UNL     1       1.039  -4.582   0.216  0.00  0.00    -0.083 Cl
ENDBRANCH  16  29
ENDBRANCH   1  19
BRANCH   1  31
ATOM     31  C   UNL     1       1.181   3.980   5.503  0.00  0.00    +0.205 C 
ATOM     32  N   UNL     1       1.233   3.241   6.772  0.00  0.00    -0.152 NA
ATOM     33  N   UNL     1       1.117   4.039   7.704  0.00  0.00    -0.070 NA
ATOM     34  N   UNL     1       0.976   5.358   7.274  0.00  0.00    -0.179 N 
ATOM     35  N   UNL     1       1.009   5.393   5.902  0.00  0.00    -0.183 NA
ATOM     36  H   UNL     1       0.871   6.129   7.853  0.00  0.00    +0.191 HD
BRANCH  35  37
ATOM     37  C   UNL     1       2.127   6.216   5.421  0.00  0.00    +0.035 C 
ATOM     38  C   UNL     1       2.195   6.141   3.895  0.00  0.00    +0.029 C 
ATOM     39  C   UNL     1       1.914   7.668   5.852  0.00  0.00    +0.029 C 
ATOM     40  C   UNL     1       3.437   5.694   6.016  0.00  0.00    +0.029 C 
ENDBRANCH  35  37
ENDBRANCH   1  31
TORSDOF 6
