REMARK  Name = ZINC15077983
REMARK  9 active torsions:
REMARK  status: ('A' for Active; 'I' for Inactive)
REMARK    1  A    between atoms: C_1  and  C_2
REMARK    2  A    between atoms: C_7  and  N_8
REMARK    3  A    between atoms: C_13  and  N_63
REMARK    4  A    between atoms: C_16  and  C_18
REMARK    5  A    between atoms: C_16  and  C_19
REMARK    6  A    between atoms: C_20  and  C_21
REMARK    7  A    between atoms: C_20  and  N_63
REMARK    8  A    between atoms: N_23  and  C_30
REMARK    9  A    between atoms: C_30  and  C_31
REMARK                            x       y       z     vdW  Elec       q    Type
REMARK                         _______ _______ _______ _____ _____    ______ ____
ROOT
ATOM      1  N   UNL     1       3.333  -0.463   1.776  0.00  0.00    +0.386 N 
ATOM      2  H   UNL     1       2.981  -1.280   2.288  0.00  0.00    -0.085 HD
ATOM      3  H   UNL     1       3.331   0.356   2.396  0.00  0.00    -0.085 HD
ENDROOT
BRANCH   1   9
ATOM      4  N   UNL     1       1.876   3.267  -0.324  0.00  0.00    -0.236 N 
ATOM      5  C   UNL     1       1.444   2.021  -0.053  0.00  0.00    +0.047 A 
ATOM      6  C   UNL     1       2.527   1.262   0.252  0.00  0.00    -0.020 A 
ATOM      7  C   UNL     1       3.658   2.071   0.162  0.00  0.00    +0.137 A 
ATOM      8  N   UNL     1       3.272   3.275  -0.183  0.00  0.00    -0.174 NA
ATOM      9  C   UNL     1       2.459  -0.200   0.618  0.00  0.00    -0.037 C 
ATOM     10  C   UNL     1       1.010  -0.539   0.987  0.00  0.00    -0.005 C 
ATOM     11  C   UNL     1       0.070  -0.027  -0.108  0.00  0.00    -0.031 C 
ATOM     12  C   UNL     1       0.026   1.506  -0.070  0.00  0.00    +0.062 C 
ATOM     13  C   UNL     1      -1.336  -0.583   0.125  0.00  0.00    +0.011 C 
ATOM     14  C   UNL     1       0.580  -0.489  -1.475  0.00  0.00    +0.011 C 
BRANCH   4  21
ATOM     15  C   UNL     1       2.254   5.724   1.062  0.00  0.00    +0.046 C 
ATOM     16  C   UNL     1       1.227   5.577  -0.032  0.00  0.00    -0.025 A 
ATOM     17  C   UNL     1       0.441   6.654  -0.392  0.00  0.00    +0.005 A 
ATOM     18  C   UNL     1      -0.506   6.517  -1.390  0.00  0.00    +0.000 A 
ATOM     19  C   UNL     1      -0.663   5.305  -2.037  0.00  0.00    +0.002 A 
ATOM     20  C   UNL     1       0.124   4.226  -1.685  0.00  0.00    +0.028 A 
ATOM     21  C   UNL     1       1.075   4.360  -0.682  0.00  0.00    +0.069 A 
ENDBRANCH   4  21
ENDBRANCH   1   9
BRANCH   1  22
ATOM     22  C   UNL     1       4.713  -0.729   1.327  0.00  0.00    -0.044 C 
BRANCH  22  23
ATOM     23  C   UNL     1       5.582  -0.994   2.529  0.00  0.00    -0.039 A 
ATOM     24  C   UNL     1       6.412  -0.121   3.123  0.00  0.00    +0.089 A 
ATOM     25  N   UNL     1       7.034  -0.718   4.186  0.00  0.00    -0.338 N 
ATOM     26  C   UNL     1       6.609  -2.022   4.305  0.00  0.00    +0.050 A 
ATOM     27  C   UNL     1       5.676  -2.251   3.276  0.00  0.00    +0.001 A 
ATOM     28  C   UNL     1       5.067  -3.501   3.153  0.00  0.00    +0.010 A 
ATOM     29  C   UNL     1       5.378  -4.497   4.035  0.00  0.00    +0.001 A 
ATOM     30  C   UNL     1       6.294  -4.276   5.054  0.00  0.00    +0.002 A 
ATOM     31  C   UNL     1       6.913  -3.052   5.189  0.00  0.00    +0.026 A 
BRANCH  25  32
ATOM     32  C   UNL     1       8.008  -0.067   5.065  0.00  0.00    +0.217 C 
BRANCH  32  33
ATOM     33  C   UNL     1       9.402  -0.368   4.581  0.00  0.00    +0.230 C 
ATOM     34  O   UNL     1       9.567  -1.060   3.598  0.00  0.00    -0.274 OA
ATOM     35  N   UNL     1      10.467   0.130   5.240  0.00  0.00    -0.328 N 
ATOM     36  H   UNL     1      10.336   0.682   6.026  0.00  0.00    +0.145 HD
ATOM     37  H   UNL     1      11.365  -0.065   4.928  0.00  0.00    +0.145 HD
ENDBRANCH  32  33
ENDBRANCH  25  32
ENDBRANCH  22  23
ENDBRANCH   1  22
TORSDOF 6
