REMARK  Name = ZINC40720727
REMARK  13 active torsions:
REMARK  status: ('A' for Active; 'I' for Inactive)
REMARK    1  A    between atoms: C_1  and  C_2
REMARK    2  A    between atoms: C_2  and  C_3
REMARK    3  A    between atoms: C_2  and  O_4
REMARK    4  A    between atoms: O_4  and  C_5
REMARK    5  A    between atoms: C_10  and  C_11
REMARK    6  A    between atoms: C_11  and  N_12
REMARK    7  A    between atoms: N_12  and  C_13
REMARK    8  A    between atoms: C_13  and  C_14
REMARK    9  A    between atoms: C_14  and  C_15
REMARK   10  A    between atoms: C_15  and  N_16
REMARK   11  A    between atoms: N_16  and  C_17
REMARK   12  A    between atoms: C_17  and  C_18
REMARK   13  A    between atoms: C_18  and  O_19
REMARK                            x       y       z     vdW  Elec       q    Type
REMARK                         _______ _______ _______ _____ _____    ______ ____
ROOT
ATOM      1  N   UNL     1       2.795   0.081   3.559  0.00  0.00    +0.382 N 
ATOM      2  H   UNL     1       2.557   0.628   2.745  0.00  0.00    -0.085 HD
ATOM      3  H   UNL     1       2.526   0.582   4.392  0.00  0.00    -0.085 HD
ENDROOT
BRANCH   1   4
ATOM      4  C   UNL     1       2.083  -1.203   3.509  0.00  0.00    -0.043 C 
BRANCH   4  10
ATOM      5  C   UNL     1      -0.031  -0.600   2.303  0.00  0.00    +0.122 A 
ATOM      6  C   UNL     1      -1.400  -0.376   2.286  0.00  0.00    +0.047 A 
ATOM      7  C   UNL     1      -2.135  -0.501   3.449  0.00  0.00    +0.019 A 
ATOM      8  C   UNL     1      -1.506  -0.848   4.631  0.00  0.00    +0.018 A 
ATOM      9  C   UNL     1      -0.141  -1.071   4.651  0.00  0.00    +0.020 A 
ATOM     10  C   UNL     1       0.597  -0.953   3.489  0.00  0.00    -0.022 A 
ATOM     11 BR   UNL     1      -2.513  -1.018   6.222  0.00  0.00    -0.050 Br
BRANCH   5  12
ATOM     12  O   UNL     1       0.693  -0.477   1.160  0.00  0.00    -0.489 OA
BRANCH  12  14
ATOM     13  C   UNL     1      -0.294   1.265  -0.193  0.00  0.00    +0.051 C 
ATOM     14  C   UNL     1      -0.034  -0.235  -0.046  0.00  0.00    +0.167 C 
ATOM     15  C   UNL     1       0.782  -0.731  -1.242  0.00  0.00    +0.051 C 
ENDBRANCH  12  14
ENDBRANCH   5  12
ENDBRANCH   4  10
ENDBRANCH   1   4
BRANCH   1  16
ATOM     16  C   UNL     1       4.243  -0.163   3.579  0.00  0.00    -0.084 C 
BRANCH  16  17
ATOM     17  C   UNL     1       4.984   1.174   3.630  0.00  0.00    -0.038 C 
BRANCH  17  18
ATOM     18  C   UNL     1       6.493   0.920   3.651  0.00  0.00    -0.084 C 
BRANCH  18  19
ATOM     19  N   UNL     1       7.205   2.204   3.701  0.00  0.00    +0.380 N 
ATOM     20  H   UNL     1       6.968   2.752   2.887  0.00  0.00    -0.086 HD
ATOM     21  H   UNL     1       6.937   2.706   4.534  0.00  0.00    -0.086 HD
BRANCH  19  22
ATOM     22  C   UNL     1       8.654   1.961   3.721  0.00  0.00    -0.054 C 
BRANCH  22  23
ATOM     23  C   UNL     1       9.395   3.298   3.772  0.00  0.00    +0.137 C 
BRANCH  23  24
ATOM     24  O   UNL     1       9.105   3.956   5.007  0.00  0.00    -0.397 OA
ATOM     25  H   UNL     1       9.543   4.813   5.109  0.00  0.00    +0.209 HD
ENDBRANCH  23  24
ENDBRANCH  22  23
ENDBRANCH  19  22
ENDBRANCH  18  19
ENDBRANCH  17  18
ENDBRANCH  16  17
ENDBRANCH   1  16
TORSDOF 11
