REMARK  Name = ZINC59200881
REMARK  9 active torsions:
REMARK  status: ('A' for Active; 'I' for Inactive)
REMARK    1  A    between atoms: C_1  and  C_2
REMARK    2  A    between atoms: C_2  and  N_3
REMARK    3  A    between atoms: N_3  and  C_4
REMARK    4  A    between atoms: N_3  and  C_12
REMARK    5  A    between atoms: C_7  and  N_11
REMARK    6  A    between atoms: C_12  and  C_14
REMARK    7  A    between atoms: C_12  and  C_15
REMARK    8  A    between atoms: C_15  and  O_16
REMARK    9  A    between atoms: O_16  and  C_17
REMARK                            x       y       z     vdW  Elec       q    Type
REMARK                         _______ _______ _______ _____ _____    ______ ____
ROOT
ATOM      1  C   UNL     1      -2.196  -0.072  -1.058  0.00  0.00    +0.028 A 
ATOM      2  C   UNL     1      -1.670  -0.297  -2.317  0.00  0.00    +0.024 A 
ATOM      3  C   UNL     1      -2.343   0.147  -3.438  0.00  0.00    +0.024 A 
ATOM      4  C   UNL     1      -3.551   0.820  -3.301  0.00  0.00    +0.026 A 
ATOM      5  C   UNL     1      -4.077   1.045  -2.036  0.00  0.00    +0.039 A 
ATOM      6  C   UNL     1      -3.401   0.594  -0.918  0.00  0.00    +0.039 A 
ATOM      7 BR   UNL     1      -4.120   0.892   0.805  0.00  0.00    -0.048 Br
ENDROOT
BRANCH   4   8
ATOM      8  N   UNL     1      -4.233   1.271  -4.433  0.00  0.00    -0.358 N 
ATOM      9  H   UNL     1      -3.865   1.114  -5.316  0.00  0.00    +0.142 HD
ATOM     10  H   UNL     1      -5.076   1.741  -4.336  0.00  0.00    +0.142 HD
ENDBRANCH   4   8
BRANCH   1  11
ATOM     11  N   UNL     1      -1.512  -0.522   0.074  0.00  0.00    -0.389 NA
ATOM     12  H   UNL     1      -2.035  -0.279   0.902  0.00  0.00    +0.127 HD
BRANCH  11  14
ATOM     13  C   UNL     1      -0.349   1.617   0.337  0.00  0.00    +0.022 C 
ATOM     14  C   UNL     1      -0.187   0.110   0.130  0.00  0.00    +0.082 C 
ENDBRANCH  11  14
BRANCH  11  15
ATOM     15  C   UNL     1      -1.356  -1.981   0.004  0.00  0.00    +0.078 C 
ATOM     16  C   UNL     1      -2.728  -2.632  -0.187  0.00  0.00    +0.029 C 
BRANCH  15  17
ATOM     17  C   UNL     1      -0.727  -2.490   1.303  0.00  0.00    +0.180 C 
BRANCH  17  18
ATOM     18  O   UNL     1      -1.613  -2.232   2.394  0.00  0.00    -0.381 OA
ATOM     19  C   UNL     1      -1.118  -2.671   3.661  0.00  0.00    +0.194 C 
ENDBRANCH  17  18
ENDBRANCH  15  17
ENDBRANCH  11  15
ENDBRANCH   1  11
TORSDOF 6
