REMARK  Name = ZINC19808553
REMARK  6 active torsions:
REMARK  status: ('A' for Active; 'I' for Inactive)
REMARK    1  A    between atoms: C_4  and  N_7
REMARK    2  A    between atoms: N_7  and  C_8
REMARK    3  A    between atoms: N_7  and  C_13
REMARK    4  A    between atoms: C_8  and  C_9
REMARK    5  A    between atoms: C_9  and  C_10
REMARK    6  A    between atoms: C_13  and  C_14
REMARK                            x       y       z     vdW  Elec       q    Type
REMARK                         _______ _______ _______ _____ _____    ______ ____
ROOT
ATOM      1  N   UNL     1       3.905  -0.672   0.162  0.00  0.00    -0.325 N 
ENDROOT
BRANCH   1   5
ATOM      2  C   UNL     1       0.884   2.053  -0.728  0.00  0.00    +0.000 A 
ATOM      3  C   UNL     1       2.171   2.502  -0.490  0.00  0.00    +0.002 A 
ATOM      4  C   UNL     1       3.175   1.601  -0.195  0.00  0.00    +0.023 A 
ATOM      5  C   UNL     1       2.892   0.242  -0.137  0.00  0.00    +0.030 A 
ATOM      6  C   UNL     1       1.599  -0.206  -0.376  0.00  0.00    +0.023 A 
ATOM      7  C   UNL     1       0.599   0.701  -0.670  0.00  0.00    +0.002 A 
ENDBRANCH   1   5
BRANCH   1   8
ATOM      8  C   UNL     1       5.228  -0.192   0.569  0.00  0.00    +0.113 C 
BRANCH   8   9
ATOM      9  C   UNL     1       5.268  -0.039   2.091  0.00  0.00    +0.087 C 
BRANCH   9  10
ATOM     10  C   UNL     1       6.629   0.455   2.510  0.00  0.00    +0.064 C 
ATOM     11  N   UNL     1       7.539   0.678   1.619  0.00  0.00    -0.391 N 
ATOM     12  N   UNL     1       6.902   0.667   3.836  0.00  0.00    -0.348 N 
ATOM     13  H   UNL     1       8.532   1.039   1.925  0.00  0.00    +0.157 HD
ATOM     14  H   UNL     1       7.895   1.028   4.142  0.00  0.00    +0.143 HD
ATOM     15  H   UNL     1       6.128   0.477   4.594  0.00  0.00    +0.143 HD
ATOM     16  H   UNL     1       7.319   0.507   0.554  0.00  0.00    +0.157 HD
ENDBRANCH   9  10
ENDBRANCH   8   9
ENDBRANCH   1   8
BRANCH   1  17
ATOM     17  C   UNL     1       3.645  -2.110   0.067  0.00  0.00    +0.141 C 
BRANCH  17  18
ATOM     18  C   UNL     1       4.407  -2.683  -1.100  0.00  0.00    -0.016 A 
ATOM     19  C   UNL     1       5.644  -3.266  -0.898  0.00  0.00    +0.009 A 
ATOM     20  C   UNL     1       6.344  -3.792  -1.967  0.00  0.00    +0.039 A 
ATOM     21  C   UNL     1       5.805  -3.735  -3.242  0.00  0.00    +0.124 A 
ATOM     22  C   UNL     1       4.566  -3.152  -3.444  0.00  0.00    +0.054 A 
ATOM     23  C   UNL     1       3.865  -2.631  -2.372  0.00  0.00    +0.025 A 
ATOM     24 BR   UNL     1       2.169  -1.841  -2.645  0.00  0.00    -0.050 Br
ATOM     25  F   UNL     1       6.489  -4.249  -4.288  0.00  0.00    -0.205 F 
ENDBRANCH  17  18
ENDBRANCH   1  17
TORSDOF 6
