REMARK  Name = ZINC64541234
REMARK  11 active torsions:
REMARK  status: ('A' for Active; 'I' for Inactive)
REMARK    1  A    between atoms: C_1  and  C_2
REMARK    2  A    between atoms: C_2  and  O_3
REMARK    3  A    between atoms: O_3  and  C_4
REMARK    4  A    between atoms: C_7  and  C_12
REMARK    5  A    between atoms: C_9  and  O_10
REMARK    6  A    between atoms: O_10  and  C_11
REMARK    7  A    between atoms: C_12  and  N_13
REMARK    8  A    between atoms: C_14  and  C_16
REMARK    9  A    between atoms: C_16  and  C_18
REMARK   10  A    between atoms: C_16  and  C_19
REMARK   11  A    between atoms: C_25  and  C_27
REMARK                            x       y       z     vdW  Elec       q    Type
REMARK                         _______ _______ _______ _____ _____    ______ ____
ROOT
ATOM      1  C   UNL     1      -2.424  -9.931   3.021  0.00  0.00    +0.004 C 
ATOM      2  C   UNL     1      -2.478 -10.445   4.462  0.00  0.00    +0.023 C 
ATOM      3  C   UNL     1      -2.689 -11.962   4.452  0.00  0.00    +0.108 C 
ATOM      4  N   UNL     1      -1.639 -12.580   3.630  0.00  0.00    -0.300 N 
ATOM      5  C   UNL     1      -1.442 -12.097   2.256  0.00  0.00    +0.108 C 
ATOM      6  C   UNL     1      -1.245 -10.578   2.291  0.00  0.00    +0.023 C 
ATOM      7  C   UNL     1      -0.872 -13.570   4.126  0.00  0.00    +0.242 C 
ATOM      8  O   UNL     1      -1.044 -13.960   5.262  0.00  0.00    -0.273 OA
ENDROOT
BRANCH   7   9
ATOM      9  C   UNL     1       0.200 -14.194   3.271  0.00  0.00    +0.190 C 
ATOM     10  C   UNL     1      -0.419 -14.860   2.062  0.00  0.00    +0.016 C 
ATOM     11  C   UNL     1      -0.096 -16.170   2.149  0.00  0.00    -0.002 A 
ATOM     12  C   UNL     1      -0.393 -17.326   1.295  0.00  0.00    +0.029 A 
ATOM     13  C   UNL     1       0.080 -18.543   1.651  0.00  0.00    +0.042 A 
ATOM     14  C   UNL     1       0.844 -18.727   2.813  0.00  0.00    +0.022 A 
ATOM     15  C   UNL     1       1.157 -17.713   3.647  0.00  0.00    +0.027 A 
ATOM     16  C   UNL     1       0.713 -16.390   3.370  0.00  0.00    +0.043 A 
ATOM     17  N   UNL     1       0.884 -15.259   4.013  0.00  0.00    -0.370 N 
ATOM     18 CL   UNL     1      -0.270 -19.913   0.643  0.00  0.00    -0.084 Cl
ATOM     19  H   UNL     1       1.378 -15.146   4.839  0.00  0.00    +0.161 HD
ENDBRANCH   7   9
BRANCH   1  20
ATOM     20  C   UNL     1      -2.248  -8.412   3.027  0.00  0.00    +0.075 C 
ATOM     21  C   UNL     1      -3.427  -7.765   3.757  0.00  0.00    +0.017 C 
BRANCH  20  23
ATOM     22  N   UNL     1      -2.046  -6.588   1.368  0.00  0.00    -0.311 N 
ATOM     23  C   UNL     1      -2.197  -7.906   1.609  0.00  0.00    +0.216 C 
ATOM     24  O   UNL     1      -2.292  -8.684   0.684  0.00  0.00    -0.276 OA
ATOM     25  H   UNL     1      -1.970  -5.966   2.108  0.00  0.00    +0.149 HD
BRANCH  22  26
ATOM     26  C   UNL     1      -1.996  -6.097  -0.011  0.00  0.00    +0.139 C 
BRANCH  26  30
ATOM     27  C   UNL     1      -1.498  -1.849   0.006  0.00  0.00    +0.162 A 
ATOM     28  C   UNL     1      -0.389  -2.680  -0.003  0.00  0.00    +0.050 A 
ATOM     29  C   UNL     1      -0.553  -4.052  -0.008  0.00  0.00    +0.009 A 
ATOM     30  C   UNL     1      -1.823  -4.600  -0.005  0.00  0.00    -0.027 A 
ATOM     31  C   UNL     1      -2.934  -3.777   0.004  0.00  0.00    +0.054 A 
ATOM     32  C   UNL     1      -2.776  -2.400   0.016  0.00  0.00    +0.162 A 
BRANCH  32  33
ATOM     33  O   UNL     1      -3.868  -1.589   0.030  0.00  0.00    -0.491 OA
ATOM     34  C   UNL     1      -5.148  -2.225   0.039  0.00  0.00    +0.277 C 
ENDBRANCH  32  33
BRANCH  27  35
ATOM     35  O   UNL     1      -1.339  -0.499   0.012  0.00  0.00    -0.489 OA
BRANCH  35  37
ATOM     36  C   UNL     1      -0.019   1.526   0.010  0.00  0.00    +0.048 C 
ATOM     37  C   UNL     1       0.002  -0.004   0.002  0.00  0.00    +0.226 C 
ENDBRANCH  35  37
ENDBRANCH  27  35
ENDBRANCH  26  30
ENDBRANCH  22  26
ENDBRANCH  20  23
ENDBRANCH   1  20
TORSDOF 8
