REMARK  Name = ZINC04904464
REMARK  8 active torsions:
REMARK  status: ('A' for Active; 'I' for Inactive)
REMARK    1  A    between atoms: C_1  and  C_2
REMARK    2  A    between atoms: C_3  and  C_25
REMARK    3  A    between atoms: C_5  and  N_11
REMARK    4  A    between atoms: C_6  and  C_7
REMARK    5  A    between atoms: C_7  and  O_9
REMARK    6  A    between atoms: O_9  and  C_10
REMARK    7  A    between atoms: C_12  and  C_14
REMARK    8  A    between atoms: C_20  and  C_22
REMARK                            x       y       z     vdW  Elec       q    Type
REMARK                         _______ _______ _______ _____ _____    ______ ____
ROOT
ATOM      1  N   UNL     1       0.190  -3.122   2.075  0.00  0.00    -0.279 N 
ATOM      2  C   UNL     1       0.072  -4.427   1.760  0.00  0.00    +0.222 C 
ATOM      3  O   UNL     1      -0.050  -4.762   0.600  0.00  0.00    -0.275 OA
ATOM      4  H   UNL     1       0.288  -2.854   3.002  0.00  0.00    +0.155 HD
ENDROOT
BRANCH   1   9
ATOM      5  C   UNL     1       0.337   1.493  -0.006  0.00  0.00    +0.045 C 
ATOM      6  C   UNL     1       0.231  -0.010  -0.008  0.00  0.00    -0.025 A 
ATOM      7  C   UNL     1       0.085  -0.714  -1.145  0.00  0.00    -0.008 A 
ATOM      8  S   UNL     1       0.015  -2.400  -0.579  0.00  0.00    -0.078 S 
ATOM      9  C   UNL     1       0.172  -2.163   1.075  0.00  0.00    +0.086 A 
ATOM     10  C   UNL     1       0.286  -0.786   1.210  0.00  0.00    +0.091 A 
ATOM     11  C   UNL     1       0.000  -0.200  -2.559  0.00  0.00    +0.052 C 
BRANCH  10  12
ATOM     12  C   UNL     1       0.449  -0.152   2.520  0.00  0.00    +0.342 C 
ATOM     13  O   UNL     1      -0.530   0.185   3.159  0.00  0.00    -0.245 OA
BRANCH  12  14
ATOM     14  O   UNL     1       1.684   0.059   3.019  0.00  0.00    -0.464 OA
ATOM     15  C   UNL     1       1.768   0.682   4.302  0.00  0.00    +0.280 C 
ENDBRANCH  12  14
ENDBRANCH  10  12
ENDBRANCH   1   9
BRANCH   2  16
ATOM     16  C   UNL     1       0.092  -5.470   2.847  0.00  0.00    +0.093 C 
ATOM     17  C   UNL     1       0.698  -6.767   2.306  0.00  0.00    +0.040 C 
ATOM     18  C   UNL     1      -0.242  -7.408   1.327  0.00  0.00    -0.030 C 
ATOM     19  C   UNL     1      -1.500  -7.115   1.232  0.00  0.00    -0.030 C 
ATOM     20  C   UNL     1      -2.191  -6.087   2.078  0.00  0.00    +0.042 C 
ATOM     21  C   UNL     1      -1.341  -5.756   3.313  0.00  0.00    +0.118 C 
BRANCH  21  22
ATOM     22  C   UNL     1      -1.899  -4.543   4.011  0.00  0.00    +0.360 C 
ATOM     23  O   UNL     1      -3.096  -4.317   3.977  0.00  0.00    -0.246 OA
ATOM     24  O   UNL     1      -1.153  -3.788   4.611  0.00  0.00    -0.246 OA
ENDBRANCH  21  22
ENDBRANCH   2  16
TORSDOF 5
