REMARK  Name = ZINC63194975
REMARK  8 active torsions:
REMARK  status: ('A' for Active; 'I' for Inactive)
REMARK    1  A    between atoms: C_7  and  C_10
REMARK    2  A    between atoms: C_10  and  C_11
REMARK    3  A    between atoms: N_13  and  N_14
REMARK    4  A    between atoms: C_15  and  C_17
REMARK    5  A    between atoms: C_17  and  C_18
REMARK    6  A    between atoms: C_18  and  C_19
REMARK    7  A    between atoms: C_19  and  S_20
REMARK    8  A    between atoms: S_20  and  C_21
REMARK                            x       y       z     vdW  Elec       q    Type
REMARK                         _______ _______ _______ _____ _____    ______ ____
ROOT
ATOM      1  N   UNL     1      -0.567  -5.122  -3.001  0.00  0.00    -0.234 N 
ATOM      2  C   UNL     1      -1.380  -6.168  -3.245  0.00  0.00    +0.229 C 
ATOM      3  O   UNL     1      -1.926  -6.740  -2.325  0.00  0.00    -0.274 OA
ATOM      4  H   UNL     1      -0.131  -4.665  -3.737  0.00  0.00    +0.173 HD
ENDROOT
BRANCH   1   7
ATOM      5  C   UNL     1       0.460  -3.646  -1.440  0.00  0.00    +0.233 C 
ATOM      6  O   UNL     1       1.006  -3.075  -2.360  0.00  0.00    -0.274 OA
ATOM      7  N   UNL     1      -0.353  -4.693  -1.684  0.00  0.00    -0.234 N 
ATOM      8  H   UNL     1      -0.790  -5.150  -0.948  0.00  0.00    +0.173 HD
BRANCH   5   9
ATOM      9  C   UNL     1       0.691  -3.186  -0.024  0.00  0.00    +0.130 C 
BRANCH   9  16
ATOM     10  C   UNL     1      -0.016   1.348   0.009  0.00  0.00    +0.001 A 
ATOM     11  C   UNL     1       1.166   2.101   0.002  0.00  0.00    +0.002 A 
ATOM     12  C   UNL     1       2.391   1.535  -0.013  0.00  0.00    +0.026 A 
ATOM     13  C   UNL     1       2.529   0.120  -0.022  0.00  0.00    +0.043 A 
ATOM     14  N   UNL     1       3.587  -0.654  -0.037  0.00  0.00    -0.380 N 
ATOM     15  C   UNL     1       3.143  -2.053  -0.041  0.00  0.00    +0.145 C 
ATOM     16  C   UNL     1       1.631  -2.008  -0.025  0.00  0.00    -0.033 C 
ATOM     17  C   UNL     1       1.295  -0.698  -0.014  0.00  0.00    -0.001 A 
ATOM     18  C   UNL     1       0.002  -0.004   0.002  0.00  0.00    +0.010 A 
ATOM     19  H   UNL     1       4.509  -0.353  -0.045  0.00  0.00    +0.160 HD
ENDBRANCH   9  16
ENDBRANCH   5   9
ENDBRANCH   1   7
BRANCH   2  20
ATOM     20  C   UNL     1      -1.611  -6.629  -4.661  0.00  0.00    +0.098 C 
BRANCH  20  21
ATOM     21  C   UNL     1      -2.566  -7.824  -4.660  0.00  0.00    +0.020 C 
BRANCH  21  22
ATOM     22  C   UNL     1      -2.800  -8.292  -6.097  0.00  0.00    +0.072 C 
BRANCH  22  23
ATOM     23  S   UNL     1      -3.933  -9.709  -6.095  0.00  0.00    -0.128 S 
BRANCH  23  24
ATOM     24  C   UNL     1      -4.104 -10.137  -7.850  0.00  0.00    +0.193 C 
ATOM     25  N   UNL     1      -2.794 -10.411  -8.457  0.00  0.00    -0.323 N 
ATOM     26  C   UNL     1      -2.381  -9.581  -9.499  0.00  0.00    +0.042 A 
ATOM     27  C   UNL     1      -1.165  -9.689 -10.197  0.00  0.00    +0.024 A 
ATOM     28  C   UNL     1      -0.848  -8.818 -11.213  0.00  0.00    +0.002 A 
ATOM     29  C   UNL     1      -1.714  -7.806 -11.582  0.00  0.00    +0.001 A 
ATOM     30  C   UNL     1      -2.918  -7.675 -10.912  0.00  0.00    +0.016 A 
ATOM     31  C   UNL     1      -3.235  -8.548  -9.895  0.00  0.00    +0.031 A 
ATOM     32  S   UNL     1      -4.656  -8.686  -8.833  0.00  0.00    -0.090 S 
ATOM     33  H   UNL     1      -2.238 -11.141  -8.145  0.00  0.00    +0.148 HD
ENDBRANCH  23  24
ENDBRANCH  22  23
ENDBRANCH  21  22
ENDBRANCH  20  21
ENDBRANCH   2  20
TORSDOF 8
