REMARK  Name = ZINC40701954
REMARK  10 active torsions:
REMARK  status: ('A' for Active; 'I' for Inactive)
REMARK    1  A    between atoms: C_1  and  C_2
REMARK    2  A    between atoms: C_2  and  N_3
REMARK    3  A    between atoms: N_3  and  C_4
REMARK    4  A    between atoms: C_4  and  C_5
REMARK    5  A    between atoms: C_5  and  O_6
REMARK    6  A    between atoms: C_8  and  N_26
REMARK    7  A    between atoms: C_9  and  N_13
REMARK    8  A    between atoms: N_13  and  C_14
REMARK    9  A    between atoms: N_13  and  C_16
REMARK   10  A    between atoms: C_14  and  C_15
REMARK                            x       y       z     vdW  Elec       q    Type
REMARK                         _______ _______ _______ _____ _____    ______ ____
ROOT
ATOM      1  N   UNL     1      -1.403  -0.494   0.013  0.00  0.00    -0.312 N 
ATOM      2  C   UNL     1      -2.118  -0.781   1.169  0.00  0.00    +0.147 A 
ATOM      3  C   UNL     1      -1.567  -0.525   2.426  0.00  0.00    +0.104 A 
ATOM      4  C   UNL     1      -2.329  -0.832   3.554  0.00  0.00    +0.129 A 
ATOM      5  N   UNL     1      -3.543  -1.354   3.390  0.00  0.00    -0.332 N 
ATOM      6  C   UNL     1      -4.026  -1.580   2.186  0.00  0.00    +0.200 A 
ATOM      7  N   UNL     1      -3.342  -1.299   1.095  0.00  0.00    -0.221 NA
ATOM      8  H   UNL     1      -4.080  -1.570   4.169  0.00  0.00    +0.168 HD
ENDROOT
BRANCH   3   9
ATOM      9  N   UNL     1      -0.282   0.025   2.552  0.00  0.00    -0.353 N 
ATOM     10  H   UNL     1       0.207   0.301   1.761  0.00  0.00    +0.143 HD
ATOM     11  H   UNL     1       0.117   0.131   3.430  0.00  0.00    +0.143 HD
ENDBRANCH   3   9
BRANCH   1  13
ATOM     12  C   UNL     1       0.824  -1.488  -0.175  0.00  0.00    +0.024 C 
ATOM     13  C   UNL     1      -0.629  -1.547  -0.650  0.00  0.00    +0.103 C 
ENDBRANCH   1  13
BRANCH   1  14
ATOM     14  C   UNL     1      -1.422   0.861  -0.543  0.00  0.00    +0.134 C 
BRANCH  14  15
ATOM     15  C   UNL     1      -2.579   0.989  -1.535  0.00  0.00    +0.174 C 
BRANCH  15  16
ATOM     16  O   UNL     1      -3.820   0.848  -0.840  0.00  0.00    -0.393 OA
ATOM     17  H   UNL     1      -4.599   0.919  -1.408  0.00  0.00    +0.209 HD
ENDBRANCH  15  16
ENDBRANCH  14  15
ENDBRANCH   1  14
BRANCH   4  18
ATOM     18  N   UNL     1      -1.828  -0.598   4.830  0.00  0.00    -0.285 N 
BRANCH  18  19
ATOM     19  C   UNL     1      -1.202  -1.626   5.533  0.00  0.00    +0.043 A 
ATOM     20  C   UNL     1       0.159  -1.819   5.418  0.00  0.00    +0.024 A 
ATOM     21  C   UNL     1       0.793  -2.842   6.115  0.00  0.00    +0.002 A 
ATOM     22  C   UNL     1       0.092  -3.680   6.928  0.00  0.00    +0.008 A 
ATOM     23  C   UNL     1      -1.297  -3.518   7.072  0.00  0.00    -0.016 A 
ATOM     24  C   UNL     1      -1.954  -2.476   6.372  0.00  0.00    +0.003 A 
ATOM     25  C   UNL     1      -3.339  -2.311   6.522  0.00  0.00    +0.010 A 
ATOM     26  C   UNL     1      -4.033  -3.150   7.341  0.00  0.00    +0.001 A 
ATOM     27  C   UNL     1      -3.387  -4.171   8.035  0.00  0.00    +0.001 A 
ATOM     28  C   UNL     1      -2.046  -4.368   7.904  0.00  0.00    +0.008 A 
ENDBRANCH  18  19
BRANCH  18  29
ATOM     29  C   UNL     1      -1.958   0.730   5.436  0.00  0.00    +0.109 C 
ATOM     30  C   UNL     1      -3.213   0.771   6.310  0.00  0.00    +0.025 C 
ENDBRANCH  18  29
ENDBRANCH   4  18
TORSDOF 8
