REMARK  Name = ZINC57358742
REMARK  9 active torsions:
REMARK  status: ('A' for Active; 'I' for Inactive)
REMARK    1  A    between atoms: C_1  and  C_2
REMARK    2  A    between atoms: C_5  and  C_7
REMARK    3  A    between atoms: C_10  and  C_12
REMARK    4  A    between atoms: C_12  and  C_13
REMARK    5  A    between atoms: C_13  and  C_14
REMARK    6  A    between atoms: N_16  and  C_17
REMARK    7  A    between atoms: C_21  and  C_23
REMARK    8  A    between atoms: C_23  and  N_24
REMARK    9  A    between atoms: C_28  and  C_30
REMARK                            x       y       z     vdW  Elec       q    Type
REMARK                         _______ _______ _______ _____ _____    ______ ____
ROOT
ATOM      1  C   UNL     1       0.585   7.428   5.831  0.00  0.00    +0.034 A 
ATOM      2  C   UNL     1       0.231   7.105   7.135  0.00  0.00    +0.023 A 
ATOM      3  C   UNL     1      -0.163   8.099   8.009  0.00  0.00    +0.002 A 
ATOM      4  C   UNL     1      -0.204   9.415   7.587  0.00  0.00    +0.002 A 
ATOM      5  C   UNL     1       0.147   9.741   6.290  0.00  0.00    -0.062 A 
ATOM      6  C   UNL     1       0.548   8.752   5.413  0.00  0.00    +0.025 A 
ENDROOT
BRANCH   1   9
ATOM      7  C   UNL     1       0.411   5.204   5.003  0.00  0.00    +0.218 C 
ATOM      8  O   UNL     1      -0.388   4.953   5.880  0.00  0.00    -0.275 OA
ATOM      9  N   UNL     1       0.984   6.423   4.943  0.00  0.00    -0.285 N 
ATOM     10  H   UNL     1       1.672   6.603   4.284  0.00  0.00    +0.155 HD
BRANCH   7  11
ATOM     11  C   UNL     1       0.765   4.154   3.982  0.00  0.00    +0.104 C 
BRANCH  11  12
ATOM     12  C   UNL     1      -0.019   2.873   4.275  0.00  0.00    +0.083 C 
BRANCH  12  16
ATOM     13  C   UNL     1       0.290   0.606   1.430  0.00  0.00    +0.109 A 
ATOM     14  C   UNL     1       1.302   0.141   2.184  0.00  0.00    +0.045 A 
ATOM     15  C   UNL     1       1.331   0.926   3.360  0.00  0.00    +0.045 A 
ATOM     16  C   UNL     1       0.335   1.823   3.253  0.00  0.00    +0.106 A 
ATOM     17  O   UNL     1      -0.288   1.629   2.080  0.00  0.00    -0.464 OA
BRANCH  13  21
ATOM     18  C   UNL     1       0.399   2.470  -0.832  0.00  0.00    +0.008 C 
ATOM     19  C   UNL     1      -0.067   1.038  -1.105  0.00  0.00    -0.003 C 
ATOM     20  C   UNL     1      -1.418   0.612  -0.527  0.00  0.00    +0.015 C 
ATOM     21  C   UNL     1      -0.120   0.073   0.081  0.00  0.00    +0.058 C 
ENDBRANCH  13  21
ENDBRANCH  12  16
ENDBRANCH  11  12
ENDBRANCH   7  11
ENDBRANCH   1   9
BRANCH   5  22
ATOM     22  C   UNL     1       0.100  11.176   5.835  0.00  0.00    -0.042 C 
BRANCH  22  23
ATOM     23  N   UNL     1       1.400  11.813   6.086  0.00  0.00    +0.390 N 
ATOM     24  C   UNL     1       2.433  11.238   5.188  0.00  0.00    -0.077 C 
ATOM     25  C   UNL     1       3.526  12.336   5.157  0.00  0.00    -0.020 C 
ATOM     26  C   UNL     1       2.703  13.644   5.168  0.00  0.00    -0.008 C 
ATOM     27  C   UNL     1       1.334  13.253   5.757  0.00  0.00    +0.019 C 
ATOM     28  H   UNL     1       1.668  11.688   7.051  0.00  0.00    -0.080 HD
BRANCH  27  29
ATOM     29  C   UNL     1       1.065  14.054   7.005  0.00  0.00    +0.197 C 
ATOM     30  O   UNL     1       0.938  13.490   8.071  0.00  0.00    -0.278 OA
ATOM     31  N   UNL     1       0.965  15.396   6.936  0.00  0.00    -0.331 N 
ATOM     32  H   UNL     1       1.067  15.847   6.083  0.00  0.00    +0.145 HD
ATOM     33  H   UNL     1       0.791  15.911   7.739  0.00  0.00    +0.145 HD
ENDBRANCH  27  29
ENDBRANCH  22  23
ENDBRANCH   5  22
TORSDOF 8
