REMARK  Name = ZINC65771323
REMARK  2 active torsions:
REMARK  status: ('A' for Active; 'I' for Inactive)
REMARK    1  A    between atoms: C_6  and  N_7
REMARK    2  A    between atoms: N_10  and  C_11
REMARK                            x       y       z     vdW  Elec       q    Type
REMARK                         _______ _______ _______ _____ _____    ______ ____
ROOT
ATOM      1  N   UNL     1      -1.298  -0.903   0.718  0.00  0.00    -0.269 N 
ATOM      2  C   UNL     1      -2.500  -0.301   0.819  0.00  0.00    +0.308 C 
ATOM      3  O   UNL     1      -2.613   0.728   1.457  0.00  0.00    -0.252 OA
ATOM      4  N   UNL     1      -3.577  -0.841   0.214  0.00  0.00    -0.268 N 
ATOM      5  H   UNL     1      -1.192  -1.682   0.149  0.00  0.00    +0.156 HD
ATOM      6  H   UNL     1      -3.504  -1.699  -0.231  0.00  0.00    +0.156 HD
ENDROOT
BRANCH   1  12
ATOM      7  C   UNL     1      -0.396   0.166   2.686  0.00  0.00    +0.024 A 
ATOM      8  C   UNL     1       0.686   0.656   3.394  0.00  0.00    +0.018 A 
ATOM      9  C   UNL     1       1.958   0.578   2.854  0.00  0.00    +0.030 A 
ATOM     10  C   UNL     1       2.164   0.010   1.595  0.00  0.00    +0.049 A 
ATOM     11  C   UNL     1       1.071  -0.483   0.891  0.00  0.00    +0.047 A 
ATOM     12  C   UNL     1      -0.202  -0.404   1.435  0.00  0.00    +0.037 A 
ATOM     13  N   UNL     1       3.434  -0.068   1.030  0.00  0.00    -0.284 N 
ATOM     14  C   UNL     1       4.591  -0.028   1.685  0.00  0.00    +0.227 C 
ATOM     15  O   UNL     1       5.616  -0.120   1.043  0.00  0.00    -0.275 OA
ATOM     16  C   UNL     1       4.698   0.127   3.177  0.00  0.00    +0.170 C 
ATOM     17  S   UNL     1       3.345   1.197   3.753  0.00  0.00    -0.114 S 
ATOM     18  H   UNL     1       3.479  -0.162   0.066  0.00  0.00    +0.155 HD
ENDBRANCH   1  12
BRANCH   4  19
ATOM     19  C   UNL     1      -4.803  -0.160   0.227  0.00  0.00    +0.051 A 
ATOM     20  C   UNL     1      -4.836   1.234   0.227  0.00  0.00    +0.028 A 
ATOM     21  C   UNL     1      -6.067   1.863   0.240  0.00  0.00    +0.043 A 
ATOM     22  C   UNL     1      -7.223   1.091   0.253  0.00  0.00    +0.099 A 
ATOM     23  N   UNL     1      -7.154  -0.231   0.253  0.00  0.00    -0.348 N 
ATOM     24  C   UNL     1      -5.996  -0.865   0.235  0.00  0.00    +0.107 A 
ATOM     25  N   UNL     1      -8.468   1.714   0.267  0.00  0.00    -0.317 N 
ATOM     26  C   UNL     1      -8.699   3.167   0.263  0.00  0.00    +0.106 C 
ATOM     27  C   UNL     1     -10.225   3.388   0.308  0.00  0.00    +0.020 C 
ATOM     28  C   UNL     1     -10.752   2.057   0.906  0.00  0.00    +0.020 C 
ATOM     29  C   UNL     1      -9.773   1.029   0.281  0.00  0.00    +0.106 C 
ATOM     30  H   UNL     1      -7.975  -0.747   0.261  0.00  0.00    +0.167 HD
ENDBRANCH   4  19
TORSDOF 2
