REMARK  Name = ZINC39685708
REMARK  15 active torsions:
REMARK  status: ('A' for Active; 'I' for Inactive)
REMARK    1  A    between atoms: C_1  and  C_2
REMARK    2  A    between atoms: C_2  and  C_3
REMARK    3  A    between atoms: C_3  and  C_4
REMARK    4  A    between atoms: C_4  and  C_6
REMARK    5  A    between atoms: C_4  and  C_7
REMARK    6  A    between atoms: C_11  and  C_20
REMARK    7  A    between atoms: N_22  and  C_23
REMARK    8  A    between atoms: C_23  and  C_25
REMARK    9  A    between atoms: C_23  and  C_28
REMARK   10  A    between atoms: C_25  and  C_26
REMARK   11  A    between atoms: C_25  and  C_27
REMARK   12  A    between atoms: N_30  and  C_31
REMARK   13  A    between atoms: C_31  and  C_32
REMARK   14  A    between atoms: C_31  and  C_33
REMARK   15  A    between atoms: C_31  and  C_34
REMARK                            x       y       z     vdW  Elec       q    Type
REMARK                         _______ _______ _______ _____ _____    ______ ____
ROOT
ATOM      1  C   UNL     1       0.927  -3.741   3.187  0.00  0.00    +0.218 C 
ATOM      2  O   UNL     1       1.100  -3.146   4.229  0.00  0.00    -0.275 OA
ATOM      3  N   UNL     1       1.357  -5.012   3.056  0.00  0.00    -0.300 N 
ATOM      4  C   UNL     1       1.339  -5.857   1.839  0.00  0.00    +0.121 C 
ATOM      5  C   UNL     1       2.675  -6.632   1.882  0.00  0.00    +0.100 C 
ATOM      6  C   UNL     1       3.074  -6.645   3.368  0.00  0.00    -0.004 C 
ATOM      7  C   UNL     1       1.962  -5.878   4.097  0.00  0.00    +0.115 C 
ATOM      8  C   UNL     1       4.411  -5.937   3.562  0.00  0.00    -0.010 C 
ATOM      9  C   UNL     1       4.813  -6.013   5.038  0.00  0.00    -0.082 C 
ATOM     10  N   UNL     1       4.917  -7.419   5.447  0.00  0.00    +0.379 N 
ATOM     11  C   UNL     1       3.605  -8.069   5.344  0.00  0.00    -0.082 C 
ATOM     12  C   UNL     1       3.151  -8.080   3.881  0.00  0.00    -0.010 C 
ATOM     13  H   UNL     1       5.574  -7.894   4.847  0.00  0.00    -0.086 HD
ATOM     14  H   UNL     1       5.241  -7.467   6.401  0.00  0.00    -0.086 HD
ENDROOT
BRANCH   5  15
ATOM     15  C   UNL     1       3.721  -5.921   1.062  0.00  0.00    +0.219 C 
ATOM     16  O   UNL     1       3.648  -4.722   0.894  0.00  0.00    -0.275 OA
ATOM     17  N   UNL     1       4.738  -6.618   0.516  0.00  0.00    -0.303 N 
ATOM     18  H   UNL     1       4.787  -7.579   0.637  0.00  0.00    +0.149 HD
BRANCH  17  19
ATOM     19  C   UNL     1       5.768  -5.923  -0.259  0.00  0.00    +0.161 C 
BRANCH  19  20
ATOM     20  C   UNL     1       6.271  -6.830  -1.353  0.00  0.00    +0.234 C 
ATOM     21  O   UNL     1       5.813  -7.947  -1.472  0.00  0.00    -0.274 OA
ATOM     22  N   UNL     1       7.229  -6.400  -2.198  0.00  0.00    -0.309 N 
ATOM     23  H   UNL     1       7.595  -5.507  -2.102  0.00  0.00    +0.149 HD
BRANCH  22  24
ATOM     24  C   UNL     1       7.717  -7.282  -3.261  0.00  0.00    +0.026 C 
ATOM     25  C   UNL     1       6.556  -7.664  -4.181  0.00  0.00    +0.031 C 
ATOM     26  C   UNL     1       8.794  -6.557  -4.071  0.00  0.00    +0.031 C 
ATOM     27  C   UNL     1       8.313  -8.548  -2.640  0.00  0.00    +0.031 C 
ENDBRANCH  22  24
ENDBRANCH  19  20
BRANCH  19  28
ATOM     28  C   UNL     1       6.929  -5.542   0.661  0.00  0.00    +0.012 C 
ATOM     29  C   UNL     1       6.464  -4.473   1.652  0.00  0.00    +0.009 C 
ATOM     30  C   UNL     1       7.399  -6.779   1.429  0.00  0.00    +0.009 C 
ENDBRANCH  19  28
ENDBRANCH  17  19
ENDBRANCH   5  15
BRANCH   1  31
ATOM     31  C   UNL     1       0.230  -3.060   2.037  0.00  0.00    +0.072 C 
ATOM     32  C   UNL     1       0.593  -1.574   2.029  0.00  0.00    +0.017 C 
BRANCH  31  33
ATOM     33  C   UNL     1      -1.284  -3.215   2.194  0.00  0.00    +0.012 C 
BRANCH  33  35
ATOM     34  C   UNL     1      -3.500  -2.788   1.122  0.00  0.00    +0.004 C 
ATOM     35  C   UNL     1      -1.986  -2.633   0.965  0.00  0.00    -0.003 C 
ENDBRANCH  33  35
ENDBRANCH  31  33
ENDBRANCH   1  31
TORSDOF 8
