REMARK  Name = ZINC39760601
REMARK  9 active torsions:
REMARK  status: ('A' for Active; 'I' for Inactive)
REMARK    1  A    between atoms: C_1  and  C_2
REMARK    2  A    between atoms: C_2  and  O_3
REMARK    3  A    between atoms: O_3  and  C_4
REMARK    4  A    between atoms: C_4  and  C_6
REMARK    5  A    between atoms: C_7  and  C_15
REMARK    6  A    between atoms: C_12  and  C_14
REMARK    7  A    between atoms: C_15  and  S_16
REMARK    8  A    between atoms: S_16  and  C_17
REMARK    9  A    between atoms: C_21  and  C_23
REMARK                            x       y       z     vdW  Elec       q    Type
REMARK                         _______ _______ _______ _____ _____    ______ ____
ROOT
ATOM      1  S   UNL     1      -0.251  -5.562  -2.152  0.00  0.00    -0.090 S 
ENDROOT
BRANCH   1   2
ATOM      2  C   UNL     1      -0.697  -6.627  -0.752  0.00  0.00    +0.339 C 
ATOM      3  N   UNL     1      -1.029  -5.812   0.428  0.00  0.00    -0.219 N 
ATOM      4  N   UNL     1      -0.095  -6.174   1.410  0.00  0.00    -0.145 NA
ATOM      5  C   UNL     1       0.718  -7.083   0.942  0.00  0.00    +0.238 C 
ATOM      6  O   UNL     1       0.430  -7.414  -0.343  0.00  0.00    -0.443 OA
ATOM      7  H   UNL     1      -1.744  -5.161   0.510  0.00  0.00    +0.173 HD
BRANCH   5   8
ATOM      8  C   UNL     1       1.766  -7.652   1.681  0.00  0.00    +0.043 C 
ATOM      9  C   UNL     1       2.117  -7.370   3.002  0.00  0.00    +0.008 A 
ATOM     10  C   UNL     1       1.580  -6.487   3.963  0.00  0.00    +0.010 A 
ATOM     11  C   UNL     1       2.138  -6.419   5.199  0.00  0.00    +0.001 A 
ATOM     12  C   UNL     1       3.237  -7.204   5.551  0.00  0.00    +0.002 A 
ATOM     13  C   UNL     1       3.804  -8.073   4.677  0.00  0.00    +0.026 A 
ATOM     14  C   UNL     1       3.276  -8.200   3.366  0.00  0.00    +0.043 A 
ATOM     15  N   UNL     1       3.639  -8.958   2.350  0.00  0.00    -0.380 N 
ATOM     16  C   UNL     1       2.747  -8.705   1.214  0.00  0.00    +0.154 C 
ATOM     17  H   UNL     1       4.377  -9.587   2.354  0.00  0.00    +0.160 HD
ENDBRANCH   5   8
ENDBRANCH   1   2
BRANCH   1  18
ATOM     18  C   UNL     1       1.153  -4.593  -1.536  0.00  0.00    +0.125 C 
BRANCH  18  20
ATOM     19  C   UNL     1       1.331  -2.340  -2.530  0.00  0.00    +0.074 C 
ATOM     20  C   UNL     1       1.628  -3.654  -2.615  0.00  0.00    +0.034 C 
ATOM     21  N   UNL     1       2.351  -4.147  -3.663  0.00  0.00    -0.272 N 
ATOM     22  C   UNL     1       2.815  -3.390  -4.666  0.00  0.00    +0.304 C 
ATOM     23  O   UNL     1       3.451  -3.920  -5.556  0.00  0.00    -0.253 OA
ATOM     24  N   UNL     1       2.599  -2.061  -4.720  0.00  0.00    -0.292 N 
ATOM     25  C   UNL     1       1.823  -1.432  -3.639  0.00  0.00    +0.110 C 
ATOM     26  C   UNL     1       0.605  -0.747  -4.263  0.00  0.00    +0.033 C 
ATOM     27  H   UNL     1       2.541  -5.098  -3.682  0.00  0.00    +0.156 HD
ATOM     28  H   UNL     1       2.945  -1.532  -5.456  0.00  0.00    +0.151 HD
BRANCH  19  29
ATOM     29  C   UNL     1       0.581  -1.828  -1.445  0.00  0.00    +0.338 C 
ATOM     30  O   UNL     1       1.144  -1.252  -0.533  0.00  0.00    -0.245 OA
BRANCH  29  31
ATOM     31  O   UNL     1      -0.760  -1.979  -1.421  0.00  0.00    -0.462 OA
BRANCH  31  33
ATOM     32  C   UNL     1      -2.953  -1.704  -0.444  0.00  0.00    +0.048 C 
ATOM     33  C   UNL     1      -1.454  -1.438  -0.295  0.00  0.00    +0.229 C 
ENDBRANCH  31  33
ENDBRANCH  29  31
ENDBRANCH  19  29
ENDBRANCH  18  20
ENDBRANCH   1  18
TORSDOF 7
