REMARK  Name = ZINC62604269
REMARK  9 active torsions:
REMARK  status: ('A' for Active; 'I' for Inactive)
REMARK    1  A    between atoms: C_1  and  C_2
REMARK    2  A    between atoms: C_2  and  C_3
REMARK    3  A    between atoms: C_2  and  N_4
REMARK    4  A    between atoms: N_4  and  C_5
REMARK    5  A    between atoms: C_5  and  C_7
REMARK    6  A    between atoms: C_5  and  C_17
REMARK    7  A    between atoms: C_7  and  C_8
REMARK    8  A    between atoms: C_8  and  S_9
REMARK    9  A    between atoms: S_9  and  C_10
REMARK                            x       y       z     vdW  Elec       q    Type
REMARK                         _______ _______ _______ _____ _____    ______ ____
ROOT
ATOM      1  C   UNL     1      -1.370  -1.981  -0.060  0.00  0.00    +0.017 C 
ENDROOT
BRANCH   1   2
ATOM      2  C   UNL     1      -0.920  -2.457   1.297  0.00  0.00    +0.197 C 
ATOM      3  O   UNL     1      -0.560  -1.655   2.133  0.00  0.00    -0.278 OA
ATOM      4  N   UNL     1      -0.917  -3.774   1.582  0.00  0.00    -0.331 N 
ATOM      5  H   UNL     1      -1.205  -4.416   0.914  0.00  0.00    +0.145 HD
ATOM      6  H   UNL     1      -0.628  -4.081   2.456  0.00  0.00    +0.145 HD
ENDBRANCH   1   2
BRANCH   1   7
ATOM      7  N   UNL     1      -0.709  -0.707  -0.376  0.00  0.00    +0.388 N 
ATOM      8  H   UNL     1      -0.885  -0.044   0.364  0.00  0.00    -0.084 HD
ATOM      9  H   UNL     1      -1.073  -0.346  -1.245  0.00  0.00    -0.084 HD
BRANCH   7  11
ATOM     10  C   UNL     1       1.015  -1.809  -1.722  0.00  0.00    -0.014 C 
ATOM     11  C   UNL     1       0.738  -0.925  -0.504  0.00  0.00    -0.077 C 
ATOM     12  C   UNL     1       1.442   0.422  -0.681  0.00  0.00    -0.014 C 
ENDBRANCH   7  11
ENDBRANCH   1   7
BRANCH   1  13
ATOM     13  C   UNL     1      -2.887  -1.781  -0.053  0.00  0.00    +0.004 C 
BRANCH  13  14
ATOM     14  C   UNL     1      -3.360  -1.418  -1.462  0.00  0.00    +0.073 C 
BRANCH  14  15
ATOM     15  S   UNL     1      -5.158  -1.181  -1.454  0.00  0.00    -0.125 S 
BRANCH  15  16
ATOM     16  C   UNL     1      -5.542  -0.774  -3.125  0.00  0.00    +0.009 A 
ATOM     17  C   UNL     1      -4.530  -0.712  -4.077  0.00  0.00    +0.015 A 
ATOM     18  C   UNL     1      -4.834  -0.394  -5.386  0.00  0.00    +0.002 A 
ATOM     19  C   UNL     1      -6.143  -0.137  -5.751  0.00  0.00    +0.015 A 
ATOM     20  C   UNL     1      -7.153  -0.197  -4.806  0.00  0.00    +0.019 A 
ATOM     21  C   UNL     1      -6.856  -0.520  -3.496  0.00  0.00    +0.030 A 
ATOM     22 BR   UNL     1      -8.941   0.156  -5.311  0.00  0.00    -0.050 Br
ENDBRANCH  15  16
ENDBRANCH  14  15
ENDBRANCH  13  14
ENDBRANCH   1  13
TORSDOF 7
