REMARK  Name = ZINC34786489
REMARK  11 active torsions:
REMARK  status: ('A' for Active; 'I' for Inactive)
REMARK    1  A    between atoms: C_1  and  C_2
REMARK    2  A    between atoms: C_2  and  N_3
REMARK    3  A    between atoms: N_3  and  C_4
REMARK    4  A    between atoms: N_3  and  N_6
REMARK    5  A    between atoms: C_4  and  C_5
REMARK    6  A    between atoms: N_6  and  N_27
REMARK    7  A    between atoms: C_17  and  C_22
REMARK    8  A    between atoms: C_19  and  C_21
REMARK    9  A    between atoms: N_27  and  C_28
REMARK   10  A    between atoms: C_33  and  O_34
REMARK   11  A    between atoms: O_34  and  C_35
REMARK                            x       y       z     vdW  Elec       q    Type
REMARK                         _______ _______ _______ _____ _____    ______ ____
ROOT
ATOM      1  N   UNL     1      -0.027  -0.307  -2.137  0.00  0.00    -0.164 N 
ATOM      2  C   UNL     1       0.570   0.515  -3.075  0.00  0.00    +0.167 A 
ATOM      3  C   UNL     1      -0.134   0.894  -4.253  0.00  0.00    +0.054 A 
ATOM      4  C   UNL     1      -1.490   0.526  -4.667  0.00  0.00    -0.025 A 
ATOM      5  C   UNL     1      -1.927   1.023  -5.841  0.00  0.00    -0.004 A 
ATOM      6  S   UNL     1      -0.582   1.998  -6.460  0.00  0.00    -0.073 S 
ATOM      7  C   UNL     1       0.570   1.734  -5.137  0.00  0.00    +0.116 A 
ATOM      8  N   UNL     1       1.800   2.134  -4.878  0.00  0.00    -0.203 NA
ATOM      9  C   UNL     1       2.406   1.750  -3.766  0.00  0.00    +0.254 A 
ATOM     10  N   UNL     1       1.800   0.964  -2.887  0.00  0.00    -0.192 NA
ATOM     11  N   UNL     1       3.708   2.184  -3.511  0.00  0.00    -0.202 N 
ATOM     12  C   UNL     1       4.452   2.995  -4.308  0.00  0.00    +0.045 A 
ATOM     13  C   UNL     1       5.649   3.175  -3.705  0.00  0.00    +0.048 A 
ATOM     14  C   UNL     1       5.641   2.454  -2.505  0.00  0.00    +0.061 A 
ATOM     15  N   UNL     1       4.479   1.865  -2.386  0.00  0.00    -0.169 NA
ATOM     16  C   UNL     1       6.775   2.374  -1.516  0.00  0.00    +0.067 C 
ATOM     17  C   UNL     1       4.020   3.588  -5.625  0.00  0.00    +0.066 C 
ATOM     18  C   UNL     1      -3.262   0.797  -6.482  0.00  0.00    +0.043 C 
ATOM     19  C   UNL     1      -3.939  -0.392  -5.785  0.00  0.00    +0.005 C 
ATOM     20  C   UNL     1      -3.834  -0.197  -4.270  0.00  0.00    +0.005 C 
ATOM     21  C   UNL     1      -2.383  -0.379  -3.822  0.00  0.00    +0.037 C 
ENDROOT
BRANCH   1  22
ATOM     22  N   UNL     1      -0.625  -1.508  -2.537  0.00  0.00    -0.245 N 
ATOM     23  H   UNL     1      -1.584  -1.626  -2.449  0.00  0.00    +0.172 HD
BRANCH  22  24
ATOM     24  C   UNL     1       0.160  -2.539  -3.066  0.00  0.00    +0.087 A 
ATOM     25  C   UNL     1       1.510  -2.331  -3.307  0.00  0.00    +0.028 A 
ATOM     26  C   UNL     1       2.284  -3.351  -3.828  0.00  0.00    +0.002 A 
ATOM     27  C   UNL     1       1.715  -4.580  -4.110  0.00  0.00    +0.004 A 
ATOM     28  C   UNL     1       0.370  -4.794  -3.872  0.00  0.00    +0.047 A 
ATOM     29  C   UNL     1      -0.411  -3.779  -3.345  0.00  0.00    +0.142 A 
BRANCH  29  30
ATOM     30  O   UNL     1      -1.733  -3.991  -3.105  0.00  0.00    -0.493 OA
ATOM     31  C   UNL     1      -2.226  -5.315  -3.315  0.00  0.00    +0.277 C 
ENDBRANCH  29  30
ENDBRANCH  22  24
ENDBRANCH   1  22
BRANCH   1  32
ATOM     32  N   UNL     1      -0.033   0.053  -0.819  0.00  0.00    -0.209 NA
BRANCH  32  34
ATOM     33  C   UNL     1      -1.949   1.552  -1.092  0.00  0.00    +0.022 C 
ATOM     34  C   UNL     1      -1.398   0.330  -0.355  0.00  0.00    +0.104 C 
ENDBRANCH  32  34
BRANCH  32  35
ATOM     35  C   UNL     1       0.606  -0.977   0.011  0.00  0.00    +0.104 C 
ATOM     36  C   UNL     1       2.081  -1.104  -0.378  0.00  0.00    +0.022 C 
ENDBRANCH  32  35
ENDBRANCH   1  32
TORSDOF 6
