REMARK  Name = ZINC50574495
REMARK  8 active torsions:
REMARK  status: ('A' for Active; 'I' for Inactive)
REMARK    1  A    between atoms: C_1  and  N_2
REMARK    2  A    between atoms: N_2  and  C_3
REMARK    3  A    between atoms: N_2  and  C_4
REMARK    4  A    between atoms: C_4  and  C_5
REMARK    5  A    between atoms: C_9  and  N_11
REMARK    6  A    between atoms: C_12  and  C_14
REMARK    7  A    between atoms: N_16  and  N_17
REMARK    8  A    between atoms: N_17  and  C_18
REMARK                            x       y       z     vdW  Elec       q    Type
REMARK                         _______ _______ _______ _____ _____    ______ ____
ROOT
ATOM      1  N   UNL     1      -2.692  -1.480   4.596  0.00  0.00    -0.278 N 
ATOM      2  C   UNL     1      -3.703  -0.993   5.342  0.00  0.00    +0.305 C 
ATOM      3  O   UNL     1      -3.827   0.206   5.488  0.00  0.00    -0.265 OA
ATOM      4  H   UNL     1      -2.637  -2.432   4.416  0.00  0.00    +0.155 HD
ENDROOT
BRANCH   1   9
ATOM      5  C   UNL     1      -0.175  -0.024   2.349  0.00  0.00    -0.062 A 
ATOM      6  C   UNL     1       0.199   1.098   3.067  0.00  0.00    +0.002 A 
ATOM      7  C   UNL     1      -0.385   1.365   4.292  0.00  0.00    +0.002 A 
ATOM      8  C   UNL     1      -1.344   0.512   4.802  0.00  0.00    +0.023 A 
ATOM      9  C   UNL     1      -1.722  -0.615   4.083  0.00  0.00    +0.034 A 
ATOM     10  C   UNL     1      -1.137  -0.878   2.850  0.00  0.00    +0.025 A 
BRANCH   5  11
ATOM     11  C   UNL     1       0.464  -0.310   1.014  0.00  0.00    -0.044 C 
BRANCH  11  13
ATOM     12  C   UNL     1      -0.244   1.795   0.109  0.00  0.00    -0.096 C 
ATOM     13  N   UNL     1      -0.314   0.336  -0.050  0.00  0.00    +0.379 N 
ATOM     14  C   UNL     1       0.238  -0.041  -1.358  0.00  0.00    -0.096 C 
ATOM     15  H   UNL     1      -1.276   0.037   0.007  0.00  0.00    -0.082 HD
ENDBRANCH  11  13
ENDBRANCH   5  11
ENDBRANCH   1   9
BRANCH   2  16
ATOM     16  C   UNL     1      -4.673  -1.927   5.988  0.00  0.00    +0.315 C 
ATOM     17  O   UNL     1      -4.549  -3.126   5.842  0.00  0.00    -0.264 OA
ATOM     18  N   UNL     1      -5.684  -1.440   6.734  0.00  0.00    -0.229 N 
ATOM     19  H   UNL     1      -5.782  -0.482   6.851  0.00  0.00    +0.173 HD
BRANCH  18  20
ATOM     20  N   UNL     1      -6.593  -2.317   7.340  0.00  0.00    -0.263 N 
ATOM     21  H   UNL     1      -6.495  -3.275   7.223  0.00  0.00    +0.170 HD
BRANCH  20  22
ATOM     22  C   UNL     1      -7.642  -1.811   8.114  0.00  0.00    +0.063 A 
ATOM     23  C   UNL     1      -7.788  -0.440   8.277  0.00  0.00    +0.027 A 
ATOM     24  C   UNL     1      -8.826   0.057   9.041  0.00  0.00    +0.022 A 
ATOM     25  C   UNL     1      -9.720  -0.809   9.644  0.00  0.00    +0.042 A 
ATOM     26  C   UNL     1      -9.578  -2.176   9.484  0.00  0.00    +0.042 A 
ATOM     27  C   UNL     1      -8.545  -2.679   8.716  0.00  0.00    +0.065 A 
ATOM     28 CL   UNL     1      -8.371  -4.394   8.509  0.00  0.00    -0.082 Cl
ATOM     29 CL   UNL     1     -11.023  -0.180  10.604  0.00  0.00    -0.083 Cl
ENDBRANCH  20  22
ENDBRANCH  18  20
ENDBRANCH   2  16
TORSDOF 6
