REMARK  Name = ZINC65776030
REMARK  3 active torsions:
REMARK  status: ('A' for Active; 'I' for Inactive)
REMARK    1  A    between atoms: C_3  and  N_9
REMARK    2  A    between atoms: N_9  and  N_10
REMARK    3  A    between atoms: N_13  and  C_14
REMARK                            x       y       z     vdW  Elec       q    Type
REMARK                         _______ _______ _______ _____ _____    ______ ____
ROOT
ATOM      1  N   UNL     1       3.638   3.399  -0.593  0.00  0.00    -0.220 N 
ATOM      2  C   UNL     1       4.797   4.086  -0.606  0.00  0.00    +0.320 C 
ATOM      3  O   UNL     1       4.849   5.181  -1.131  0.00  0.00    -0.251 OA
ATOM      4  N   UNL     1       5.899   3.558  -0.036  0.00  0.00    -0.267 N 
ATOM      5  H   UNL     1       2.845   3.779  -1.002  0.00  0.00    +0.174 HD
ATOM      6  H   UNL     1       5.842   2.716   0.442  0.00  0.00    +0.156 HD
ENDROOT
BRANCH   4   7
ATOM      7  C   UNL     1       7.128   4.226  -0.136  0.00  0.00    +0.051 A 
ATOM      8  C   UNL     1       7.177   5.619  -0.118  0.00  0.00    +0.028 A 
ATOM      9  C   UNL     1       8.410   6.236  -0.218  0.00  0.00    +0.043 A 
ATOM     10  C   UNL     1       9.553   5.452  -0.333  0.00  0.00    +0.099 A 
ATOM     11  N   UNL     1       9.469   4.131  -0.346  0.00  0.00    -0.348 N 
ATOM     12  C   UNL     1       8.309   3.510  -0.246  0.00  0.00    +0.107 A 
ATOM     13  N   UNL     1      10.800   6.063  -0.435  0.00  0.00    -0.317 N 
ATOM     14  C   UNL     1      11.047   7.513  -0.428  0.00  0.00    +0.106 C 
ATOM     15  C   UNL     1      12.568   7.719  -0.590  0.00  0.00    +0.020 C 
ATOM     16  C   UNL     1      13.031   6.392  -1.246  0.00  0.00    +0.020 C 
ATOM     17  C   UNL     1      12.092   5.364  -0.561  0.00  0.00    +0.106 C 
ATOM     18  H   UNL     1      10.281   3.607  -0.427  0.00  0.00    +0.167 HD
ENDBRANCH   4   7
BRANCH   1  19
ATOM     19  N   UNL     1       3.577   2.137   0.013  0.00  0.00    -0.262 N 
ATOM     20  H   UNL     1       4.370   1.758   0.422  0.00  0.00    +0.170 HD
BRANCH  19  23
ATOM     21  C   UNL     1       0.050   1.262  -0.546  0.00  0.00    +0.040 A 
ATOM     22  C   UNL     1       1.238   1.967  -0.560  0.00  0.00    +0.028 A 
ATOM     23  C   UNL     1       2.374   1.425   0.026  0.00  0.00    +0.059 A 
ATOM     24  C   UNL     1       2.313   0.173   0.626  0.00  0.00    +0.043 A 
ATOM     25  C   UNL     1       1.123  -0.529   0.637  0.00  0.00    +0.055 A 
ATOM     26  C   UNL     1      -0.009   0.014   0.052  0.00  0.00    +0.125 A 
ATOM     27  F   UNL     1      -1.171  -0.673   0.064  0.00  0.00    -0.205 F 
ATOM     28 BR   UNL     1       3.857  -0.570   1.425  0.00  0.00    -0.048 Br
ENDBRANCH  19  23
ENDBRANCH   1  19
TORSDOF 3
