REMARK  Name = ZINC28959583
REMARK  4 active torsions:
REMARK  status: ('A' for Active; 'I' for Inactive)
REMARK    1  A    between atoms: N_4  and  C_8
REMARK    2  A    between atoms: C_17  and  C_19
REMARK    3  A    between atoms: C_21  and  C_34
REMARK    4  A    between atoms: N_23  and  C_24
REMARK                            x       y       z     vdW  Elec       q    Type
REMARK                         _______ _______ _______ _____ _____    ______ ____
ROOT
ATOM      1  C   UNL     1      -0.150   0.003  -0.075  0.00  0.00    +0.130 A 
ATOM      2  C   UNL     1       0.015   1.172   0.622  0.00  0.00    +0.067 A 
ATOM      3  C   UNL     1       1.327   1.598   0.335  0.00  0.00    +0.148 A 
ATOM      4  N   UNL     1       1.863   0.710  -0.482  0.00  0.00    -0.161 NA
ATOM      5  N   UNL     1       1.026  -0.230  -0.738  0.00  0.00    -0.227 N 
ENDROOT
BRANCH   5   6
ATOM      6  C   UNL     1       1.279  -1.331  -1.565  0.00  0.00    +0.067 A 
ATOM      7  C   UNL     1       0.909  -2.610  -1.153  0.00  0.00    +0.031 A 
ATOM      8  C   UNL     1       1.148  -3.700  -1.958  0.00  0.00    +0.052 A 
ATOM      9  C   UNL     1       1.773  -3.533  -3.189  0.00  0.00    +0.169 A 
ATOM     10  C   UNL     1       2.152  -2.248  -3.605  0.00  0.00    +0.065 A 
ATOM     11  C   UNL     1       1.902  -1.147  -2.786  0.00  0.00    +0.043 A 
ATOM     12  C   UNL     1       2.777  -2.407  -4.928  0.00  0.00    +0.167 A 
ATOM     13  N   UNL     1       2.745  -3.677  -5.220  0.00  0.00    -0.062 NA
ATOM     14  O   UNL     1       2.132  -4.392  -4.165  0.00  0.00    -0.353 OA
ATOM     15  N   UNL     1       3.301  -1.394  -5.718  0.00  0.00    -0.340 N 
ATOM     16  H   UNL     1       3.746  -1.632  -6.695  0.00  0.00    +0.144 HD
ATOM     17  H   UNL     1       3.272  -0.352  -5.366  0.00  0.00    +0.144 HD
ENDBRANCH   5   6
BRANCH   1  27
ATOM     18  C   UNL     1      -3.624   3.646  -1.245  0.00  0.00    +0.050 A 
ATOM     19  C   UNL     1      -2.269   3.373  -1.101  0.00  0.00    +0.028 A 
ATOM     20  C   UNL     1      -1.850   2.098  -0.791  0.00  0.00    +0.026 A 
ATOM     21  C   UNL     1      -2.781   1.072  -0.613  0.00  0.00    +0.040 A 
ATOM     22  C   UNL     1      -4.131   1.351  -0.763  0.00  0.00    -0.023 A 
ATOM     23  C   UNL     1      -4.553   2.628  -1.074  0.00  0.00    +0.031 A 
ATOM     24  C   UNL     1      -4.914   0.079  -0.527  0.00  0.00    +0.056 C 
ATOM     25  C   UNL     1      -3.845  -0.984  -0.224  0.00  0.00    +0.119 C 
ATOM     26  N   UNL     1      -2.565  -0.275  -0.305  0.00  0.00    -0.266 N 
ATOM     27  C   UNL     1      -1.357  -0.838  -0.106  0.00  0.00    +0.269 C 
ATOM     28  O   UNL     1      -1.264  -2.041   0.049  0.00  0.00    -0.268 OA
BRANCH  18  32
ATOM     29  C   UNL     1      -4.891   7.483  -2.180  0.00  0.00    +0.007 A 
ATOM     30  C   UNL     1      -5.798   6.415  -2.138  0.00  0.00    +0.018 A 
ATOM     31  C   UNL     1      -5.363   5.171  -1.831  0.00  0.00    +0.095 A 
ATOM     32  N   UNL     1      -4.051   4.942  -1.561  0.00  0.00    -0.284 N 
ATOM     33  C   UNL     1      -3.157   5.949  -1.589  0.00  0.00    +0.256 A 
ATOM     34  O   UNL     1      -1.982   5.729  -1.339  0.00  0.00    -0.267 OA
ATOM     35  C   UNL     1      -3.575   7.251  -1.909  0.00  0.00    +0.071 A 
ENDBRANCH  18  32
ENDBRANCH   1  27
BRANCH   3  36
ATOM     36  C   UNL     1       1.982   2.817   0.852  0.00  0.00    +0.262 C 
ATOM     37  O   UNL     1       1.379   3.560   1.601  0.00  0.00    -0.269 OA
ATOM     38  N   UNL     1       3.249   3.105   0.492  0.00  0.00    -0.324 N 
ATOM     39  H   UNL     1       3.737   4.013   0.877  0.00  0.00    +0.145 HD
ATOM     40  H   UNL     1       3.795   2.433  -0.186  0.00  0.00    +0.145 HD
ENDBRANCH   3  36
TORSDOF 4
