REMARK  Name = ZINC12661283
REMARK  6 active torsions:
REMARK  status: ('A' for Active; 'I' for Inactive)
REMARK    1  A    between atoms: C_1  and  C_2
REMARK    2  A    between atoms: C_15  and  O_33
REMARK    3  A    between atoms: C_18  and  C_31
REMARK    4  A    between atoms: C_23  and  C_25
REMARK    5  A    between atoms: C_25  and  C_30
REMARK    6  A    between atoms: C_31  and  O_32
REMARK                            x       y       z     vdW  Elec       q    Type
REMARK                         _______ _______ _______ _____ _____    ______ ____
ROOT
ATOM      1  C   UNL     1       1.280   6.063   1.471  0.00  0.00    +0.012 C 
ATOM      2  C   UNL     1       2.440   5.241   2.039  0.00  0.00    -0.023 C 
ATOM      3  C   UNL     1       2.542   5.479   3.540  0.00  0.00    +0.012 C 
ATOM      4  C   UNL     1       2.743   6.973   3.805  0.00  0.00    +0.065 C 
ATOM      5  C   UNL     1       3.949   7.538   3.063  0.00  0.00    +0.170 C 
ATOM      6  C   UNL     1       3.940   7.186   1.573  0.00  0.00    +0.069 C 
ATOM      7  C   UNL     1       3.758   5.686   1.402  0.00  0.00    +0.000 C 
ATOM      8  C   UNL     1       3.838   5.232  -0.046  0.00  0.00    +0.004 C 
ATOM      9  C   UNL     1       3.971   3.702  -0.076  0.00  0.00    +0.004 C 
ATOM     10  C   UNL     1       3.494   3.129   1.258  0.00  0.00    -0.001 C 
ATOM     11  C   UNL     1       2.179   3.778   1.674  0.00  0.00    +0.027 C 
ATOM     12  C   UNL     1       1.492   3.031   2.801  0.00  0.00    +0.119 C 
ATOM     13  C   UNL     1       1.252   1.545   2.498  0.00  0.00    +0.041 C 
ATOM     14  C   UNL     1       1.978   1.099   1.262  0.00  0.00    +0.007 C 
ATOM     15  C   UNL     1       3.425   1.631   1.259  0.00  0.00    +0.001 C 
ATOM     16  C   UNL     1       4.030   0.909   0.046  0.00  0.00    +0.005 C 
ATOM     17  C   UNL     1       3.388  -0.502   0.101  0.00  0.00    +0.010 C 
ATOM     18  C   UNL     1       2.214  -0.415   1.111  0.00  0.00    +0.057 C 
ATOM     19  O   UNL     1       5.156   7.037   3.661  0.00  0.00    -0.346 OA
ATOM     20  C   UNL     1       6.083   8.148   3.633  0.00  0.00    +0.191 C 
ATOM     21  C   UNL     1       5.142   9.353   3.880  0.00  0.00    +0.191 C 
ATOM     22  O   UNL     1       3.937   8.971   3.190  0.00  0.00    -0.346 OA
ENDROOT
BRANCH  18  23
ATOM     23  C   UNL     1       2.602  -1.081   2.433  0.00  0.00    +0.171 C 
ATOM     24  O   UNL     1       1.541  -0.910   3.388  0.00  0.00    -0.346 OA
ATOM     25  C   UNL     1       2.209  -0.740   4.659  0.00  0.00    +0.191 C 
ATOM     26  C   UNL     1       3.463   0.072   4.247  0.00  0.00    +0.191 C 
ATOM     27  O   UNL     1       3.789  -0.468   2.951  0.00  0.00    -0.346 OA
ATOM     28  C   UNL     1       2.852  -2.573   2.203  0.00  0.00    +0.074 C 
ENDBRANCH  18  23
BRANCH  12  29
ATOM     29  O   UNL     1       0.222   3.640   3.082  0.00  0.00    -0.391 OA
ATOM     30  H   UNL     1      -0.241   3.253   3.838  0.00  0.00    +0.210 HD
ENDBRANCH  12  29
BRANCH  14  31
ATOM     31  C   UNL     1       1.208   1.526   0.003  0.00  0.00    +0.163 C 
BRANCH  31  32
ATOM     32  O   UNL     1      -0.135   1.043   0.079  0.00  0.00    -0.394 OA
ATOM     33  H   UNL     1      -0.203   0.081   0.143  0.00  0.00    +0.209 HD
ENDBRANCH  31  32
ENDBRANCH  14  31
TORSDOF 4
