REMARK  Name = ZINC01735880
REMARK  12 active torsions:
REMARK  status: ('A' for Active; 'I' for Inactive)
REMARK    1  A    between atoms: C_1  and  C_2
REMARK    2  A    between atoms: C_5  and  N_8
REMARK    3  A    between atoms: N_8  and  C_9
REMARK    4  A    between atoms: C_9  and  N_11
REMARK    5  A    between atoms: N_11  and  C_12
REMARK    6  A    between atoms: C_15  and  C_18
REMARK    7  A    between atoms: C_18  and  C_19
REMARK    8  A    between atoms: C_22  and  N_25
REMARK    9  A    between atoms: N_25  and  C_26
REMARK   10  A    between atoms: C_26  and  N_28
REMARK   11  A    between atoms: N_28  and  C_29
REMARK   12  A    between atoms: C_32  and  C_35
REMARK                            x       y       z     vdW  Elec       q    Type
REMARK                         _______ _______ _______ _____ _____    ______ ____
ROOT
ATOM      1  C   UNL     1       6.986  -8.842  -0.279  0.00  0.00    +0.070 C 
ENDROOT
BRANCH   1   5
ATOM      2  C   UNL     1       4.400  -5.628   0.838  0.00  0.00    +0.033 A 
ATOM      3  C   UNL     1       5.761  -5.551   1.104  0.00  0.00    +0.023 A 
ATOM      4  C   UNL     1       6.593  -6.594   0.747  0.00  0.00    +0.006 A 
ATOM      5  C   UNL     1       6.074  -7.708   0.115  0.00  0.00    -0.043 A 
ATOM      6  C   UNL     1       4.720  -7.786  -0.157  0.00  0.00    +0.006 A 
ATOM      7  C   UNL     1       3.882  -6.749   0.203  0.00  0.00    +0.023 A 
BRANCH   2   8
ATOM      8  N   UNL     1       3.554  -4.575   1.204  0.00  0.00    -0.297 N 
ATOM      9  H   UNL     1       3.862  -3.658   1.133  0.00  0.00    +0.154 HD
BRANCH   8  10
ATOM     10  C   UNL     1       2.311  -4.836   1.654  0.00  0.00    +0.139 C 
ATOM     11  S   UNL     1       1.824  -6.453   1.936  0.00  0.00    -0.018 S 
BRANCH  10  12
ATOM     12  N   UNL     1       1.451  -3.824   1.883  0.00  0.00    -0.297 N 
ATOM     13  H   UNL     1       1.692  -2.917   1.636  0.00  0.00    +0.154 HD
BRANCH  12  18
ATOM     14  C   UNL     1      -3.580  -4.865   4.289  0.00  0.00    +0.044 C 
ATOM     15  C   UNL     1      -2.243  -4.589   3.650  0.00  0.00    -0.050 A 
ATOM     16  C   UNL     1      -1.125  -5.292   4.057  0.00  0.00    +0.005 A 
ATOM     17  C   UNL     1       0.101  -5.041   3.474  0.00  0.00    +0.023 A 
ATOM     18  C   UNL     1       0.210  -4.080   2.476  0.00  0.00    +0.033 A 
ATOM     19  C   UNL     1      -0.915  -3.376   2.069  0.00  0.00    +0.023 A 
ATOM     20  C   UNL     1      -2.138  -3.632   2.657  0.00  0.00    +0.005 A 
ENDBRANCH  12  18
ENDBRANCH  10  12
ENDBRANCH   8  10
ENDBRANCH   2   8
ENDBRANCH   1   5
BRANCH   1  21
ATOM     21  C   UNL     1       7.508  -8.605  -1.673  0.00  0.00    -0.043 A 
ATOM     22  C   UNL     1       6.813  -9.098  -2.763  0.00  0.00    +0.006 A 
ATOM     23  C   UNL     1       7.286  -8.878  -4.042  0.00  0.00    +0.023 A 
ATOM     24  C   UNL     1       8.466  -8.171  -4.232  0.00  0.00    +0.033 A 
ATOM     25  C   UNL     1       9.164  -7.682  -3.136  0.00  0.00    +0.023 A 
ATOM     26  C   UNL     1       8.683  -7.901  -1.859  0.00  0.00    +0.006 A 
BRANCH  24  27
ATOM     27  N   UNL     1       8.950  -7.951  -5.526  0.00  0.00    -0.297 N 
ATOM     28  H   UNL     1       8.341  -7.687  -6.234  0.00  0.00    +0.154 HD
BRANCH  27  29
ATOM     29  C   UNL     1      10.263  -8.107  -5.790  0.00  0.00    +0.139 C 
ATOM     30  S   UNL     1      11.314  -8.706  -4.578  0.00  0.00    -0.018 S 
BRANCH  29  31
ATOM     31  N   UNL     1      10.748  -7.792  -7.007  0.00  0.00    -0.297 N 
ATOM     32  H   UNL     1      10.169  -7.380  -7.668  0.00  0.00    +0.154 HD
BRANCH  31  33
ATOM     33  C   UNL     1      12.085  -8.058  -7.317  0.00  0.00    +0.033 A 
ATOM     34  C   UNL     1      12.843  -7.114  -7.998  0.00  0.00    +0.023 A 
ATOM     35  C   UNL     1      14.165  -7.378  -8.299  0.00  0.00    +0.005 A 
ATOM     36  C   UNL     1      14.731  -8.585  -7.932  0.00  0.00    -0.050 A 
ATOM     37  C   UNL     1      13.978  -9.530  -7.259  0.00  0.00    +0.005 A 
ATOM     38  C   UNL     1      12.657  -9.270  -6.951  0.00  0.00    +0.023 A 
ATOM     39  C   UNL     1      16.172  -8.872  -8.267  0.00  0.00    +0.044 C 
ENDBRANCH  31  33
ENDBRANCH  29  31
ENDBRANCH  27  29
ENDBRANCH  24  27
ENDBRANCH   1  21
TORSDOF 10
