REMARK  Name = ZINC37334663
REMARK  4 active torsions:
REMARK  status: ('A' for Active; 'I' for Inactive)
REMARK    1  A    between atoms: C_6  and  O_7
REMARK    2  A    between atoms: O_7  and  C_8
REMARK    3  A    between atoms: C_11  and  C_17
REMARK    4  A    between atoms: C_13  and  C_14
REMARK                            x       y       z     vdW  Elec       q    Type
REMARK                         _______ _______ _______ _____ _____    ______ ____
ROOT
ATOM      1  C   UNL     1      -1.099  -2.052  -0.225  0.00  0.00    +0.139 A 
ATOM      2  C   UNL     1       0.130  -2.695  -0.230  0.00  0.00    +0.047 A 
ATOM      3  C   UNL     1       0.189  -4.074  -0.218  0.00  0.00    +0.016 A 
ATOM      4  C   UNL     1      -0.975  -4.825  -0.202  0.00  0.00    +0.056 A 
ATOM      5  C   UNL     1      -2.204  -4.202  -0.196  0.00  0.00    +0.027 A 
ATOM      6  C   UNL     1      -2.279  -2.808  -0.203  0.00  0.00    +0.055 A 
ENDROOT
BRANCH   6   7
ATOM      7  C   UNL     1      -3.593  -2.134  -0.191  0.00  0.00    +0.098 C 
ATOM      8  N   UNL     1      -4.492  -2.411  -1.135  0.00  0.00    -0.387 N 
ATOM      9  N   UNL     1      -3.880  -1.249   0.763  0.00  0.00    -0.344 N 
ATOM     10  H   UNL     1      -4.257  -2.997  -1.871  0.00  0.00    +0.157 HD
ATOM     11  H   UNL     1      -3.225  -1.048   1.450  0.00  0.00    +0.144 HD
ATOM     12  H   UNL     1      -4.743  -0.807   0.771  0.00  0.00    +0.144 HD
ATOM     13  H   UNL     1      -5.381  -2.026  -1.086  0.00  0.00    +0.157 HD
ENDBRANCH   6   7
BRANCH   4  14
ATOM     14  C   UNL     1      -0.897  -6.330  -0.190  0.00  0.00    +0.417 C 
ATOM     15  F   UNL     1       0.445  -6.727  -0.199  0.00  0.00    -0.166 F 
ATOM     16  F   UNL     1      -1.521  -6.821   0.962  0.00  0.00    -0.166 F 
ATOM     17  F   UNL     1      -1.541  -6.839  -1.322  0.00  0.00    -0.166 F 
ENDBRANCH   4  14
BRANCH   1  18
ATOM     18  O   UNL     1      -1.159  -0.697  -0.237  0.00  0.00    -0.455 OA
BRANCH  18  24
ATOM     19  C   UNL     1       0.597   0.117  -1.620  0.00  0.00    +0.047 A 
ATOM     20  C   UNL     1       1.779   0.819  -1.755  0.00  0.00    +0.019 A 
ATOM     21  C   UNL     1       2.373   1.396  -0.647  0.00  0.00    +0.018 A 
ATOM     22  C   UNL     1       1.784   1.272   0.599  0.00  0.00    +0.019 A 
ATOM     23  C   UNL     1       0.602   0.572   0.739  0.00  0.00    +0.047 A 
ATOM     24  C   UNL     1       0.004  -0.008  -0.372  0.00  0.00    +0.129 A 
ATOM     25 BR   UNL     1       3.992   2.355  -0.835  0.00  0.00    -0.050 Br
ENDBRANCH  18  24
ENDBRANCH   1  18
TORSDOF 4
