REMARK  Name = ZINC41004909
REMARK  13 active torsions:
REMARK  status: ('A' for Active; 'I' for Inactive)
REMARK    1  A    between atoms: C_1  and  C_2
REMARK    2  A    between atoms: C_2  and  S_3
REMARK    3  A    between atoms: S_3  and  C_4
REMARK    4  A    between atoms: C_9  and  C_18
REMARK    5  A    between atoms: C_11  and  C_15
REMARK    6  A    between atoms: C_12  and  C_14
REMARK    7  A    between atoms: C_21  and  O_24
REMARK    8  A    between atoms: O_24  and  C_25
REMARK    9  A    between atoms: C_25  and  C_26
REMARK   10  A    between atoms: C_29  and  C_32
REMARK   11  A    between atoms: C_32  and  C_33
REMARK   12  A    between atoms: C_32  and  C_34
REMARK   13  A    between atoms: C_32  and  C_35
REMARK                            x       y       z     vdW  Elec       q    Type
REMARK                         _______ _______ _______ _____ _____    ______ ____
ROOT
ATOM      1  C   UNL     1      -1.308  -2.393   0.431  0.00  0.00    +0.210 A 
ATOM      2  N   UNL     1      -0.181  -3.115   0.351  0.00  0.00    -0.187 NA
ATOM      3  C   UNL     1      -0.481  -4.372   0.166  0.00  0.00    +0.219 A 
ATOM      4  N   UNL     1      -1.832  -4.481   0.129  0.00  0.00    -0.220 N 
ATOM      5  N   UNL     1      -2.342  -3.196   0.304  0.00  0.00    -0.141 NA
ATOM      6  C   UNL     1      -2.536  -5.748  -0.054  0.00  0.00    +0.177 C 
ATOM      7  C   UNL     1      -1.557  -6.808  -0.482  0.00  0.00    +0.060 C 
ATOM      8  C   UNL     1      -0.228  -6.642  -0.427  0.00  0.00    +0.018 C 
ATOM      9  N   UNL     1       0.346  -5.477   0.018  0.00  0.00    -0.287 N 
ATOM     10  C   UNL     1       0.666  -7.772  -0.869  0.00  0.00    +0.061 C 
ATOM     11  H   UNL     1       1.293  -5.428   0.222  0.00  0.00    +0.155 HD
ENDROOT
BRANCH   6  12
ATOM     12  C   UNL     1      -3.182  -6.156   1.245  0.00  0.00    -0.018 A 
ATOM     13  C   UNL     1      -2.403  -6.360   2.369  0.00  0.00    +0.009 A 
ATOM     14  C   UNL     1      -2.992  -6.734   3.561  0.00  0.00    +0.046 A 
ATOM     15  C   UNL     1      -4.367  -6.905   3.630  0.00  0.00    +0.121 A 
ATOM     16  C   UNL     1      -5.147  -6.700   2.501  0.00  0.00    +0.046 A 
ATOM     17  C   UNL     1      -4.553  -6.320   1.312  0.00  0.00    +0.009 A 
BRANCH  15  18
ATOM     18  O   UNL     1      -4.950  -7.274   4.801  0.00  0.00    -0.487 OA
BRANCH  18  19
ATOM     19  C   UNL     1      -6.370  -7.431   4.798  0.00  0.00    +0.264 C 
BRANCH  19  20
ATOM     20  C   UNL     1      -6.833  -7.840   6.173  0.00  0.00    -0.010 A 
ATOM     21  C   UNL     1      -6.911  -9.179   6.506  0.00  0.00    +0.007 A 
ATOM     22  C   UNL     1      -7.336  -9.553   7.768  0.00  0.00    +0.004 A 
ATOM     23  C   UNL     1      -7.682  -8.588   8.695  0.00  0.00    -0.042 A 
ATOM     24  C   UNL     1      -7.602  -7.249   8.362  0.00  0.00    +0.004 A 
ATOM     25  C   UNL     1      -7.174  -6.875   7.102  0.00  0.00    +0.007 A 
BRANCH  23  26
ATOM     26  C   UNL     1      -8.146  -8.997  10.070  0.00  0.00    -0.013 C 
ATOM     27  C   UNL     1      -7.042  -9.798  10.763  0.00  0.00    +0.015 C 
ATOM     28  C   UNL     1      -8.463  -7.747  10.893  0.00  0.00    +0.015 C 
ATOM     29  C   UNL     1      -9.403  -9.860   9.948  0.00  0.00    +0.015 C 
ENDBRANCH  23  26
ENDBRANCH  19  20
ENDBRANCH  18  19
ENDBRANCH  15  18
ENDBRANCH   6  12
BRANCH   7  30
ATOM     30  C   UNL     1      -2.063  -8.038  -0.966  0.00  0.00    +0.241 C 
ATOM     31  O   UNL     1      -2.443  -8.129  -2.119  0.00  0.00    -0.271 OA
ATOM     32  N   UNL     1      -2.125  -9.109  -0.150  0.00  0.00    -0.325 N 
ATOM     33  H   UNL     1      -1.822  -9.036   0.769  0.00  0.00    +0.145 HD
ATOM     34  H   UNL     1      -2.472  -9.952  -0.481  0.00  0.00    +0.145 HD
ENDBRANCH   7  30
BRANCH   1  35
ATOM     35  S   UNL     1      -1.389  -0.650   0.677  0.00  0.00    -0.085 S 
BRANCH  35  37
ATOM     36  C   UNL     1       0.423   1.375   0.988  0.00  0.00    +0.016 C 
ATOM     37  C   UNL     1       0.348  -0.138   0.773  0.00  0.00    +0.074 C 
ENDBRANCH  35  37
ENDBRANCH   1  35
TORSDOF 8
