REMARK  Name = ZINC27593483
REMARK  11 active torsions:
REMARK  status: ('A' for Active; 'I' for Inactive)
REMARK    1  A    between atoms: C_1  and  C_2
REMARK    2  A    between atoms: C_5  and  C_8
REMARK    3  A    between atoms: C_8  and  N_9
REMARK    4  A    between atoms: N_9  and  C_10
REMARK    5  A    between atoms: N_9  and  C_26
REMARK    6  A    between atoms: C_10  and  C_11
REMARK    7  A    between atoms: N_13  and  C_14
REMARK    8  A    between atoms: C_14  and  C_15
REMARK    9  A    between atoms: C_15  and  C_16
REMARK   10  A    between atoms: C_19  and  S_22
REMARK   11  A    between atoms: S_22  and  N_25
REMARK                            x       y       z     vdW  Elec       q    Type
REMARK                         _______ _______ _______ _____ _____    ______ ____
ROOT
ATOM      1  C   UNL     1      -1.214   1.616  -3.499  0.00  0.00    +0.196 C 
ATOM      2  O   UNL     1      -2.000   2.493  -3.206  0.00  0.00    -0.278 OA
ATOM      3  N   UNL     1      -1.133   1.182  -4.772  0.00  0.00    -0.317 N 
ATOM      4  H   UNL     1      -0.420   0.387  -5.037  0.00  0.00    +0.149 HD
ENDROOT
BRANCH   1   5
ATOM      5  C   UNL     1      -0.330   1.011  -2.438  0.00  0.00    +0.019 C 
BRANCH   5   6
ATOM      6  N   UNL     1      -0.635   1.625  -1.139  0.00  0.00    +0.390 N 
ATOM      7  H   UNL     1      -1.729   1.680  -1.040  0.00  0.00    -0.080 HD
BRANCH   6   8
ATOM      8  C   UNL     1      -0.105   2.993  -1.065  0.00  0.00    -0.068 C 
ATOM      9  C   UNL     1       0.560   3.561  -2.320  0.00  0.00    -0.017 C 
ATOM     10  C   UNL     1       1.414   3.165  -1.114  0.00  0.00    -0.017 C 
ENDBRANCH   6   8
BRANCH   6  11
ATOM     11  C   UNL     1      -0.123   0.801  -0.035  0.00  0.00    -0.042 C 
BRANCH  11  16
ATOM     12  C   UNL     1      -2.180   2.804   4.979  0.00  0.00    +0.044 C 
ATOM     13  C   UNL     1      -1.644   2.282   3.672  0.00  0.00    -0.050 A 
ATOM     14  C   UNL     1      -2.346   1.319   2.972  0.00  0.00    +0.003 A 
ATOM     15  C   UNL     1      -1.854   0.840   1.772  0.00  0.00    +0.002 A 
ATOM     16  C   UNL     1      -0.659   1.324   1.272  0.00  0.00    -0.064 A 
ATOM     17  C   UNL     1       0.045   2.284   1.975  0.00  0.00    +0.002 A 
ATOM     18  C   UNL     1      -0.449   2.766   3.172  0.00  0.00    +0.003 A 
ENDBRANCH  11  16
ENDBRANCH   6  11
ENDBRANCH   5   6
ENDBRANCH   1   5
BRANCH   3  19
ATOM     19  C   UNL     1      -1.992   1.770  -5.803  0.00  0.00    +0.109 C 
BRANCH  19  20
ATOM     20  C   UNL     1      -1.701   1.104  -7.149  0.00  0.00    +0.054 C 
BRANCH  20  21
ATOM     21  C   UNL     1      -2.585   1.709  -8.210  0.00  0.00    -0.046 A 
ATOM     22  C   UNL     1      -3.825   1.158  -8.473  0.00  0.00    +0.005 A 
ATOM     23  C   UNL     1      -4.638   1.715  -9.442  0.00  0.00    +0.029 A 
ATOM     24  C   UNL     1      -4.207   2.818 -10.155  0.00  0.00    +0.105 A 
ATOM     25  C   UNL     1      -2.965   3.366  -9.896  0.00  0.00    +0.029 A 
ATOM     26  C   UNL     1      -2.154   2.812  -8.923  0.00  0.00    +0.005 A 
BRANCH  24  27
ATOM     27  S   UNL     1      -5.241   3.526 -11.394  0.00  0.00    +0.056 S 
ATOM     28  O   UNL     1      -6.575   3.162 -11.066  0.00  0.00    -0.153 OA
ATOM     29  O   UNL     1      -4.834   4.880 -11.538  0.00  0.00    -0.153 OA
BRANCH  27  30
ATOM     30  N   UNL     1      -4.881   2.769 -12.822  0.00  0.00    -0.204 NA
ATOM     31  H   UNL     1      -5.508   3.184 -13.625  0.00  0.00    +0.144 HD
ATOM     32  H   UNL     1      -5.076   1.691 -12.726  0.00  0.00    +0.144 HD
ENDBRANCH  27  30
ENDBRANCH  24  27
ENDBRANCH  20  21
ENDBRANCH  19  20
ENDBRANCH   3  19
TORSDOF 10
