REMARK  Name = ZINC02372548
REMARK  12 active torsions:
REMARK  status: ('A' for Active; 'I' for Inactive)
REMARK    1  A    between atoms: C_1  and  C_2
REMARK    2  A    between atoms: C_2  and  C_3
REMARK    3  A    between atoms: C_3  and  C_4
REMARK    4  A    between atoms: C_4  and  O_5
REMARK    5  A    between atoms: O_5  and  C_6
REMARK    6  A    between atoms: C_6  and  C_8
REMARK    7  A    between atoms: C_12  and  N_13
REMARK    8  A    between atoms: C_14  and  C_16
REMARK    9  A    between atoms: C_16  and  C_32
REMARK   10  A    between atoms: C_17  and  C_18
REMARK   11  A    between atoms: C_21  and  C_23
REMARK   12  A    between atoms: C_27  and  N_29
REMARK                            x       y       z     vdW  Elec       q    Type
REMARK                         _______ _______ _______ _____ _____    ______ ____
ROOT
ATOM      1  N   UNL     1       5.058   9.370   0.011  0.00  0.00    -0.275 N 
ATOM      2  C   UNL     1       3.720   9.534   0.024  0.00  0.00    +0.259 C 
ATOM      3  O   UNL     1       3.245  10.655   0.036  0.00  0.00    -0.269 OA
ATOM      4  H   UNL     1       5.437   8.477   0.002  0.00  0.00    +0.156 HD
ENDROOT
BRANCH   1   9
ATOM      5  C   UNL     1       7.280  10.510   0.003  0.00  0.00    +0.091 A 
ATOM      6  C   UNL     1       7.919  11.816  -0.000  0.00  0.00    -0.021 A 
ATOM      7  C   UNL     1       7.074  12.869   0.015  0.00  0.00    -0.004 A 
ATOM      8  S   UNL     1       5.455  12.152   0.025  0.00  0.00    -0.077 S 
ATOM      9  C   UNL     1       5.891  10.476   0.010  0.00  0.00    +0.087 A 
ATOM     10  C   UNL     1       7.441  14.321   0.022  0.00  0.00    +0.043 C 
ATOM     11  C   UNL     1       8.928  14.442   0.387  0.00  0.00    +0.005 C 
ATOM     12  C   UNL     1       9.727  13.452  -0.464  0.00  0.00    +0.005 C 
ATOM     13  C   UNL     1       9.428  12.020  -0.014  0.00  0.00    +0.037 C 
BRANCH   5  14
ATOM     14  C   UNL     1       8.070   9.278  -0.005  0.00  0.00    +0.342 C 
ATOM     15  O   UNL     1       8.394   8.769  -1.061  0.00  0.00    -0.245 OA
BRANCH  14  16
ATOM     16  O   UNL     1       8.440   8.706   1.160  0.00  0.00    -0.461 OA
BRANCH  16  17
ATOM     17  C   UNL     1       9.222   7.486   1.076  0.00  0.00    +0.232 C 
BRANCH  17  18
ATOM     18  C   UNL     1       9.545   6.989   2.487  0.00  0.00    +0.041 C 
BRANCH  18  20
ATOM     19  C   UNL     1      10.692   5.206   3.809  0.00  0.00    +0.004 C 
ATOM     20  C   UNL     1      10.369   5.703   2.398  0.00  0.00    -0.000 C 
ENDBRANCH  18  20
ENDBRANCH  17  18
ENDBRANCH  16  17
ENDBRANCH  14  16
ENDBRANCH   5  14
ENDBRANCH   1   9
BRANCH   2  21
ATOM     21  C   UNL     1       2.837   8.363   0.025  0.00  0.00    +0.117 C 
ATOM     22  C   UNL     1       1.459   8.532   0.038  0.00  0.00    +0.070 C 
BRANCH  22  23
ATOM     23  C   UNL     1       0.614   7.410   0.039  0.00  0.00    +0.130 A 
ATOM     24  C   UNL     1      -0.773   7.436   0.052  0.00  0.00    +0.050 A 
ATOM     25  C   UNL     1      -1.201   6.110   0.048  0.00  0.00    +0.050 A 
ATOM     26  C   UNL     1      -0.070   5.321   0.033  0.00  0.00    +0.136 A 
ATOM     27  O   UNL     1       1.011   6.120   0.034  0.00  0.00    -0.455 OA
BRANCH  26  28
ATOM     28  C   UNL     1      -0.050   3.845   0.024  0.00  0.00    +0.019 A 
ATOM     29  C   UNL     1      -1.249   3.127   0.031  0.00  0.00    +0.012 A 
ATOM     30  C   UNL     1      -1.222   1.748   0.017  0.00  0.00    +0.003 A 
ATOM     31  C   UNL     1      -0.013   1.076   0.008  0.00  0.00    +0.033 A 
ATOM     32  C   UNL     1       1.178   1.781   0.000  0.00  0.00    +0.127 A 
ATOM     33  C   UNL     1       1.167   3.160   0.008  0.00  0.00    +0.044 A 
BRANCH  32  34
ATOM     34  N   UNL     1       2.467   1.053  -0.016  0.00  0.00    +0.056 N 
ATOM     35  O   UNL     1       2.478  -0.165  -0.022  0.00  0.00    -0.126 OA
ATOM     36  O   UNL     1       3.516   1.671  -0.022  0.00  0.00    -0.126 OA
ENDBRANCH  32  34
ENDBRANCH  26  28
ENDBRANCH  22  23
BRANCH  21  37
ATOM     37  C   UNL     1       3.397   7.044   0.011  0.00  0.00    +0.104 C 
ATOM     38  N   UNL     1       3.840   5.999   0.000  0.00  0.00    -0.191 NA
ENDBRANCH  21  37
ENDBRANCH   2  21
TORSDOF 11
