REMARK  Name = ZINC36342472
REMARK  12 active torsions:
REMARK  status: ('A' for Active; 'I' for Inactive)
REMARK    1  A    between atoms: C_1  and  O_2
REMARK    2  A    between atoms: O_2  and  C_3
REMARK    3  A    between atoms: C_6  and  C_11
REMARK    4  A    between atoms: C_7  and  O_9
REMARK    5  A    between atoms: O_9  and  C_10
REMARK    6  A    between atoms: C_14  and  C_30
REMARK    7  A    between atoms: C_17  and  C_19
REMARK    8  A    between atoms: C_19  and  N_20
REMARK    9  A    between atoms: C_33  and  O_38
REMARK   10  A    between atoms: C_35  and  O_36
REMARK   11  A    between atoms: O_36  and  C_37
REMARK   12  A    between atoms: O_38  and  C_39
REMARK                            x       y       z     vdW  Elec       q    Type
REMARK                         _______ _______ _______ _____ _____    ______ ____
ROOT
ATOM      1  C   UNL     1       2.507  -2.495  -4.390  0.00  0.00    +0.140 C 
ATOM      2  C   UNL     1       3.949  -2.905  -4.032  0.00  0.00    +0.087 C 
ATOM      3  C   UNL     1       4.803  -2.115  -4.998  0.00  0.00    +0.072 C 
ATOM      4  N   UNL     1       4.045  -1.399  -5.756  0.00  0.00    -0.181 NA
ATOM      5  N   UNL     1       2.680  -1.539  -5.495  0.00  0.00    -0.187 N 
ATOM      6  C   UNL     1       1.685  -0.906  -6.147  0.00  0.00    +0.219 C 
ATOM      7  O   UNL     1       0.530  -1.106  -5.833  0.00  0.00    -0.276 OA
ENDROOT
BRANCH   1  11
ATOM      8  C   UNL     1       0.606  -0.607  -1.056  0.00  0.00    +0.124 A 
ATOM      9  C   UNL     1       1.173   0.162  -2.062  0.00  0.00    +0.046 A 
ATOM     10  C   UNL     1       1.787  -0.451  -3.138  0.00  0.00    +0.013 A 
ATOM     11  C   UNL     1       1.837  -1.830  -3.215  0.00  0.00    +0.017 A 
ATOM     12  C   UNL     1       1.272  -2.603  -2.211  0.00  0.00    +0.129 A 
ATOM     13  C   UNL     1       0.660  -1.990  -1.127  0.00  0.00    +0.091 A 
BRANCH   8  15
ATOM     14  C   UNL     1      -0.017   1.425   0.010  0.00  0.00    +0.277 C 
ATOM     15  O   UNL     1       0.002  -0.004   0.002  0.00  0.00    -0.495 OA
ENDBRANCH   8  15
BRANCH  12  16
ATOM     16  O   UNL     1       1.322  -3.959  -2.286  0.00  0.00    -0.495 OA
ATOM     17  C   UNL     1       0.719  -4.691  -1.217  0.00  0.00    +0.277 C 
ENDBRANCH  12  16
ENDBRANCH   1  11
BRANCH   3  18
ATOM     18  C   UNL     1       6.274  -2.156  -5.062  0.00  0.00    +0.040 A 
ATOM     19  C   UNL     1       6.991  -2.977  -4.188  0.00  0.00    +0.017 A 
ATOM     20  C   UNL     1       8.367  -3.012  -4.251  0.00  0.00    +0.046 A 
ATOM     21  C   UNL     1       9.045  -2.233  -5.181  0.00  0.00    +0.124 A 
ATOM     22  C   UNL     1       8.342  -1.415  -6.053  0.00  0.00    +0.091 A 
ATOM     23  C   UNL     1       6.960  -1.376  -6.004  0.00  0.00    +0.132 A 
BRANCH  23  24
ATOM     24  O   UNL     1       6.270  -0.580  -6.861  0.00  0.00    -0.494 OA
ATOM     25  C   UNL     1       7.035   0.187  -7.793  0.00  0.00    +0.277 C 
ENDBRANCH  23  24
BRANCH  21  26
ATOM     26  O   UNL     1      10.402  -2.273  -5.237  0.00  0.00    -0.495 OA
ATOM     27  C   UNL     1      11.064  -3.137  -4.310  0.00  0.00    +0.277 C 
ENDBRANCH  21  26
ENDBRANCH   3  18
BRANCH   6  28
ATOM     28  C   UNL     1       2.006   0.051  -7.266  0.00  0.00    +0.021 C 
BRANCH  28  29
ATOM     29  N   UNL     1       0.759   0.606  -7.809  0.00  0.00    +0.386 N 
ATOM     30  C   UNL     1       0.093   1.410  -6.777  0.00  0.00    -0.073 C 
ATOM     31  C   UNL     1      -1.248   1.920  -7.310  0.00  0.00    +0.046 C 
ATOM     32  C   UNL     1      -1.003   2.775  -8.555  0.00  0.00    +0.167 C 
ATOM     33  C   UNL     1      -0.236   1.956  -9.596  0.00  0.00    +0.046 C 
ATOM     34  C   UNL     1       1.066   1.444  -8.975  0.00  0.00    -0.073 C 
ATOM     35  O   UNL     1      -2.262   3.192  -9.106  0.00  0.00    -0.346 OA
ATOM     36  C   UNL     1      -2.486   4.513  -8.557  0.00  0.00    +0.191 C 
ATOM     37  C   UNL     1      -1.049   5.089  -8.524  0.00  0.00    +0.191 C 
ATOM     38  O   UNL     1      -0.243   3.937  -8.201  0.00  0.00    -0.346 OA
ATOM     39  H   UNL     1       0.151  -0.148  -8.090  0.00  0.00    -0.081 HD
ENDBRANCH  28  29
ENDBRANCH   6  28
TORSDOF 8
