REMARK  Name = ZINC42595043
REMARK  10 active torsions:
REMARK  status: ('A' for Active; 'I' for Inactive)
REMARK    1  A    between atoms: C_1  and  C_2
REMARK    2  A    between atoms: C_2  and  C_3
REMARK    3  A    between atoms: C_3  and  C_5
REMARK    4  A    between atoms: C_3  and  N_8
REMARK    5  A    between atoms: C_5  and  C_6
REMARK    6  A    between atoms: C_5  and  C_7
REMARK    7  A    between atoms: N_11  and  C_12
REMARK    8  A    between atoms: C_12  and  C_13
REMARK    9  A    between atoms: C_12  and  C_14
REMARK   10  A    between atoms: C_12  and  C_15
REMARK                            x       y       z     vdW  Elec       q    Type
REMARK                         _______ _______ _______ _____ _____    ______ ____
ROOT
ATOM      1  N   UNL     1      -2.082  -0.162   1.273  0.00  0.00    -0.296 N 
ATOM      2  C   UNL     1      -2.664   1.047   1.400  0.00  0.00    +0.301 C 
ATOM      3  O   UNL     1      -2.651   1.829   0.469  0.00  0.00    -0.253 OA
ATOM      4  N   UNL     1      -3.260   1.389   2.559  0.00  0.00    -0.284 N 
ATOM      5  H   UNL     1      -2.092  -0.785   2.016  0.00  0.00    +0.151 HD
ATOM      6  H   UNL     1      -3.270   0.765   3.302  0.00  0.00    +0.151 HD
ENDROOT
BRANCH   4   7
ATOM      7  C   UNL     1      -3.893   2.703   2.698  0.00  0.00    +0.131 C 
ATOM      8  C   UNL     1      -2.846   3.798   2.483  0.00  0.00    +0.043 C 
ATOM      9  C   UNL     1      -5.003   2.847   1.655  0.00  0.00    +0.043 C 
BRANCH   7  10
ATOM     10  C   UNL     1      -4.481   2.834   4.079  0.00  0.00    +0.378 C 
ATOM     11  O   UNL     1      -4.381   1.916   4.874  0.00  0.00    -0.244 OA
ATOM     12  O   UNL     1      -5.058   3.860   4.401  0.00  0.00    -0.244 OA
ENDBRANCH   7  10
ENDBRANCH   4   7
BRANCH   1  13
ATOM     13  C   UNL     1      -1.433  -0.534   0.013  0.00  0.00    +0.077 C 
BRANCH  13  14
ATOM     14  C   UNL     1      -1.416  -2.058  -0.121  0.00  0.00    +0.003 C 
ATOM     15  C   UNL     1      -0.739  -2.446  -1.437  0.00  0.00    +0.009 C 
ATOM     16  C   UNL     1      -0.640  -2.664   1.050  0.00  0.00    +0.009 C 
ENDBRANCH  13  14
BRANCH  13  18
ATOM     17  C   UNL     1      -0.019   1.526   0.010  0.00  0.00    +0.006 C 
ATOM     18  C   UNL     1       0.002  -0.004   0.002  0.00  0.00    +0.019 C 
ENDBRANCH  13  18
ENDBRANCH   1  13
TORSDOF 5
