REMARK  Name = ZINC63698411
REMARK  9 active torsions:
REMARK  status: ('A' for Active; 'I' for Inactive)
REMARK    1  A    between atoms: C_7  and  C_10
REMARK    2  A    between atoms: C_10  and  C_11
REMARK    3  A    between atoms: C_11  and  N_12
REMARK    4  A    between atoms: C_13  and  C_15
REMARK    5  A    between atoms: N_17  and  C_18
REMARK    6  A    between atoms: C_18  and  C_19
REMARK    7  A    between atoms: C_19  and  C_20
REMARK    8  A    between atoms: N_26  and  S_27
REMARK    9  A    between atoms: S_27  and  C_30
REMARK                            x       y       z     vdW  Elec       q    Type
REMARK                         _______ _______ _______ _____ _____    ______ ____
ROOT
ATOM      1  C   UNL     1      -0.542  -8.168  -2.337  0.00  0.00    +0.299 C 
ATOM      2  O   UNL     1      -0.914  -8.779  -1.357  0.00  0.00    -0.265 OA
ATOM      3  N   UNL     1      -1.184  -8.324  -3.512  0.00  0.00    -0.308 N 
ATOM      4  H   UNL     1      -0.940  -7.777  -4.275  0.00  0.00    +0.149 HD
ENDROOT
BRANCH   1   6
ATOM      5  N   UNL     1       1.271  -7.089  -1.068  0.00  0.00    -0.307 N 
ATOM      6  C   UNL     1       0.629  -7.244  -2.242  0.00  0.00    +0.299 C 
ATOM      7  O   UNL     1       1.001  -6.634  -3.223  0.00  0.00    -0.265 OA
ATOM      8  H   UNL     1       0.973  -7.577  -0.284  0.00  0.00    +0.149 HD
BRANCH   5   9
ATOM      9  C   UNL     1       2.419  -6.183  -0.975  0.00  0.00    +0.109 C 
BRANCH   9  10
ATOM     10  C   UNL     1       2.959  -6.191   0.457  0.00  0.00    +0.052 C 
BRANCH  10  17
ATOM     11  C   UNL     1       3.348  -1.800   1.733  0.00  0.00    +0.001 A 
ATOM     12  C   UNL     1       4.660  -1.311   1.672  0.00  0.00    +0.002 A 
ATOM     13  C   UNL     1       5.703  -2.070   1.274  0.00  0.00    +0.026 A 
ATOM     14  C   UNL     1       5.502  -3.425   0.893  0.00  0.00    +0.043 A 
ATOM     15  N   UNL     1       6.336  -4.348   0.478  0.00  0.00    -0.380 N 
ATOM     16  C   UNL     1       5.581  -5.580   0.224  0.00  0.00    +0.144 C 
ATOM     17  C   UNL     1       4.140  -5.259   0.552  0.00  0.00    -0.040 C 
ATOM     18  C   UNL     1       4.125  -3.966   0.949  0.00  0.00    -0.001 A 
ATOM     19  C   UNL     1       3.047  -3.074   1.393  0.00  0.00    +0.010 A 
ATOM     20  H   UNL     1       7.292  -4.235   0.359  0.00  0.00    +0.160 HD
ENDBRANCH  10  17
ENDBRANCH   9  10
ENDBRANCH   5   9
ENDBRANCH   1   6
BRANCH   3  21
ATOM     21  C   UNL     1      -2.252  -9.319  -3.637  0.00  0.00    +0.106 C 
BRANCH  21  22
ATOM     22  C   UNL     1      -2.727  -9.378  -5.090  0.00  0.00    +0.039 C 
BRANCH  22  23
ATOM     23  C   UNL     1      -3.894 -10.360  -5.206  0.00  0.00    +0.081 C 
ATOM     24  C   UNL     1      -5.128  -9.776  -4.513  0.00  0.00    +0.021 C 
ATOM     25  C   UNL     1      -6.327 -10.697  -4.751  0.00  0.00    +0.003 C 
ATOM     26  C   UNL     1      -6.613 -10.786  -6.252  0.00  0.00    +0.017 C 
ATOM     27  C   UNL     1      -5.396 -11.382  -6.965  0.00  0.00    +0.110 C 
ATOM     28  N   UNL     1      -4.207 -10.588  -6.623  0.00  0.00    -0.173 NA
BRANCH  28  29
ATOM     29  S   UNL     1      -3.243  -9.957  -7.813  0.00  0.00    +0.067 S 
ATOM     30  O   UNL     1      -3.980 -10.048  -9.024  0.00  0.00    -0.152 OA
ATOM     31  O   UNL     1      -2.742  -8.722  -7.317  0.00  0.00    -0.152 OA
BRANCH  29  32
ATOM     32  C   UNL     1      -1.857 -11.030  -7.984  0.00  0.00    +0.143 A 
ATOM     33  C   UNL     1      -1.685 -12.073  -8.832  0.00  0.00    +0.036 A 
ATOM     34  C   UNL     1      -0.499 -12.783  -8.790  0.00  0.00    +0.010 A 
ATOM     35  C   UNL     1       0.456 -12.415  -7.902  0.00  0.00    +0.047 A 
ATOM     36  S   UNL     1      -0.311 -11.022  -7.091  0.00  0.00    -0.077 S 
ENDBRANCH  29  32
ENDBRANCH  28  29
ENDBRANCH  22  23
ENDBRANCH  21  22
ENDBRANCH   3  21
TORSDOF 9
