REMARK  Name = ZINC39454550
REMARK  6 active torsions:
REMARK  status: ('A' for Active; 'I' for Inactive)
REMARK    1  A    between atoms: C_1  and  C_2
REMARK    2  A    between atoms: N_8  and  C_9
REMARK    3  A    between atoms: C_9  and  C_10
REMARK    4  A    between atoms: N_12  and  C_13
REMARK    5  A    between atoms: C_18  and  C_23
REMARK    6  A    between atoms: C_24  and  C_27
REMARK                            x       y       z     vdW  Elec       q    Type
REMARK                         _______ _______ _______ _____ _____    ______ ____
ROOT
ATOM      1  C   UNL     1       0.865  -0.347   3.613  0.00  0.00    +0.199 C 
ATOM      2  O   UNL     1       1.871  -1.013   3.487  0.00  0.00    -0.278 OA
ATOM      3  N   UNL     1       0.461   0.039   4.840  0.00  0.00    -0.288 N 
ATOM      4  H   UNL     1      -0.343   0.572   4.940  0.00  0.00    +0.151 HD
ENDROOT
BRANCH   3   5
ATOM      5  C   UNL     1       1.237  -0.346   6.021  0.00  0.00    +0.243 C 
ATOM      6  C   UNL     1       0.312  -0.696   7.158  0.00  0.00    +0.072 A 
ATOM      7  H   UNL     1      -1.738  -2.586   8.830  0.00  0.00    +0.192 HD
ATOM      8  C   UNL     1       0.282   0.371   8.013  0.00  0.00    +0.016 A 
ATOM      9  C   UNL     1      -0.517   0.286   9.159  0.00  0.00    +0.065 A 
ATOM     10  N   UNL     1      -1.212  -0.795   9.393  0.00  0.00    -0.176 NA
ATOM     11  N   UNL     1      -1.201  -1.809   8.606  0.00  0.00    -0.243 N 
ATOM     12  C   UNL     1      -0.463  -1.824   7.477  0.00  0.00    +0.272 A 
ATOM     13  O   UNL     1      -0.468  -2.800   6.745  0.00  0.00    -0.266 OA
ATOM     14  C   UNL     1      -0.574   1.442  10.124  0.00  0.00    +0.068 C 
ATOM     15  C   UNL     1       1.188   1.434   7.446  0.00  0.00    +0.150 C 
ATOM     16  O   UNL     1       2.027   0.767   6.481  0.00  0.00    -0.347 OA
ATOM     17  C   UNL     1       0.359   2.523   6.762  0.00  0.00    +0.043 C 
ENDBRANCH   3   5
BRANCH   1  18
ATOM     18  C   UNL     1       0.067   0.050   2.397  0.00  0.00    +0.019 C 
BRANCH  18  25
ATOM     19  C   UNL     1      -0.019   1.526   0.010  0.00  0.00    -0.013 C 
ATOM     20  C   UNL     1       0.002  -0.004   0.002  0.00  0.00    -0.071 C 
ATOM     21  C   UNL     1       0.717  -0.497  -1.258  0.00  0.00    -0.016 C 
ATOM     22  C   UNL     1       0.735  -2.028  -1.262  0.00  0.00    -0.003 C 
ATOM     23  C   UNL     1       1.410  -2.524   0.020  0.00  0.00    -0.019 C 
ATOM     24  C   UNL     1       0.669  -1.956   1.232  0.00  0.00    -0.078 C 
ATOM     25  N   UNL     1       0.711  -0.490   1.192  0.00  0.00    +0.387 N 
ATOM     26  H   UNL     1       1.671  -0.182   1.159  0.00  0.00    -0.081 HD
ENDBRANCH  18  25
ENDBRANCH   1  18
TORSDOF 3
