REMARK  Name = ZINC45724845
REMARK  11 active torsions:
REMARK  status: ('A' for Active; 'I' for Inactive)
REMARK    1  A    between atoms: C_1  and  C_2
REMARK    2  A    between atoms: C_2  and  N_3
REMARK    3  A    between atoms: N_3  and  C_4
REMARK    4  A    between atoms: N_3  and  C_6
REMARK    5  A    between atoms: C_4  and  C_5
REMARK    6  A    between atoms: C_6  and  C_7
REMARK    7  A    between atoms: C_12  and  C_13
REMARK    8  A    between atoms: C_13  and  N_14
REMARK    9  A    between atoms: N_17  and  C_18
REMARK   10  A    between atoms: C_23  and  C_24
REMARK   11  A    between atoms: C_24  and  C_25
REMARK                            x       y       z     vdW  Elec       q    Type
REMARK                         _______ _______ _______ _____ _____    ______ ____
ROOT
ATOM      1  N   UNL     1      -0.395  -2.709  -4.790  0.00  0.00    -0.295 N 
ATOM      2  C   UNL     1       0.290  -2.380  -5.902  0.00  0.00    +0.304 C 
ATOM      3  O   UNL     1       0.328  -1.222  -6.273  0.00  0.00    -0.252 OA
ATOM      4  N   UNL     1       0.933  -3.333  -6.605  0.00  0.00    -0.269 N 
ATOM      5  H   UNL     1      -0.425  -3.633  -4.494  0.00  0.00    +0.151 HD
ATOM      6  H   UNL     1       0.850  -4.265  -6.348  0.00  0.00    +0.156 HD
ENDROOT
BRANCH   4   7
ATOM      7  C   UNL     1       1.721  -2.979  -7.706  0.00  0.00    +0.038 A 
ATOM      8  C   UNL     1       1.448  -1.815  -8.412  0.00  0.00    +0.023 A 
ATOM      9  C   UNL     1       2.227  -1.468  -9.498  0.00  0.00    +0.002 A 
ATOM     10  C   UNL     1       3.280  -2.279  -9.883  0.00  0.00    +0.000 A 
ATOM     11  C   UNL     1       3.554  -3.439  -9.182  0.00  0.00    +0.006 A 
ATOM     12  C   UNL     1       2.782  -3.788  -8.091  0.00  0.00    -0.017 A 
BRANCH  12  13
ATOM     13  C   UNL     1       3.086  -5.049  -7.325  0.00  0.00    +0.132 C 
BRANCH  13  14
ATOM     14  C   UNL     1       2.228  -6.173  -7.846  0.00  0.00    +0.215 C 
ATOM     15  O   UNL     1       1.447  -5.970  -8.751  0.00  0.00    -0.276 OA
ATOM     16  N   UNL     1       2.329  -7.404  -7.306  0.00  0.00    -0.329 N 
ATOM     17  H   UNL     1       2.954  -7.567  -6.582  0.00  0.00    +0.145 HD
ATOM     18  H   UNL     1       1.777  -8.128  -7.642  0.00  0.00    +0.145 HD
ENDBRANCH  13  14
ENDBRANCH  12  13
ENDBRANCH   4   7
BRANCH   1  19
ATOM     19  C   UNL     1      -1.094  -1.673  -4.026  0.00  0.00    +0.141 C 
BRANCH  19  25
ATOM     20  C   UNL     1      -1.047  -2.598  -1.700  0.00  0.00    -0.059 A 
ATOM     21  C   UNL     1      -1.674  -3.167  -0.607  0.00  0.00    +0.002 A 
ATOM     22  C   UNL     1      -3.027  -3.443  -0.653  0.00  0.00    +0.000 A 
ATOM     23  C   UNL     1      -3.755  -3.150  -1.792  0.00  0.00    +0.000 A 
ATOM     24  C   UNL     1      -3.128  -2.580  -2.884  0.00  0.00    +0.005 A 
ATOM     25  C   UNL     1      -1.775  -2.300  -2.836  0.00  0.00    -0.029 A 
BRANCH  20  26
ATOM     26  C   UNL     1       0.428  -2.296  -1.650  0.00  0.00    -0.043 C 
BRANCH  26  27
ATOM     27  N   UNL     1       0.627  -0.870  -1.359  0.00  0.00    +0.382 N 
ATOM     28  H   UNL     1       0.126  -0.316  -2.037  0.00  0.00    -0.081 HD
BRANCH  27  30
ATOM     29  C   UNL     1       0.199   0.938   0.236  0.00  0.00    -0.017 C 
ATOM     30  C   UNL     1       0.124  -0.570  -0.012  0.00  0.00    -0.082 C 
ENDBRANCH  27  30
BRANCH  27  31
ATOM     31  C   UNL     1       2.060  -0.551  -1.429  0.00  0.00    -0.082 C 
ATOM     32  C   UNL     1       2.552  -0.728  -2.866  0.00  0.00    -0.017 C 
ENDBRANCH  27  31
ENDBRANCH  26  27
ENDBRANCH  20  26
ENDBRANCH  19  25
ENDBRANCH   1  19
TORSDOF 9
