REMARK  Name = ZINC20462860
REMARK  10 active torsions:
REMARK  status: ('A' for Active; 'I' for Inactive)
REMARK    1  A    between atoms: C_1  and  C_2
REMARK    2  A    between atoms: C_2  and  O_3
REMARK    3  A    between atoms: O_3  and  C_4
REMARK    4  A    between atoms: C_4  and  C_6
REMARK    5  A    between atoms: C_6  and  C_7
REMARK    6  A    between atoms: C_13  and  C_15
REMARK    7  A    between atoms: C_15  and  C_16
REMARK    8  A    between atoms: C_16  and  N_17
REMARK    9  A    between atoms: C_21  and  C_23
REMARK   10  A    between atoms: N_28  and  C_29
REMARK                            x       y       z     vdW  Elec       q    Type
REMARK                         _______ _______ _______ _____ _____    ______ ____
ROOT
ATOM      1  C   UNL     1      -3.652  -3.595  -1.537  0.00  0.00    +0.006 C 
ATOM      2  C   UNL     1      -4.871  -3.579  -0.612  0.00  0.00    +0.023 C 
ATOM      3  C   UNL     1      -4.480  -4.160   0.750  0.00  0.00    +0.109 C 
ATOM      4  N   UNL     1      -3.322  -3.417   1.266  0.00  0.00    -0.285 N 
ATOM      5  C   UNL     1      -2.128  -3.293   0.419  0.00  0.00    +0.113 C 
ATOM      6  C   UNL     1      -2.545  -2.723  -0.940  0.00  0.00    +0.008 C 
ATOM      7  C   UNL     1      -3.354  -2.860   2.493  0.00  0.00    +0.302 C 
ATOM      8  O   UNL     1      -2.429  -2.166   2.870  0.00  0.00    -0.253 OA
ATOM      9  N   UNL     1      -4.411  -3.071   3.301  0.00  0.00    -0.296 N 
ATOM     10  H   UNL     1      -5.285  -3.627   2.930  0.00  0.00    +0.151 HD
ENDROOT
BRANCH   9  11
ATOM     11  C   UNL     1      -4.397  -2.561   4.675  0.00  0.00    +0.074 C 
ATOM     12  C   UNL     1      -3.686  -3.565   5.585  0.00  0.00    +0.022 C 
ATOM     13  C   UNL     1      -3.671  -3.032   7.019  0.00  0.00    +0.002 C 
ATOM     14  C   UNL     1      -5.109  -2.832   7.504  0.00  0.00    +0.000 C 
ATOM     15  C   UNL     1      -5.819  -1.828   6.594  0.00  0.00    +0.002 C 
ATOM     16  C   UNL     1      -5.834  -2.362   5.160  0.00  0.00    +0.022 C 
ENDBRANCH   9  11
BRANCH   1  17
ATOM     17  C   UNL     1      -4.047  -3.048  -2.911  0.00  0.00    +0.124 C 
BRANCH  17  18
ATOM     18  C   UNL     1      -5.047  -3.975  -3.551  0.00  0.00    +0.307 C 
ATOM     19  O   UNL     1      -5.407  -4.971  -2.970  0.00  0.00    -0.251 OA
BRANCH  18  20
ATOM     20  O   UNL     1      -5.538  -3.695  -4.769  0.00  0.00    -0.465 OA
BRANCH  20  22
ATOM     21  C   UNL     1      -6.942  -4.148  -6.707  0.00  0.00    +0.048 C 
ATOM     22  C   UNL     1      -6.498  -4.632  -5.324  0.00  0.00    +0.229 C 
ENDBRANCH  20  22
ENDBRANCH  18  20
ENDBRANCH  17  18
ENDBRANCH   1  17
BRANCH   6  23
ATOM     23  C   UNL     1      -3.063  -1.295  -0.758  0.00  0.00    -0.013 C 
BRANCH  23  24
ATOM     24  C   UNL     1      -1.923  -0.396  -0.275  0.00  0.00    -0.077 C 
BRANCH  24  25
ATOM     25  N   UNL     1      -2.420   0.975  -0.099  0.00  0.00    +0.387 N 
ATOM     26  C   UNL     1      -3.244   1.087   1.123  0.00  0.00    -0.078 C 
ATOM     27  C   UNL     1      -2.972   2.517   1.653  0.00  0.00    -0.020 C 
ATOM     28  C   UNL     1      -1.462   2.692   1.331  0.00  0.00    -0.008 C 
ATOM     29  C   UNL     1      -1.304   1.933  -0.003  0.00  0.00    +0.019 C 
ATOM     30  H   UNL     1      -3.031   1.207  -0.984  0.00  0.00    -0.081 HD
BRANCH  29  31
ATOM     31  C   UNL     1       0.009   1.195  -0.021  0.00  0.00    +0.197 C 
ATOM     32  O   UNL     1       0.185   0.252   0.721  0.00  0.00    -0.278 OA
ATOM     33  N   UNL     1       0.987   1.579  -0.866  0.00  0.00    -0.331 N 
ATOM     34  H   UNL     1       1.946   1.040  -0.879  0.00  0.00    +0.145 HD
ATOM     35  H   UNL     1       0.826   2.431  -1.542  0.00  0.00    +0.145 HD
ENDBRANCH  29  31
ENDBRANCH  24  25
ENDBRANCH  23  24
ENDBRANCH   6  23
TORSDOF 9
