REMARK  Name = ZINC17130234
REMARK  5 active torsions:
REMARK  status: ('A' for Active; 'I' for Inactive)
REMARK    1  A    between atoms: N_3  and  C1*_12
REMARK    2  A    between atoms: C2*_14  and  O2*_24
REMARK    3  A    between atoms: C3*_16  and  O3*_23
REMARK    4  A    between atoms: C4*_18  and  C5*_21
REMARK    5  A    between atoms: C5*_21  and  O5*_22
REMARK                            x       y       z     vdW  Elec       q    Type
REMARK                         _______ _______ _______ _____ _____    ______ ____
ROOT
ATOM      1  C   UNL     1      -0.017   1.379   0.010  0.00  0.00    +0.117 A 
ATOM      2  C   UNL     1       1.241   1.812  -0.000  0.00  0.00    +0.110 A 
ATOM      3  N   UNL     1       2.079   0.713  -0.014  0.00  0.00    -0.289 N 
ATOM      4  C   UNL     1       1.304  -0.404  -0.013  0.00  0.00    +0.201 A 
ATOM      5  N   UNL     1       0.002  -0.004   0.002  0.00  0.00    -0.237 N 
ATOM      6  C   UNL     1      -0.977  -0.931   0.006  0.00  0.00    +0.358 A 
ATOM      7  O   UNL     1      -2.147  -0.587   0.019  0.00  0.00    -0.244 OA
ATOM      8  N   UNL     1      -0.658  -2.225  -0.004  0.00  0.00    -0.161 NA
ATOM      9  C   UNL     1       0.616  -2.603  -0.018  0.00  0.00    +0.198 A 
ATOM     10  N   UNL     1       1.594  -1.698  -0.023  0.00  0.00    -0.299 N 
ATOM     11  N   UNL     1       0.929  -3.944  -0.028  0.00  0.00    -0.329 N 
ATOM     12  H   UNL     1       0.221  -4.607  -0.025  0.00  0.00    +0.145 HD
ATOM     13  H   UNL     1       1.857  -4.225  -0.038  0.00  0.00    +0.145 HD
ATOM     14  H   UNL     1       2.520  -1.987  -0.033  0.00  0.00    +0.171 HD
ENDROOT
BRANCH   3  15
ATOM     15  C1* UNL     1       3.544   0.747  -0.028  0.00  0.00    +0.253 C 
ATOM     16  C2* UNL     1       4.054   1.413  -1.325  0.00  0.00    +0.195 C 
ATOM     17  C3* UNL     1       5.290   2.221  -0.871  0.00  0.00    +0.178 C 
ATOM     18  C4* UNL     1       5.381   1.947   0.647  0.00  0.00    +0.177 C 
ATOM     19  O4* UNL     1       4.038   1.585   1.039  0.00  0.00    -0.346 OA
BRANCH  17  20
ATOM     20  O3* UNL     1       6.465   1.755  -1.538  0.00  0.00    -0.386 OA
ATOM     21  H3* UNL     1       7.272   2.228  -1.290  0.00  0.00    +0.210 HD
ENDBRANCH  17  20
BRANCH  16  22
ATOM     22  O2* UNL     1       3.057   2.281  -1.867  0.00  0.00    -0.385 OA
ATOM     23  H2* UNL     1       3.325   2.727  -2.683  0.00  0.00    +0.210 HD
ENDBRANCH  16  22
BRANCH  18  24
ATOM     24  C5* UNL     1       5.835   3.205   1.389  0.00  0.00    +0.190 C 
BRANCH  24  25
ATOM     25  O5* UNL     1       6.024   2.900   2.772  0.00  0.00    -0.392 OA
ATOM     26  H5* UNL     1       6.313   3.653   3.305  0.00  0.00    +0.210 HD
ENDBRANCH  24  25
ENDBRANCH  18  24
ENDBRANCH   3  15
TORSDOF 5
