REMARK  Name = ZINC58288882
REMARK  11 active torsions:
REMARK  status: ('A' for Active; 'I' for Inactive)
REMARK    1  A    between atoms: C_1  and  C_2
REMARK    2  A    between atoms: C_2  and  C_4
REMARK    3  A    between atoms: C_2  and  N_18
REMARK    4  A    between atoms: N_6  and  C_7
REMARK    5  A    between atoms: C_8  and  C_15
REMARK    6  A    between atoms: N_18  and  C_19
REMARK    7  A    between atoms: N_18  and  C_20
REMARK    8  A    between atoms: C_20  and  C_21
REMARK    9  A    between atoms: C_24  and  C_27
REMARK   10  A    between atoms: C_27  and  C_28
REMARK   11  A    between atoms: C_27  and  C_29
REMARK                            x       y       z     vdW  Elec       q    Type
REMARK                         _______ _______ _______ _____ _____    ______ ____
ROOT
ATOM      1  C   UNL     1       0.845  -0.555   1.147  0.00  0.00    +0.204 C 
ATOM      2  O   UNL     1       1.766  -1.312   0.922  0.00  0.00    -0.277 OA
ATOM      3  N   UNL     1       0.556  -0.203   2.416  0.00  0.00    -0.281 N 
ATOM      4  H   UNL     1      -0.180   0.402   2.595  0.00  0.00    +0.155 HD
ENDROOT
BRANCH   3   5
ATOM      5  C   UNL     1       1.313  -0.705   3.464  0.00  0.00    +0.084 A 
ATOM      6  C   UNL     1       1.160  -0.460   4.816  0.00  0.00    +0.068 A 
ATOM      7  C   UNL     1       2.096  -1.118   5.726  0.00  0.00    -0.023 A 
ATOM      8  C   UNL     1       3.006  -1.894   5.109  0.00  0.00    -0.004 A 
ATOM      9  S   UNL     1       2.618  -1.755   3.383  0.00  0.00    -0.077 S 
ATOM     10  C   UNL     1       3.946  -2.543   6.090  0.00  0.00    +0.043 C 
ATOM     11  C   UNL     1       3.772  -1.731   7.392  0.00  0.00    +0.010 C 
ATOM     12  C   UNL     1       2.341  -1.179   7.232  0.00  0.00    +0.037 C 
BRANCH   6  13
ATOM     13  C   UNL     1       0.103   0.424   5.317  0.00  0.00    +0.244 C 
ATOM     14  O   UNL     1      -0.989  -0.033   5.601  0.00  0.00    -0.270 OA
ATOM     15  N   UNL     1       0.341   1.742   5.463  0.00  0.00    -0.325 N 
ATOM     16  H   UNL     1       1.211   2.107   5.236  0.00  0.00    +0.145 HD
ATOM     17  H   UNL     1      -0.358   2.328   5.794  0.00  0.00    +0.145 HD
ENDBRANCH   6  13
ENDBRANCH   3   5
BRANCH   1  19
ATOM     18  C   UNL     1       0.608   1.329  -0.448  0.00  0.00    -0.004 C 
ATOM     19  C   UNL     1       0.023  -0.010   0.008  0.00  0.00    +0.016 C 
BRANCH  19  20
ATOM     20  N   UNL     1       0.046  -0.961  -1.112  0.00  0.00    +0.388 N 
ATOM     21  C   UNL     1      -0.574  -2.225  -0.693  0.00  0.00    -0.095 C 
ATOM     22  H   UNL     1       1.000  -1.130  -1.390  0.00  0.00    -0.081 HD
BRANCH  20  23
ATOM     23  C   UNL     1      -0.703  -0.400  -2.245  0.00  0.00    -0.042 C 
BRANCH  23  24
ATOM     24  C   UNL     1      -0.577  -1.319  -3.433  0.00  0.00    -0.064 A 
ATOM     25  C   UNL     1       0.462  -1.152  -4.329  0.00  0.00    +0.002 A 
ATOM     26  C   UNL     1       0.578  -1.994  -5.419  0.00  0.00    +0.004 A 
ATOM     27  C   UNL     1      -0.346  -3.004  -5.613  0.00  0.00    -0.045 A 
ATOM     28  C   UNL     1      -1.385  -3.172  -4.716  0.00  0.00    +0.004 A 
ATOM     29  C   UNL     1      -1.498  -2.332  -3.624  0.00  0.00    +0.002 A 
BRANCH  27  30
ATOM     30  C   UNL     1      -0.221  -3.922  -6.801  0.00  0.00    +0.013 C 
ATOM     31  C   UNL     1      -0.062  -5.364  -6.317  0.00  0.00    +0.012 C 
ATOM     32  C   UNL     1      -1.478  -3.810  -7.667  0.00  0.00    +0.012 C 
ENDBRANCH  27  30
ENDBRANCH  23  24
ENDBRANCH  20  23
ENDBRANCH  19  20
ENDBRANCH   1  19
TORSDOF 7
