REMARK  Name = ZINC23248601
REMARK  6 active torsions:
REMARK  status: ('A' for Active; 'I' for Inactive)
REMARK    1  A    between atoms: C_1  and  C_2
REMARK    2  A    between atoms: N_10  and  N_14
REMARK    3  A    between atoms: C_15  and  C_17
REMARK    4  A    between atoms: C_17  and  N_18
REMARK    5  A    between atoms: N_21  and  C_24
REMARK    6  A    between atoms: C_24  and  C_25
REMARK                            x       y       z     vdW  Elec       q    Type
REMARK                         _______ _______ _______ _____ _____    ______ ____
ROOT
ATOM      1  N   UNL     1       5.305  -3.459  -6.984  0.00  0.00    -0.225 N 
ATOM      2  C   UNL     1       5.009  -3.085  -5.723  0.00  0.00    +0.213 C 
ATOM      3  O   UNL     1       4.059  -3.577  -5.152  0.00  0.00    -0.276 OA
ATOM      4  H   UNL     1       6.166  -3.013  -7.502  0.00  0.00    +0.173 HD
ENDROOT
BRANCH   1  14
ATOM      5  C   UNL     1       0.601  -8.449 -10.979  0.00  0.00    +0.007 C 
ATOM      6  C   UNL     1       1.198  -7.094 -10.593  0.00  0.00    -0.014 C 
ATOM      7  C   UNL     1       0.928  -6.822  -9.112  0.00  0.00    +0.006 C 
ATOM      8  C   UNL     1       1.515  -5.461  -8.729  0.00  0.00    +0.035 C 
ATOM      9  C   UNL     1       3.016  -5.457  -8.999  0.00  0.00    +0.114 C 
ATOM     10  C   UNL     1       3.301  -5.752 -10.468  0.00  0.00    +0.035 C 
ATOM     11  C   UNL     1       2.707  -7.112 -10.843  0.00  0.00    +0.006 C 
ATOM     12  C   UNL     1       3.620  -4.130  -8.602  0.00  0.00    +0.263 C 
ATOM     13  O   UNL     1       3.355  -3.038  -9.057  0.00  0.00    -0.271 OA
ATOM     14  N   UNL     1       4.515  -4.416  -7.634  0.00  0.00    -0.137 N 
ATOM     15  C   UNL     1       4.559  -5.729  -7.376  0.00  0.00    +0.326 C 
ATOM     16  O   UNL     1       5.292  -6.231  -6.547  0.00  0.00    -0.251 OA
ATOM     17  N   UNL     1       3.697  -6.431  -8.137  0.00  0.00    -0.284 N 
ATOM     18  H   UNL     1       3.446  -7.500  -8.209  0.00  0.00    +0.151 HD
ENDBRANCH   1  14
BRANCH   2  19
ATOM     19  C   UNL     1       5.859  -2.056  -5.024  0.00  0.00    +0.020 C 
BRANCH  19  20
ATOM     20  N   UNL     1       5.427  -1.933  -3.625  0.00  0.00    +0.387 N 
ATOM     21  C   UNL     1       5.702  -3.169  -2.879  0.00  0.00    -0.063 C 
ATOM     22  C   UNL     1       5.167  -3.029  -1.452  0.00  0.00    +0.066 C 
ATOM     23  N   UNL     1       5.803  -1.874  -0.804  0.00  0.00    -0.301 NA
ATOM     24  C   UNL     1       5.528  -0.638  -1.550  0.00  0.00    +0.066 C 
ATOM     25  C   UNL     1       6.063  -0.777  -2.977  0.00  0.00    -0.063 C 
ATOM     26  H   UNL     1       4.339  -1.769  -3.622  0.00  0.00    -0.081 HD
BRANCH  23  27
ATOM     27  C   UNL     1       5.371  -1.751   0.595  0.00  0.00    +0.126 C 
BRANCH  27  28
ATOM     28  C   UNL     1       6.218  -0.719   1.294  0.00  0.00    +0.005 A 
ATOM     29  C   UNL     1       6.013   0.616   1.412  0.00  0.00    +0.013 A 
ATOM     30  C   UNL     1       6.934   1.377   2.105  0.00  0.00    +0.023 A 
ATOM     31  C   UNL     1       8.018   0.766   2.647  0.00  0.00    +0.055 A 
ATOM     32  S   UNL     1       7.753  -0.936   2.179  0.00  0.00    -0.085 S 
ATOM     33 BR   UNL     1       9.442   1.523   3.634  0.00  0.00    -0.043 Br
ENDBRANCH  27  28
ENDBRANCH  23  27
ENDBRANCH  19  20
ENDBRANCH   2  19
TORSDOF 5
