REMARK  Name = ZINC30577183
REMARK  2 active torsions:
REMARK  status: ('A' for Active; 'I' for Inactive)
REMARK    1  A    between atoms: C_11  and  C_13
REMARK    2  A    between atoms: C_13  and  N_14
REMARK                            x       y       z     vdW  Elec       q    Type
REMARK                         _______ _______ _______ _____ _____    ______ ____
ROOT
ATOM      1  C   UNL     1       3.837  -4.658  -0.340  0.00  0.00    +0.002 A 
ATOM      2  C   UNL     1       4.849  -3.940  -0.950  0.00  0.00    +0.004 A 
ATOM      3  C   UNL     1       4.666  -2.607  -1.263  0.00  0.00    +0.047 A 
ATOM      4  C   UNL     1       3.464  -1.982  -0.967  0.00  0.00    +0.142 A 
ATOM      5  C   UNL     1       2.446  -2.708  -0.355  0.00  0.00    +0.078 A 
ATOM      6  C   UNL     1       2.635  -4.044  -0.041  0.00  0.00    +0.027 A 
ATOM      7  N   UNL     1       1.223  -2.081  -0.059  0.00  0.00    -0.264 N 
ATOM      8  C   UNL     1       1.175  -0.610  -0.124  0.00  0.00    +0.155 C 
ATOM      9  C   UNL     1       1.957  -0.175  -1.372  0.00  0.00    +0.248 C 
ATOM     10  O   UNL     1       3.295  -0.669  -1.274  0.00  0.00    -0.489 OA
ATOM     11  C   UNL     1       0.132  -2.800   0.271  0.00  0.00    +0.238 C 
ATOM     12  O   UNL     1       0.165  -4.011   0.216  0.00  0.00    -0.274 OA
ENDROOT
BRANCH  11  13
ATOM     13  C   UNL     1      -1.128  -2.100   0.710  0.00  0.00    +0.210 C 
BRANCH  13  14
ATOM     14  N   UNL     1      -2.139  -3.096   1.073  0.00  0.00    -0.261 N 
ATOM     15  C   UNL     1      -2.982  -3.536   0.056  0.00  0.00    +0.050 A 
ATOM     16  C   UNL     1      -2.583  -3.402  -1.270  0.00  0.00    +0.024 A 
ATOM     17  C   UNL     1      -3.408  -3.829  -2.291  0.00  0.00    +0.002 A 
ATOM     18  C   UNL     1      -4.639  -4.393  -2.009  0.00  0.00    +0.001 A 
ATOM     19  C   UNL     1      -5.048  -4.534  -0.695  0.00  0.00    +0.016 A 
ATOM     20  C   UNL     1      -4.223  -4.110   0.333  0.00  0.00    +0.030 A 
ATOM     21  S   UNL     1      -4.728  -4.294   2.014  0.00  0.00    -0.114 S 
ATOM     22  C   UNL     1      -3.143  -4.498   2.882  0.00  0.00    +0.170 C 
ATOM     23  C   UNL     1      -2.160  -3.496   2.341  0.00  0.00    +0.230 C 
ATOM     24  O   UNL     1      -1.344  -3.024   3.105  0.00  0.00    -0.274 OA
ENDBRANCH  13  14
ENDBRANCH  11  13
TORSDOF 2
