REMARK  Name = ZINC41068864
REMARK  6 active torsions:
REMARK  status: ('A' for Active; 'I' for Inactive)
REMARK    1  A    between atoms: C_3  and  O_10
REMARK    2  A    between atoms: C_6  and  C_7
REMARK    3  A    between atoms: O_10  and  C_11
REMARK    4  A    between atoms: C_11  and  C_12
REMARK    5  A    between atoms: C_12  and  S_13
REMARK    6  A    between atoms: S_13  and  C_14
REMARK                            x       y       z     vdW  Elec       q    Type
REMARK                         _______ _______ _______ _____ _____    ______ ____
ROOT
ATOM      1  C   UNL     1      -0.017   1.392   0.010  0.00  0.00    +0.015 A 
ATOM      2  C   UNL     1       1.167   2.095   0.002  0.00  0.00    +0.046 A 
ATOM      3  C   UNL     1       2.380   1.417  -0.013  0.00  0.00    +0.121 A 
ATOM      4  C   UNL     1       2.403   0.028  -0.021  0.00  0.00    +0.046 A 
ATOM      5  C   UNL     1       1.223  -0.682  -0.014  0.00  0.00    +0.015 A 
ATOM      6  C   UNL     1       0.002  -0.004   0.002  0.00  0.00    +0.012 A 
ENDROOT
BRANCH   6   7
ATOM      7  C   UNL     1      -1.266  -0.762   0.011  0.00  0.00    +0.094 C 
ATOM      8  N   UNL     1      -1.246  -2.094   0.003  0.00  0.00    -0.387 N 
ATOM      9  N   UNL     1      -2.430  -0.113   0.026  0.00  0.00    -0.345 N 
ATOM     10  H   UNL     1      -0.399  -2.567  -0.008  0.00  0.00    +0.157 HD
ATOM     11  H   UNL     1      -2.445   0.857   0.031  0.00  0.00    +0.144 HD
ATOM     12  H   UNL     1      -3.263  -0.611   0.031  0.00  0.00    +0.144 HD
ATOM     13  H   UNL     1      -2.079  -2.592   0.009  0.00  0.00    +0.157 HD
ENDBRANCH   6   7
BRANCH   3  14
ATOM     14  O   UNL     1       3.545   2.113  -0.020  0.00  0.00    -0.491 OA
BRANCH  14  15
ATOM     15  C   UNL     1       4.755   1.353  -0.036  0.00  0.00    +0.240 C 
BRANCH  15  16
ATOM     16  C   UNL     1       5.955   2.303  -0.042  0.00  0.00    +0.115 C 
BRANCH  16  17
ATOM     17  S   UNL     1       7.490   1.338  -0.062  0.00  0.00    -0.119 S 
BRANCH  17  18
ATOM     18  C   UNL     1       8.761   2.559  -0.068  0.00  0.00    +0.043 A 
ATOM     19  C   UNL     1       8.430   3.908  -0.052  0.00  0.00    +0.020 A 
ATOM     20  C   UNL     1       9.427   4.863  -0.056  0.00  0.00    +0.039 A 
ATOM     21  C   UNL     1      10.757   4.479  -0.076  0.00  0.00    +0.126 A 
ATOM     22  C   UNL     1      11.092   3.135  -0.092  0.00  0.00    +0.077 A 
ATOM     23  C   UNL     1      10.097   2.174  -0.083  0.00  0.00    +0.139 A 
ATOM     24  F   UNL     1      10.423   0.863  -0.093  0.00  0.00    -0.204 F 
ATOM     25  F   UNL     1      11.730   5.416  -0.079  0.00  0.00    -0.205 F 
ENDBRANCH  17  18
ENDBRANCH  16  17
ENDBRANCH  15  16
ENDBRANCH  14  15
ENDBRANCH   3  14
TORSDOF 6
