REMARK  Name = ZINC28127759
REMARK  5 active torsions:
REMARK  status: ('A' for Active; 'I' for Inactive)
REMARK    1  A    between atoms: C_3  and  S_8
REMARK    2  A    between atoms: C_6  and  N_7
REMARK    3  A    between atoms: S_8  and  N_11
REMARK    4  A    between atoms: C_13  and  C_23
REMARK    5  A    between atoms: C_18  and  N_20
REMARK                            x       y       z     vdW  Elec       q    Type
REMARK                         _______ _______ _______ _____ _____    ______ ____
ROOT
ATOM      1  N   UNL     1      -3.280   3.025  -0.634  0.00  0.00    -0.218 N 
ATOM      2  C   UNL     1      -2.174   2.331  -1.028  0.00  0.00    +0.121 A 
ATOM      3  C   UNL     1      -1.323   2.190   0.020  0.00  0.00    +0.005 A 
ATOM      4  C   UNL     1      -1.952   2.865   1.168  0.00  0.00    +0.011 A 
ATOM      5  C   UNL     1      -3.176   3.369   0.697  0.00  0.00    +0.073 A 
ATOM      6  C   UNL     1      -4.007   4.067   1.568  0.00  0.00    +0.030 A 
ATOM      7  C   UNL     1      -3.625   4.258   2.877  0.00  0.00    +0.035 A 
ATOM      8  C   UNL     1      -2.416   3.760   3.341  0.00  0.00    +0.127 A 
ATOM      9  C   UNL     1      -1.579   3.066   2.495  0.00  0.00    +0.043 A 
ENDROOT
BRANCH   3  10
ATOM     10  C   UNL     1      -0.018   1.499   0.010  0.00  0.00    -0.046 C 
ATOM     11  C   UNL     1       1.080   2.224   0.004  0.00  0.00    -0.042 C 
ATOM     12  C   UNL     1       2.457   1.625  -0.020  0.00  0.00    -0.055 C 
ATOM     13  N   UNL     1       2.402   0.211   0.371  0.00  0.00    +0.382 N 
ATOM     14  C   UNL     1       1.387  -0.499  -0.424  0.00  0.00    -0.078 C 
ATOM     15  C   UNL     1       0.002  -0.004   0.002  0.00  0.00    +0.016 C 
ATOM     16  H   UNL     1       3.384  -0.255   0.199  0.00  0.00    -0.085 HD
ATOM     17  H   UNL     1       2.142   0.135   1.437  0.00  0.00    -0.085 HD
ENDBRANCH   3  10
BRANCH   1  18
ATOM     18  S   UNL     1      -4.559   3.406  -1.614  0.00  0.00    +0.084 S 
ATOM     19  O   UNL     1      -4.812   4.792  -1.432  0.00  0.00    -0.148 OA
ATOM     20  O   UNL     1      -4.277   2.843  -2.888  0.00  0.00    -0.148 OA
BRANCH  18  23
ATOM     21  C   UNL     1      -7.881   2.488   0.451  0.00  0.00    +0.024 A 
ATOM     22  C   UNL     1      -6.776   3.155  -0.042  0.00  0.00    +0.031 A 
ATOM     23  C   UNL     1      -5.968   2.551  -0.988  0.00  0.00    +0.111 A 
ATOM     24  C   UNL     1      -6.265   1.281  -1.447  0.00  0.00    +0.031 A 
ATOM     25  C   UNL     1      -7.364   0.607  -0.954  0.00  0.00    +0.024 A 
ATOM     26  C   UNL     1      -8.179   1.210  -0.004  0.00  0.00    +0.025 A 
BRANCH  26  27
ATOM     27  N   UNL     1      -9.295   0.533   0.492  0.00  0.00    -0.358 N 
ATOM     28  H   UNL     1      -9.530  -0.479   0.131  0.00  0.00    +0.142 HD
ATOM     29  H   UNL     1      -9.940   1.012   1.244  0.00  0.00    +0.142 HD
ENDBRANCH  26  27
ENDBRANCH  18  23
ENDBRANCH   1  18
BRANCH   8  30
ATOM     30  N   UNL     1      -2.023   3.975   4.752  0.00  0.00    +0.056 N 
ATOM     31  O   UNL     1      -2.760   4.588   5.503  0.00  0.00    -0.126 OA
ATOM     32  O   UNL     1      -0.962   3.539   5.162  0.00  0.00    -0.126 OA
ENDBRANCH   8  30
TORSDOF 5
