REMARK  Name = ZINC42952068
REMARK  6 active torsions:
REMARK  status: ('A' for Active; 'I' for Inactive)
REMARK    1  A    between atoms: C_1  and  C_2
REMARK    2  A    between atoms: C_2  and  C_3
REMARK    3  A    between atoms: C_3  and  C_5
REMARK    4  A    between atoms: C_3  and  N_21
REMARK    5  A    between atoms: C_5  and  C_7
REMARK    6  A    between atoms: C_5  and  N_14
REMARK                            x       y       z     vdW  Elec       q    Type
REMARK                         _______ _______ _______ _____ _____    ______ ____
ROOT
ATOM      1  C   UNL     1       0.638  -2.036   1.174  0.00  0.00    +0.073 C 
ENDROOT
BRANCH   1   2
ATOM      2  N   UNL     1      -0.777  -2.428   1.124  0.00  0.00    -0.287 NA
ATOM      3  C   UNL     1      -0.924  -3.888   1.247  0.00  0.00    +0.104 C 
ATOM      4  C   UNL     1      -2.397  -4.213   1.499  0.00  0.00    +0.119 C 
ATOM      5  N   UNL     1      -3.235  -3.537   0.513  0.00  0.00    -0.313 N 
ATOM      6  C   UNL     1      -2.807  -2.501  -0.216  0.00  0.00    +0.227 C 
ATOM      7  O   UNL     1      -3.579  -1.978  -0.991  0.00  0.00    -0.274 OA
ATOM      8  C   UNL     1      -1.410  -1.958  -0.116  0.00  0.00    +0.181 C 
ATOM      9  H   UNL     1      -4.142  -3.853   0.381  0.00  0.00    +0.149 HD
ENDBRANCH   1   2
BRANCH   1  10
ATOM     10  C   UNL     1       1.230  -2.459   2.493  0.00  0.00    -0.032 A 
ATOM     11  C   UNL     1       0.491  -2.333   3.655  0.00  0.00    +0.006 A 
ATOM     12  C   UNL     1       1.034  -2.721   4.865  0.00  0.00    +0.015 A 
ATOM     13  C   UNL     1       2.317  -3.237   4.914  0.00  0.00    +0.018 A 
ATOM     14  C   UNL     1       3.055  -3.364   3.752  0.00  0.00    +0.015 A 
ATOM     15  C   UNL     1       2.510  -2.980   2.541  0.00  0.00    +0.006 A 
ATOM     16 BR   UNL     1       3.060  -3.768   6.570  0.00  0.00    -0.050 Br
ENDBRANCH   1  10
BRANCH   1  17
ATOM     17  C   UNL     1       0.751  -0.517   1.028  0.00  0.00    -0.053 C 
BRANCH  17  18
ATOM     18  N   UNL     1       0.105   0.135   2.175  0.00  0.00    +0.381 N 
ATOM     19  H   UNL     1       0.180   1.136   2.079  0.00  0.00    -0.090 HD
ATOM     20  H   UNL     1      -0.868  -0.129   2.207  0.00  0.00    -0.090 HD
ATOM     21  H   UNL     1       0.560  -0.156   3.027  0.00  0.00    -0.090 HD
ENDBRANCH  17  18
BRANCH  17  23
ATOM     22  C   UNL     1       2.342   1.380   0.691  0.00  0.00    +0.002 C 
ATOM     23  C   UNL     1       2.228  -0.118   0.980  0.00  0.00    -0.018 C 
ENDBRANCH  17  23
ENDBRANCH   1  17
TORSDOF 5
