REMARK  Name = ZINC20759092
REMARK  10 active torsions:
REMARK  status: ('A' for Active; 'I' for Inactive)
REMARK    1  A    between atoms: C_1  and  C_2
REMARK    2  A    between atoms: C_2  and  C_3
REMARK    3  A    between atoms: C_3  and  C_5
REMARK    4  A    between atoms: C_3  and  N_6
REMARK    5  A    between atoms: C_7  and  C_9
REMARK    6  A    between atoms: C_9  and  S_10
REMARK    7  A    between atoms: S_10  and  C_11
REMARK    8  A    between atoms: C_15  and  C_19
REMARK    9  A    between atoms: N_22  and  C_23
REMARK   10  A    between atoms: C_28  and  C_29
REMARK                            x       y       z     vdW  Elec       q    Type
REMARK                         _______ _______ _______ _____ _____    ______ ____
ROOT
ATOM      1  C   UNL     1       4.238  -0.988   1.139  0.00  0.00    +0.177 A 
ATOM      2  N   UNL     1       5.385  -1.621   1.183  0.00  0.00    -0.201 NA
ATOM      3  C   UNL     1       6.045  -1.990   0.075  0.00  0.00    +0.187 A 
ATOM      4  C   UNL     1       5.504  -1.696  -1.185  0.00  0.00    +0.082 A 
ATOM      5  C   UNL     1       6.396  -2.193  -2.151  0.00  0.00    +0.046 A 
ATOM      6  N   UNL     1       7.403  -2.748  -1.534  0.00  0.00    -0.279 N 
ATOM      7  N   UNL     1       7.219  -2.639  -0.149  0.00  0.00    -0.153 NA
ATOM      8  H   UNL     1       8.220  -3.203  -2.113  0.00  0.00    +0.189 HD
ATOM      9  C   UNL     1       6.222  -2.096  -3.644  0.00  0.00    +0.066 C 
ATOM     10  C   UNL     1       4.219  -0.987  -1.242  0.00  0.00    +0.124 A 
ATOM     11  N   UNL     1       3.660  -0.681  -2.388  0.00  0.00    -0.384 N 
ATOM     12  N   UNL     1       3.622  -0.653  -0.036  0.00  0.00    -0.274 N 
ATOM     13  H   UNL     1       2.697  -0.150  -2.405  0.00  0.00    +0.157 HD
ATOM     14  H   UNL     1       4.153  -0.956  -3.331  0.00  0.00    +0.157 HD
ENDROOT
BRANCH  12  15
ATOM     15  C   UNL     1       2.396   0.024  -0.021  0.00  0.00    +0.055 A 
ATOM     16  C   UNL     1       2.368   1.413  -0.017  0.00  0.00    +0.026 A 
ATOM     17  C   UNL     1       1.158   2.078  -0.002  0.00  0.00    +0.003 A 
ATOM     18  C   UNL     1      -0.025   1.364   0.010  0.00  0.00    +0.020 A 
ATOM     19  C   UNL     1      -0.002  -0.020   0.006  0.00  0.00    +0.046 A 
ATOM     20  C   UNL     1       1.207  -0.691  -0.009  0.00  0.00    -0.008 A 
ATOM     21  C   UNL     1       1.233  -2.198  -0.014  0.00  0.00    +0.047 C 
ATOM     22 CL   UNL     1      -1.490  -0.913   0.021  0.00  0.00    -0.083 Cl
ENDBRANCH  12  15
BRANCH   1  23
ATOM     23  S   UNL     1       3.456  -0.551   2.656  0.00  0.00    -0.078 S 
BRANCH  23  24
ATOM     24  C   UNL     1       4.662  -1.212   3.833  0.00  0.00    +0.173 C 
BRANCH  24  26
ATOM     25  N   UNL     1       4.932  -1.352   6.288  0.00  0.00    -0.312 N 
ATOM     26  C   UNL     1       4.189  -0.946   5.239  0.00  0.00    +0.224 C 
ATOM     27  O   UNL     1       3.141  -0.366   5.427  0.00  0.00    -0.275 OA
ATOM     28  H   UNL     1       5.883  -1.878   6.117  0.00  0.00    +0.149 HD
BRANCH  25  29
ATOM     29  C   UNL     1       4.473  -1.093   7.655  0.00  0.00    +0.070 C 
ATOM     30  C   UNL     1       3.516  -2.205   8.090  0.00  0.00    +0.028 C 
BRANCH  29  32
ATOM     31  C   UNL     1       6.571   0.130   8.241  0.00  0.00    +0.005 C 
ATOM     32  C   UNL     1       5.676  -1.058   8.599  0.00  0.00    +0.018 C 
ENDBRANCH  29  32
ENDBRANCH  25  29
ENDBRANCH  24  26
ENDBRANCH  23  24
ENDBRANCH   1  23
TORSDOF 6
