REMARK  Name = ZINC04395685
REMARK  5 active torsions:
REMARK  status: ('A' for Active; 'I' for Inactive)
REMARK    1  A    between atoms: C_1  and  N_51
REMARK    2  A    between atoms: N_4  and  S_7
REMARK    3  A    between atoms: S_7  and  C_10
REMARK    4  A    between atoms: C_13  and  N_16
REMARK    5  A    between atoms: C_17  and  C_19
REMARK                            x       y       z     vdW  Elec       q    Type
REMARK                         _______ _______ _______ _____ _____    ______ ____
ROOT
ATOM      1  C   UNL     1       0.212   0.436   3.558  0.00  0.00    +0.106 A 
ATOM      2  C   UNL     1       1.123  -0.603   3.493  0.00  0.00    +0.030 A 
ATOM      3  C   UNL     1       2.186  -0.647   4.373  0.00  0.00    +0.025 A 
ATOM      4  C   UNL     1       2.334   0.347   5.332  0.00  0.00    +0.034 A 
ATOM      5  C   UNL     1       1.414   1.386   5.398  0.00  0.00    +0.025 A 
ATOM      6  C   UNL     1       0.356   1.427   4.512  0.00  0.00    +0.030 A 
ENDROOT
BRANCH   4   7
ATOM      7  N   UNL     1       3.407   0.303   6.228  0.00  0.00    -0.281 N 
ATOM      8  C   UNL     1       4.593  -0.201   5.834  0.00  0.00    +0.255 C 
ATOM      9  O   UNL     1       4.760  -0.529   4.675  0.00  0.00    -0.270 OA
ATOM     10  H   UNL     1       3.297   0.635   7.132  0.00  0.00    +0.155 HD
BRANCH   8  11
ATOM     11  C   UNL     1       5.687  -0.355   6.807  0.00  0.00    +0.122 A 
ATOM     12  C   UNL     1       5.512   0.019   8.129  0.00  0.00    +0.031 A 
ATOM     13  C   UNL     1       6.591  -0.151   9.033  0.00  0.00    +0.019 A 
ATOM     14  C   UNL     1       6.447   0.213  10.380  0.00  0.00    +0.026 A 
ATOM     15  C   UNL     1       7.492   0.051  11.244  0.00  0.00    +0.019 A 
ATOM     16  C   UNL     1       8.699  -0.472  10.799  0.00  0.00    +0.019 A 
ATOM     17  C   UNL     1       8.862  -0.837   9.480  0.00  0.00    +0.048 A 
ATOM     18  C   UNL     1       7.813  -0.681   8.580  0.00  0.00    +0.139 A 
ATOM     19  O   UNL     1       7.976  -1.039   7.288  0.00  0.00    -0.422 OA
ATOM     20  C   UNL     1       6.984  -0.903   6.393  0.00  0.00    +0.350 A 
ATOM     21  O   UNL     1       7.161  -1.234   5.236  0.00  0.00    -0.244 OA
ATOM     22 BR   UNL     1       7.294   0.543  13.059  0.00  0.00    -0.050 Br
ENDBRANCH   8  11
ENDBRANCH   4   7
BRANCH   1  23
ATOM     23  S   UNL     1      -1.140   0.492   2.429  0.00  0.00    +0.061 S 
ATOM     24  O   UNL     1      -2.157   1.264   3.052  0.00  0.00    -0.153 OA
ATOM     25  O   UNL     1      -1.357  -0.842   1.989  0.00  0.00    -0.153 OA
BRANCH  23  29
ATOM     26  C   UNL     1      -1.254   3.028  -2.695  0.00  0.00    -0.096 C 
ATOM     27  C   UNL     1      -0.716   1.108  -1.321  0.00  0.00    -0.062 C 
ATOM     28  C   UNL     1      -0.002   0.676  -0.036  0.00  0.00    +0.091 C 
ATOM     29  N   UNL     1      -0.637   1.351   1.106  0.00  0.00    -0.180 NA
ATOM     30  C   UNL     1      -0.818   2.810   1.038  0.00  0.00    +0.091 C 
ATOM     31  C   UNL     1      -1.500   3.158  -0.289  0.00  0.00    -0.062 C 
ATOM     32  N   UNL     1      -0.704   2.585  -1.397  0.00  0.00    +0.380 N 
ATOM     33  H   UNL     1       0.265   2.915  -1.315  0.00  0.00    -0.082 HD
ENDBRANCH  23  29
ENDBRANCH   1  23
TORSDOF 4
