REMARK  Name = ZINC08868876
REMARK  10 active torsions:
REMARK  status: ('A' for Active; 'I' for Inactive)
REMARK    1  A    between atoms: C_1  and  C_2
REMARK    2  A    between atoms: C_2  and  C_3
REMARK    3  A    between atoms: C_2  and  N_62
REMARK    4  A    between atoms: C_9  and  N_15
REMARK    5  A    between atoms: C_10  and  C_11
REMARK    6  A    between atoms: C_11  and  O_13
REMARK    7  A    between atoms: O_13  and  C_14
REMARK    8  A    between atoms: C_16  and  C_18
REMARK    9  A    between atoms: N_23  and  S_24
REMARK   10  A    between atoms: S_24  and  C_27
REMARK                            x       y       z     vdW  Elec       q    Type
REMARK                         _______ _______ _______ _____ _____    ______ ____
ROOT
ATOM      1  N   UNL     1      -1.637   2.574   7.101  0.00  0.00    -0.278 N 
ATOM      2  C   UNL     1      -1.075   2.094   8.229  0.00  0.00    +0.236 C 
ATOM      3  O   UNL     1      -0.070   1.418   8.165  0.00  0.00    -0.274 OA
ATOM      4  H   UNL     1      -2.441   3.114   7.152  0.00  0.00    +0.155 HD
ENDROOT
BRANCH   1  10
ATOM      5  C   UNL     1       0.235   2.365   1.183  0.00  0.00    -0.073 C 
ATOM      6  C   UNL     1      -1.024   2.611   2.019  0.00  0.00    +0.018 C 
ATOM      7  C   UNL     1      -0.706   2.266   3.469  0.00  0.00    -0.025 A 
ATOM      8  C   UNL     1       0.373   1.507   3.765  0.00  0.00    -0.021 A 
ATOM      9  S   UNL     1       0.355   1.364   5.527  0.00  0.00    -0.079 S 
ATOM     10  C   UNL     1      -1.066   2.296   5.870  0.00  0.00    +0.086 A 
ATOM     11  C   UNL     1      -1.493   2.697   4.609  0.00  0.00    +0.091 A 
ATOM     12  C   UNL     1       1.349   0.931   2.787  0.00  0.00    -0.035 C 
ATOM     13  N   UNL     1       0.734   0.998   1.439  0.00  0.00    +0.384 N 
ATOM     14  H   UNL     1      -0.054   0.341   1.399  0.00  0.00    -0.081 HD
BRANCH  13  16
ATOM     15  C   UNL     1       2.245  -0.788   0.711  0.00  0.00    -0.014 C 
ATOM     16  C   UNL     1       1.727   0.620   0.411  0.00  0.00    -0.074 C 
ATOM     17  C   UNL     1       2.898   1.605   0.411  0.00  0.00    -0.014 C 
ENDBRANCH  13  16
BRANCH  11  18
ATOM     18  C   UNL     1      -2.690   3.522   4.439  0.00  0.00    +0.342 C 
ATOM     19  O   UNL     1      -3.776   2.995   4.291  0.00  0.00    -0.245 OA
BRANCH  18  20
ATOM     20  O   UNL     1      -2.589   4.867   4.447  0.00  0.00    -0.464 OA
ATOM     21  C   UNL     1      -3.817   5.622   4.273  0.00  0.00    +0.280 C 
ENDBRANCH  18  20
ENDBRANCH  11  18
ENDBRANCH   1  10
BRANCH   2  22
ATOM     22  C   UNL     1      -1.697   2.396   9.568  0.00  0.00    +0.166 C 
ATOM     23  C   UNL     1      -1.128   3.718  10.124  0.00  0.00    +0.031 C 
ATOM     24  C   UNL     1      -0.988   3.422  11.643  0.00  0.00    +0.019 C 
ATOM     25  C   UNL     1      -0.586   1.926  11.634  0.00  0.00    +0.110 C 
ATOM     26  N   UNL     1      -1.358   1.334  10.527  0.00  0.00    -0.165 NA
BRANCH  26  27
ATOM     27  S   UNL     1      -1.777  -0.262  10.387  0.00  0.00    +0.062 S 
ATOM     28  O   UNL     1      -2.123  -0.473   9.025  0.00  0.00    -0.153 OA
ATOM     29  O   UNL     1      -0.758  -1.008  11.039  0.00  0.00    -0.153 OA
BRANCH  27  30
ATOM     30  C   UNL     1      -3.251  -0.498  11.323  0.00  0.00    +0.106 A 
ATOM     31  C   UNL     1      -3.173  -0.769  12.677  0.00  0.00    +0.031 A 
ATOM     32  C   UNL     1      -4.329  -0.950  13.413  0.00  0.00    +0.040 A 
ATOM     33  C   UNL     1      -5.564  -0.870  12.793  0.00  0.00    +0.124 A 
ATOM     34  C   UNL     1      -5.640  -0.604  11.436  0.00  0.00    +0.040 A 
ATOM     35  C   UNL     1      -4.483  -0.418  10.703  0.00  0.00    +0.031 A 
ATOM     36  F   UNL     1      -6.694  -1.052  13.510  0.00  0.00    -0.205 F 
ENDBRANCH  27  30
ENDBRANCH  26  27
ENDBRANCH   2  22
TORSDOF 7
