REMARK  Name = ZINC03635852
REMARK  17 active torsions:
REMARK  status: ('A' for Active; 'I' for Inactive)
REMARK    1  A    between atoms: C_1  and  C_2
REMARK    2  A    between atoms: C_2  and  O_3
REMARK    3  A    between atoms: O_3  and  C_4
REMARK    4  A    between atoms: C_4  and  C_6
REMARK    5  A    between atoms: C_7  and  C_38
REMARK    6  A    between atoms: N_8  and  C_31
REMARK    7  A    between atoms: C_12  and  O_15
REMARK    8  A    between atoms: O_15  and  C_16
REMARK    9  A    between atoms: C_16  and  C_17
REMARK   10  A    between atoms: C_17  and  C_19
REMARK   11  A    between atoms: C_17  and  O_30
REMARK   12  A    between atoms: C_19  and  N_20
REMARK   13  A    between atoms: N_20  and  C_21
REMARK   14  A    between atoms: C_24  and  C_27
REMARK   15  A    between atoms: C_27  and  C_28
REMARK   16  A    between atoms: C_27  and  C_29
REMARK   17  A    between atoms: C_34  and  C_37
REMARK                            x       y       z     vdW  Elec       q    Type
REMARK                         _______ _______ _______ _____ _____    ______ ____
ROOT
ATOM      1  C   UNL     1      -6.294   0.819  -3.934  0.00  0.00    +0.088 A 
ATOM      2  C   UNL     1      -6.540   1.504  -5.089  0.00  0.00    +0.036 A 
ATOM      3  N   UNL     1      -5.457   2.250  -5.418  0.00  0.00    -0.312 N 
ATOM      4  C   UNL     1      -4.452   2.080  -4.482  0.00  0.00    +0.055 A 
ATOM      5  C   UNL     1      -4.927   1.181  -3.514  0.00  0.00    +0.018 A 
ATOM      6  C   UNL     1      -4.120   0.821  -2.439  0.00  0.00    +0.056 A 
ATOM      7  C   UNL     1      -2.848   1.353  -2.330  0.00  0.00    +0.121 A 
ATOM      8  C   UNL     1      -2.381   2.249  -3.287  0.00  0.00    +0.048 A 
ATOM      9  C   UNL     1      -3.171   2.606  -4.358  0.00  0.00    +0.030 A 
ATOM     10  C   UNL     1      -7.821   1.439  -5.879  0.00  0.00    +0.065 C 
ENDROOT
BRANCH   3  11
ATOM     11  C   UNL     1      -5.368   3.075  -6.546  0.00  0.00    +0.047 A 
ATOM     12  C   UNL     1      -4.449   2.788  -7.548  0.00  0.00    +0.026 A 
ATOM     13  C   UNL     1      -4.368   3.600  -8.661  0.00  0.00    +0.005 A 
ATOM     14  C   UNL     1      -5.191   4.705  -8.775  0.00  0.00    -0.050 A 
ATOM     15  C   UNL     1      -6.102   4.998  -7.776  0.00  0.00    +0.005 A 
ATOM     16  C   UNL     1      -6.193   4.186  -6.663  0.00  0.00    +0.026 A 
ATOM     17  C   UNL     1      -5.095   5.594  -9.988  0.00  0.00    +0.044 C 
ENDBRANCH   3  11
BRANCH   1  18
ATOM     18  C   UNL     1      -7.210  -0.098  -3.245  0.00  0.00    +0.342 C 
ATOM     19  O   UNL     1      -7.974   0.327  -2.401  0.00  0.00    -0.245 OA
BRANCH  18  20
ATOM     20  O   UNL     1      -7.203  -1.411  -3.549  0.00  0.00    -0.461 OA
BRANCH  20  22
ATOM     21  C   UNL     1      -7.983  -3.705  -3.304  0.00  0.00    +0.048 C 
ATOM     22  C   UNL     1      -8.136  -2.259  -2.828  0.00  0.00    +0.229 C 
ENDBRANCH  20  22
ENDBRANCH  18  20
ENDBRANCH   1  18
BRANCH   7  23
ATOM     23  O   UNL     1      -2.054   1.005  -1.282  0.00  0.00    -0.489 OA
BRANCH  23  24
ATOM     24  C   UNL     1      -0.753   1.593  -1.232  0.00  0.00    +0.261 C 
BRANCH  24  25
ATOM     25  C   UNL     1      -0.013   1.086   0.008  0.00  0.00    +0.169 C 
BRANCH  25  26
ATOM     26  O   UNL     1      -0.682   1.547   1.184  0.00  0.00    -0.387 OA
ATOM     27  H   UNL     1      -0.732   2.510   1.256  0.00  0.00    +0.210 HD
ENDBRANCH  25  26
BRANCH  25  28
ATOM     28  C   UNL     1       1.423   1.615  -0.003  0.00  0.00    +0.136 C 
BRANCH  28  29
ATOM     29  N   UNL     1       2.166   1.035   1.118  0.00  0.00    -0.341 N 
ATOM     30  H   UNL     1       1.726   0.417   1.723  0.00  0.00    +0.146 HD
BRANCH  29  31
ATOM     31  C   UNL     1       3.507   1.372   1.317  0.00  0.00    +0.027 A 
ATOM     32  C   UNL     1       4.139   2.253   0.448  0.00  0.00    +0.023 A 
ATOM     33  C   UNL     1       5.464   2.587   0.649  0.00  0.00    +0.006 A 
ATOM     34  C   UNL     1       6.163   2.038   1.708  0.00  0.00    -0.045 A 
ATOM     35  C   UNL     1       5.539   1.157   2.572  0.00  0.00    +0.006 A 
ATOM     36  C   UNL     1       4.213   0.823   2.379  0.00  0.00    +0.023 A 
BRANCH  34  37
ATOM     37  C   UNL     1       7.610   2.402   1.922  0.00  0.00    +0.013 C 
ATOM     38  C   UNL     1       8.425   1.999   0.691  0.00  0.00    +0.012 C 
ATOM     39  C   UNL     1       7.730   3.912   2.140  0.00  0.00    +0.012 C 
ENDBRANCH  34  37
ENDBRANCH  29  31
ENDBRANCH  28  29
ENDBRANCH  25  28
ENDBRANCH  24  25
ENDBRANCH  23  24
ENDBRANCH   7  23
TORSDOF 12
