REMARK  Name = ZINC12881279
REMARK  4 active torsions:
REMARK  status: ('A' for Active; 'I' for Inactive)
REMARK    1  A    between atoms: C_1  and  O_2
REMARK    2  A    between atoms: O_2  and  C_3
REMARK    3  A    between atoms: C_7  and  C_9
REMARK    4  A    between atoms: C_9  and  C_11
REMARK                            x       y       z     vdW  Elec       q    Type
REMARK                         _______ _______ _______ _____ _____    ______ ____
ROOT
ATOM      1  C   UNL     1       0.613  -4.242   0.685  0.00  0.00    +0.066 C 
ATOM      2  C   UNL     1       0.101  -3.933  -0.745  0.00  0.00    -0.055 C 
ATOM      3  C   UNL     1       0.325  -5.163  -1.638  0.00  0.00    -0.016 C 
ATOM      4  C   UNL     1       1.365  -4.716  -2.691  0.00  0.00    -0.020 C 
ATOM      5  C   UNL     1       2.082  -3.537  -1.989  0.00  0.00    -0.076 C 
ATOM      6  C   UNL     1       1.556  -2.151  -0.082  0.00  0.00    +0.060 C 
ATOM      7  C   UNL     1       1.031  -2.841   1.173  0.00  0.00    +0.085 C 
ATOM      8  C   UNL     1       2.064  -2.921   2.258  0.00  0.00    -0.011 A 
ATOM      9  C   UNL     1       3.329  -3.461   2.329  0.00  0.00    +0.006 A 
ATOM     10  C   UNL     1       4.055  -3.372   3.503  0.00  0.00    +0.000 A 
ATOM     11  C   UNL     1       3.509  -2.739   4.605  0.00  0.00    +0.002 A 
ATOM     12  C   UNL     1       2.242  -2.197   4.538  0.00  0.00    +0.023 A 
ATOM     13  C   UNL     1       1.504  -2.281   3.361  0.00  0.00    +0.038 A 
ATOM     14  N   UNL     1       0.223  -1.817   3.051  0.00  0.00    -0.285 N 
ATOM     15  C   UNL     1      -0.129  -2.107   1.783  0.00  0.00    +0.228 C 
ATOM     16  O   UNL     1      -1.178  -1.830   1.240  0.00  0.00    -0.275 OA
ATOM     17  C   UNL     1       1.189  -0.692  -0.099  0.00  0.00    -0.025 A 
ATOM     18  C   UNL     1      -0.013  -0.020  -0.079  0.00  0.00    +0.024 A 
ATOM     19  C   UNL     1      -0.033   1.364  -0.100  0.00  0.00    +0.041 A 
ATOM     20  C   UNL     1       1.157   2.069  -0.143  0.00  0.00    +0.022 A 
ATOM     21  C   UNL     1       2.363   1.399  -0.166  0.00  0.00    +0.025 A 
ATOM     22  C   UNL     1       2.391   0.006  -0.143  0.00  0.00    +0.036 A 
ATOM     23  N   UNL     1       3.466  -0.885  -0.157  0.00  0.00    -0.286 N 
ATOM     24  C   UNL     1       3.063  -2.168  -0.123  0.00  0.00    +0.212 C 
ATOM     25  O   UNL     1       3.775  -3.150  -0.125  0.00  0.00    -0.277 OA
ATOM     26 CL   UNL     1      -1.547   2.213  -0.081  0.00  0.00    -0.084 Cl
ATOM     27  H   UNL     1      -0.346  -1.342   3.676  0.00  0.00    +0.155 HD
ATOM     28  H   UNL     1       4.396  -0.610  -0.188  0.00  0.00    +0.155 HD
ATOM     29  N   UNL     1       0.995  -2.886  -1.235  0.00  0.00    +0.395 N 
ATOM     30  H   UNL     1       0.482  -2.238  -1.844  0.00  0.00    -0.079 HD
ENDROOT
BRANCH   1  31
ATOM     31  C   UNL     1       1.794  -5.176   0.646  0.00  0.00    +0.166 C 
ATOM     32  O   UNL     1       2.427  -5.312  -0.379  0.00  0.00    -0.292 OA
BRANCH  31  37
ATOM     33  C   UNL     1       3.632  -7.492   2.961  0.00  0.00    +0.121 A 
ATOM     34  C   UNL     1       2.903  -7.331   4.132  0.00  0.00    +0.045 A 
ATOM     35  C   UNL     1       1.819  -6.473   4.167  0.00  0.00    +0.004 A 
ATOM     36  C   UNL     1       1.456  -5.766   3.039  0.00  0.00    +0.011 A 
ATOM     37  C   UNL     1       2.180  -5.925   1.853  0.00  0.00    +0.021 A 
ATOM     38  C   UNL     1       3.276  -6.792   1.821  0.00  0.00    +0.057 A 
BRANCH  33  40
ATOM     39  C   UNL     1       5.008  -9.026   4.146  0.00  0.00    +0.277 C 
ATOM     40  O   UNL     1       4.697  -8.336   2.934  0.00  0.00    -0.495 OA
ENDBRANCH  33  40
ENDBRANCH  31  37
ENDBRANCH   1  31
TORSDOF 3
