REMARK  Name = ZINC66704499
REMARK  7 active torsions:
REMARK  status: ('A' for Active; 'I' for Inactive)
REMARK    1  A    between atoms: C_1  and  N_2
REMARK    2  A    between atoms: C_6  and  C_9
REMARK    3  A    between atoms: C_9  and  N_10
REMARK    4  A    between atoms: N_13  and  C_14
REMARK    5  A    between atoms: C_14  and  C_15
REMARK    6  A    between atoms: C_15  and  C_16
REMARK    7  A    between atoms: C_16  and  C_17
REMARK                            x       y       z     vdW  Elec       q    Type
REMARK                         _______ _______ _______ _____ _____    ______ ____
ROOT
ATOM      1  N   UNL     1       1.265  -3.976   2.567  0.00  0.00    -0.299 N 
ATOM      2  C   UNL     1       1.841  -4.643   3.587  0.00  0.00    +0.300 C 
ATOM      3  O   UNL     1       2.478  -4.037   4.427  0.00  0.00    -0.253 OA
ATOM      4  N   UNL     1       1.709  -5.981   3.677  0.00  0.00    -0.299 N 
ATOM      5  H   UNL     1       0.757  -4.459   1.897  0.00  0.00    +0.150 HD
ATOM      6  H   UNL     1       1.201  -6.465   3.007  0.00  0.00    +0.150 HD
ENDROOT
BRANCH   1   7
ATOM      7  C   UNL     1       1.408  -2.521   2.470  0.00  0.00    +0.107 C 
BRANCH   7  13
ATOM      8  C   UNL     1      -0.018   1.465   0.010  0.00  0.00    -0.096 C 
ATOM      9  N   UNL     1       0.002  -0.004   0.002  0.00  0.00    +0.378 N 
ATOM     10  C   UNL     1       0.681  -0.476  -1.210  0.00  0.00    -0.079 C 
ATOM     11  C   UNL     1       0.634  -2.005  -1.264  0.00  0.00    -0.018 C 
ATOM     12  C   UNL     1       1.336  -2.575  -0.029  0.00  0.00    +0.001 C 
ATOM     13  C   UNL     1       0.666  -2.018   1.230  0.00  0.00    -0.011 C 
ATOM     14  C   UNL     1       0.712  -0.489   1.192  0.00  0.00    -0.074 C 
ATOM     15  H   UNL     1      -0.945  -0.352   0.012  0.00  0.00    -0.082 HD
ENDBRANCH   7  13
ENDBRANCH   1   7
BRANCH   4  16
ATOM     16  C   UNL     1       2.335  -6.706   4.786  0.00  0.00    +0.106 C 
BRANCH  16  17
ATOM     17  C   UNL     1       2.034  -8.200   4.653  0.00  0.00    +0.023 C 
BRANCH  17  18
ATOM     18  C   UNL     1       2.688  -8.957   5.811  0.00  0.00    +0.036 C 
BRANCH  18  19
ATOM     19  C   UNL     1       2.392 -10.429   5.679  0.00  0.00    -0.046 A 
ATOM     20  C   UNL     1       1.259 -10.962   6.267  0.00  0.00    +0.004 A 
ATOM     21  C   UNL     1       0.988 -12.312   6.146  0.00  0.00    +0.001 A 
ATOM     22  C   UNL     1       1.849 -13.130   5.439  0.00  0.00    +0.015 A 
ATOM     23  C   UNL     1       2.981 -12.597   4.850  0.00  0.00    +0.018 A 
ATOM     24  C   UNL     1       3.250 -11.245   4.967  0.00  0.00    +0.019 A 
ATOM     25 BR   UNL     1       4.159 -13.716   3.882  0.00  0.00    -0.050 Br
ENDBRANCH  18  19
ENDBRANCH  17  18
ENDBRANCH  16  17
ENDBRANCH   4  16
TORSDOF 6
