REMARK  Name = ZINC59073402
REMARK  12 active torsions:
REMARK  status: ('A' for Active; 'I' for Inactive)
REMARK    1  A    between atoms: C_1  and  C_2
REMARK    2  A    between atoms: C_2  and  C_3
REMARK    3  A    between atoms: C_3  and  C_4
REMARK    4  A    between atoms: C_4  and  N_5
REMARK    5  A    between atoms: C_6  and  C_8
REMARK    6  A    between atoms: C_8  and  N_20
REMARK    7  A    between atoms: C_9  and  C_10
REMARK    8  A    between atoms: C_13  and  O_16
REMARK    9  A    between atoms: O_16  and  C_17
REMARK   10  A    between atoms: C_17  and  C_18
REMARK   11  A    between atoms: C_17  and  C_19
REMARK   12  A    between atoms: C_21  and  C_23
REMARK                            x       y       z     vdW  Elec       q    Type
REMARK                         _______ _______ _______ _____ _____    ______ ____
ROOT
ATOM      1  C   UNL     1      -4.379  -4.228   0.132  0.00  0.00    +0.097 C 
ATOM      2  C   UNL     1      -4.448  -5.579   0.192  0.00  0.00    +0.036 C 
ENDROOT
BRANCH   2   3
ATOM      3  C   UNL     1      -5.754  -6.245   0.290  0.00  0.00    -0.023 A 
ATOM      4  C   UNL     1      -6.894  -5.639  -0.252  0.00  0.00    +0.011 A 
ATOM      5  C   UNL     1      -8.116  -6.267  -0.157  0.00  0.00    +0.046 A 
ATOM      6  C   UNL     1      -8.218  -7.501   0.475  0.00  0.00    +0.121 A 
ATOM      7  C   UNL     1      -7.090  -8.107   1.015  0.00  0.00    +0.046 A 
ATOM      8  C   UNL     1      -5.863  -7.489   0.921  0.00  0.00    +0.011 A 
BRANCH   6   9
ATOM      9  O   UNL     1      -9.426  -8.116   0.566  0.00  0.00    -0.489 OA
BRANCH   9  10
ATOM     10  C   UNL     1     -10.555  -7.408   0.050  0.00  0.00    +0.167 C 
ATOM     11  C   UNL     1     -11.672  -8.400  -0.278  0.00  0.00    +0.051 C 
ATOM     12  C   UNL     1     -11.052  -6.408   1.097  0.00  0.00    +0.051 C 
ENDBRANCH   9  10
ENDBRANCH   6   9
ENDBRANCH   2   3
BRANCH   1  14
ATOM     13  N   UNL     1      -3.003  -2.216   0.028  0.00  0.00    -0.310 N 
ATOM     14  C   UNL     1      -3.072  -3.561   0.088  0.00  0.00    +0.258 C 
ATOM     15  O   UNL     1      -2.050  -4.222   0.106  0.00  0.00    -0.269 OA
ATOM     16  H   UNL     1      -3.817  -1.689   0.013  0.00  0.00    +0.149 HD
BRANCH  13  17
ATOM     17  C   UNL     1      -1.699  -1.550  -0.016  0.00  0.00    +0.104 C 
BRANCH  17  18
ATOM     18  C   UNL     1      -1.902  -0.035  -0.081  0.00  0.00    +0.018 C 
BRANCH  18  20
ATOM     19  C   UNL     1      -0.743   2.175  -0.191  0.00  0.00    +0.004 C 
ATOM     20  C   UNL     1      -0.540   0.660  -0.127  0.00  0.00    -0.002 C 
ENDBRANCH  18  20
ENDBRANCH  17  18
ENDBRANCH  13  17
ENDBRANCH   1  14
BRANCH   1  21
ATOM     21  N   UNL     1      -5.554  -3.468   0.111  0.00  0.00    -0.277 N 
ATOM     22  C   UNL     1      -5.793  -2.627  -0.914  0.00  0.00    +0.249 C 
ATOM     23  O   UNL     1      -5.032  -2.590  -1.861  0.00  0.00    -0.270 OA
ATOM     24  H   UNL     1      -6.195  -3.547   0.834  0.00  0.00    +0.155 HD
BRANCH  22  25
ATOM     25  C   UNL     1      -6.982  -1.749  -0.887  0.00  0.00    +0.050 A 
ATOM     26  C   UNL     1      -7.786  -1.692   0.254  0.00  0.00    +0.014 A 
ATOM     27  C   UNL     1      -8.893  -0.871   0.273  0.00  0.00    +0.001 A 
ATOM     28  C   UNL     1      -9.210  -0.103  -0.835  0.00  0.00    +0.001 A 
ATOM     29  C   UNL     1      -8.418  -0.155  -1.968  0.00  0.00    +0.015 A 
ATOM     30  C   UNL     1      -7.303  -0.968  -1.999  0.00  0.00    +0.025 A 
ATOM     31  I   UNL     1      -6.100  -1.037  -3.713  0.00  0.00    -0.043 I 
ENDBRANCH  22  25
ENDBRANCH   1  21
TORSDOF 9
