REMARK  Name = ZINC67493552
REMARK  10 active torsions:
REMARK  status: ('A' for Active; 'I' for Inactive)
REMARK    1  A    between atoms: C_1  and  C_2
REMARK    2  A    between atoms: C_2  and  C_3
REMARK    3  A    between atoms: C_3  and  N_4
REMARK    4  A    between atoms: C_10  and  N_13
REMARK    5  A    between atoms: C_14  and  C_16
REMARK    6  A    between atoms: N_18  and  C_19
REMARK    7  A    between atoms: C_19  and  C_21
REMARK    8  A    between atoms: C_19  and  C_28
REMARK    9  A    between atoms: C_28  and  C_29
REMARK   10  A    between atoms: C_28  and  C_30
REMARK                            x       y       z     vdW  Elec       q    Type
REMARK                         _______ _______ _______ _____ _____    ______ ____
ROOT
ATOM      1  N   UNL     1       2.009  -2.753  -5.457  0.00  0.00    -0.278 N 
ATOM      2  C   UNL     1       2.188  -2.981  -6.774  0.00  0.00    +0.303 C 
ATOM      3  O   UNL     1       1.227  -3.112  -7.503  0.00  0.00    -0.265 OA
ATOM      4  H   UNL     1       2.772  -2.568  -4.889  0.00  0.00    +0.155 HD
ENDROOT
BRANCH   1  11
ATOM      5  N   UNL     1       0.368  -0.411  -2.047  0.00  0.00    +0.385 N 
ATOM      6  C   UNL     1      -0.839  -1.264  -1.959  0.00  0.00    -0.042 C 
ATOM      7  C   UNL     1      -0.831  -2.113  -3.211  0.00  0.00    -0.061 A 
ATOM      8  C   UNL     1      -1.825  -2.846  -3.832  0.00  0.00    +0.002 A 
ATOM      9  C   UNL     1      -1.549  -3.548  -4.991  0.00  0.00    +0.002 A 
ATOM     10  C   UNL     1      -0.279  -3.520  -5.533  0.00  0.00    +0.023 A 
ATOM     11  C   UNL     1       0.722  -2.784  -4.912  0.00  0.00    +0.035 A 
ATOM     12  C   UNL     1       0.443  -2.080  -3.748  0.00  0.00    -0.041 A 
ATOM     13  C   UNL     1       1.308  -1.209  -2.866  0.00  0.00    -0.040 C 
ATOM     14  H   UNL     1       0.752  -0.243  -1.129  0.00  0.00    -0.081 HD
BRANCH   5  15
ATOM     15  C   UNL     1       0.054   0.859  -2.714  0.00  0.00    -0.078 C 
BRANCH  15  17
ATOM     16  C   UNL     1      -1.145   3.040  -2.489  0.00  0.00    +0.002 C 
ATOM     17  C   UNL     1      -0.818   1.717  -1.794  0.00  0.00    -0.022 C 
ENDBRANCH  15  17
ENDBRANCH   5  15
ENDBRANCH   1  11
BRANCH   2  18
ATOM     18  C   UNL     1       3.569  -3.070  -7.335  0.00  0.00    +0.300 C 
ATOM     19  O   UNL     1       4.530  -2.938  -6.605  0.00  0.00    -0.265 OA
ATOM     20  N   UNL     1       3.748  -3.297  -8.651  0.00  0.00    -0.301 N 
ATOM     21  H   UNL     1       2.981  -3.403  -9.234  0.00  0.00    +0.150 HD
BRANCH  20  22
ATOM     22  C   UNL     1       5.103  -3.385  -9.201  0.00  0.00    +0.106 C 
BRANCH  22  23
ATOM     23  C   UNL     1       5.075  -3.030 -10.665  0.00  0.00    -0.027 A 
ATOM     24  C   UNL     1       4.033  -3.467 -11.462  0.00  0.00    +0.008 A 
ATOM     25  C   UNL     1       4.006  -3.141 -12.805  0.00  0.00    +0.038 A 
ATOM     26  C   UNL     1       5.022  -2.377 -13.352  0.00  0.00    +0.123 A 
ATOM     27  C   UNL     1       6.065  -1.940 -12.553  0.00  0.00    +0.038 A 
ATOM     28  C   UNL     1       6.088  -2.262 -11.210  0.00  0.00    +0.008 A 
ATOM     29  F   UNL     1       4.997  -2.058 -14.665  0.00  0.00    -0.205 F 
ENDBRANCH  22  23
BRANCH  22  30
ATOM     30  C   UNL     1       5.631  -4.811  -9.033  0.00  0.00    +0.008 C 
ATOM     31  C   UNL     1       7.046  -4.903  -9.607  0.00  0.00    +0.009 C 
ATOM     32  C   UNL     1       5.660  -5.172  -7.546  0.00  0.00    +0.009 C 
ENDBRANCH  22  30
ENDBRANCH  20  22
ENDBRANCH   2  18
TORSDOF 7
