REMARK  Name = ZINC34747229
REMARK  8 active torsions:
REMARK  status: ('A' for Active; 'I' for Inactive)
REMARK    1  A    between atoms: C_1  and  C_2
REMARK    2  A    between atoms: C_2  and  C_3
REMARK    3  A    between atoms: C_3  and  C_4
REMARK    4  A    between atoms: C_4  and  N_5
REMARK    5  A    between atoms: N_24  and  C_25
REMARK    6  A    between atoms: C_25  and  C_26
REMARK    7  A    between atoms: N_28  and  C_29
REMARK    8  A    between atoms: C_34  and  C_35
REMARK                            x       y       z     vdW  Elec       q    Type
REMARK                         _______ _______ _______ _____ _____    ______ ____
ROOT
ATOM      1  N   UNL     1      -3.826  -1.675   0.100  0.00  0.00    +0.382 N 
ATOM      2  C   UNL     1      -5.271  -1.881   0.264  0.00  0.00    -0.060 C 
ATOM      3  C   UNL     1      -5.568  -3.382   0.334  0.00  0.00    +0.089 C 
ATOM      4  N   UNL     1      -4.994  -4.027  -0.857  0.00  0.00    -0.304 N 
ATOM      5  C   UNL     1      -3.589  -3.744  -1.190  0.00  0.00    +0.089 C 
ATOM      6  C   UNL     1      -3.386  -2.226  -1.189  0.00  0.00    -0.060 C 
ATOM      7  C   UNL     1      -5.748  -4.870  -1.635  0.00  0.00    +0.202 A 
ATOM      8  N   UNL     1      -6.511  -4.368  -2.584  0.00  0.00    -0.208 NA
ATOM      9  C   UNL     1      -7.251  -5.160  -3.352  0.00  0.00    +0.117 A 
ATOM     10  C   UNL     1      -7.259  -6.556  -3.196  0.00  0.00    +0.076 A 
ATOM     11  C   UNL     1      -8.125  -7.296  -4.116  0.00  0.00    -0.023 A 
ATOM     12  C   UNL     1      -8.824  -6.574  -5.015  0.00  0.00    -0.004 A 
ATOM     13  S   UNL     1      -8.378  -4.888  -4.696  0.00  0.00    -0.073 S 
ATOM     14  C   UNL     1      -9.771  -7.090  -6.055  0.00  0.00    +0.043 C 
ATOM     15  C   UNL     1      -9.555  -8.603  -6.199  0.00  0.00    +0.005 C 
ATOM     16  C   UNL     1      -9.526  -9.230  -4.802  0.00  0.00    +0.005 C 
ATOM     17  C   UNL     1      -8.246  -8.817  -4.074  0.00  0.00    +0.037 C 
ATOM     18  C   UNL     1      -6.420  -7.072  -2.158  0.00  0.00    +0.264 A 
ATOM     19  O   UNL     1      -6.362  -8.272  -1.950  0.00  0.00    -0.267 OA
ATOM     20  N   UNL     1      -5.692  -6.215  -1.419  0.00  0.00    -0.271 N 
ATOM     21  H   UNL     1      -3.336  -2.140   0.848  0.00  0.00    -0.082 HD
ENDROOT
BRANCH   1  22
ATOM     22  C   UNL     1      -3.530  -0.237   0.142  0.00  0.00    -0.079 C 
BRANCH  22  23
ATOM     23  C   UNL     1      -3.873   0.314   1.528  0.00  0.00    -0.019 C 
BRANCH  23  25
ATOM     24  C   UNL     1      -3.908   2.362   2.958  0.00  0.00    +0.004 C 
ATOM     25  C   UNL     1      -3.565   1.812   1.572  0.00  0.00    -0.005 C 
ENDBRANCH  23  25
ENDBRANCH  22  23
ENDBRANCH   1  22
BRANCH  20  26
ATOM     26  C   UNL     1      -4.827  -6.737  -0.359  0.00  0.00    +0.224 C 
BRANCH  26  27
ATOM     27  C   UNL     1      -5.634  -6.927   0.900  0.00  0.00    +0.237 C 
ATOM     28  O   UNL     1      -6.815  -6.653   0.910  0.00  0.00    -0.274 OA
ATOM     29  N   UNL     1      -5.043  -7.400   2.014  0.00  0.00    -0.284 N 
ATOM     30  H   UNL     1      -4.085  -7.558   2.026  0.00  0.00    +0.155 HD
BRANCH  29  31
ATOM     31  C   UNL     1      -5.809  -7.665   3.155  0.00  0.00    +0.036 A 
ATOM     32  C   UNL     1      -6.901  -6.863   3.461  0.00  0.00    +0.023 A 
ATOM     33  C   UNL     1      -7.656  -7.127   4.587  0.00  0.00    +0.002 A 
ATOM     34  C   UNL     1      -7.325  -8.188   5.410  0.00  0.00    +0.000 A 
ATOM     35  C   UNL     1      -6.239  -8.988   5.108  0.00  0.00    +0.005 A 
ATOM     36  C   UNL     1      -5.484  -8.733   3.979  0.00  0.00    -0.029 A 
ATOM     37  C   UNL     1      -4.304  -9.610   3.648  0.00  0.00    +0.045 C 
ENDBRANCH  29  31
ENDBRANCH  26  27
ENDBRANCH  20  26
TORSDOF 6
