REMARK  Name = ZINC16941990
REMARK  6 active torsions:
REMARK  status: ('A' for Active; 'I' for Inactive)
REMARK    1  A    between atoms: C_12  and  C_27
REMARK    2  A    between atoms: N_13  and  C1*_14
REMARK    3  A    between atoms: C2*_16  and  O2*_26
REMARK    4  A    between atoms: C3*_18  and  O3*_25
REMARK    5  A    between atoms: C4*_20  and  C5*_23
REMARK    6  A    between atoms: C5*_23  and  O5*_24
REMARK                            x       y       z     vdW  Elec       q    Type
REMARK                         _______ _______ _______ _____ _____    ______ ____
ROOT
ATOM      1  C   UNL     1      -4.321  -1.885  -5.152  0.00  0.00    +0.001 A 
ATOM      2  C   UNL     1      -3.689  -2.796  -4.306  0.00  0.00    +0.001 A 
ATOM      3  C   UNL     1      -2.823  -2.375  -3.345  0.00  0.00    +0.008 A 
ATOM      4  C   UNL     1      -2.558  -1.000  -3.199  0.00  0.00    -0.016 A 
ATOM      5  C   UNL     1      -1.670  -0.539  -2.217  0.00  0.00    +0.036 A 
ATOM      6  C   UNL     1      -1.428   0.810  -2.095  0.00  0.00    +0.072 A 
ATOM      7  C   UNL     1      -2.068   1.738  -2.948  0.00  0.00    +0.090 A 
ATOM      8  C   UNL     1      -2.953   1.297  -3.921  0.00  0.00    +0.038 A 
ATOM      9  C   UNL     1      -3.202  -0.073  -4.060  0.00  0.00    -0.016 A 
ATOM     10  C   UNL     1      -4.092  -0.550  -5.042  0.00  0.00    +0.008 A 
ATOM     11  N   UNL     1      -1.625   2.973  -2.588  0.00  0.00    -0.224 NA
ATOM     12  C   UNL     1      -0.787   2.868  -1.600  0.00  0.00    +0.218 A 
ATOM     13  N   UNL     1      -0.628   1.562  -1.251  0.00  0.00    -0.291 N 
ENDROOT
BRANCH  13  14
ATOM     14  C1* UNL     1       0.235   1.048  -0.184  0.00  0.00    +0.253 C 
ATOM     15  C2* UNL     1       1.462   0.339  -0.797  0.00  0.00    +0.195 C 
ATOM     16  C3* UNL     1       1.641  -0.883   0.144  0.00  0.00    +0.178 C 
ATOM     17  C4* UNL     1       0.166  -1.199   0.499  0.00  0.00    +0.177 C 
ATOM     18  O4* UNL     1      -0.480   0.080   0.594  0.00  0.00    -0.346 OA
BRANCH  16  19
ATOM     19  O3* UNL     1       2.251  -1.977  -0.542  0.00  0.00    -0.386 OA
ATOM     20  H3* UNL     1       2.286  -2.795  -0.028  0.00  0.00    +0.210 HD
ENDBRANCH  16  19
BRANCH  15  21
ATOM     21  O2* UNL     1       2.612   1.186  -0.754  0.00  0.00    -0.385 OA
ATOM     22  H2* UNL     1       3.409   0.786  -1.127  0.00  0.00    +0.210 HD
ENDBRANCH  15  21
BRANCH  17  23
ATOM     23  C5* UNL     1       0.087  -1.934   1.839  0.00  0.00    +0.190 C 
BRANCH  23  24
ATOM     24  O5* UNL     1      -1.274  -2.261   2.124  0.00  0.00    -0.392 OA
ATOM     25  H5* UNL     1      -1.399  -2.730   2.960  0.00  0.00    +0.210 HD
ENDBRANCH  23  24
ENDBRANCH  17  23
ENDBRANCH  13  14
BRANCH  12  26
ATOM     26  C   UNL     1      -0.090   4.028  -0.936  0.00  0.00    +0.451 C 
ATOM     27  F   UNL     1      -0.692   5.225  -1.337  0.00  0.00    -0.163 F 
ATOM     28  F   UNL     1      -0.191   3.898   0.453  0.00  0.00    -0.163 F 
ATOM     29  F   UNL     1       1.259   4.036  -1.307  0.00  0.00    -0.163 F 
ENDBRANCH  12  26
TORSDOF 6
