REMARK  Name = ZINC42954387
REMARK  7 active torsions:
REMARK  status: ('A' for Active; 'I' for Inactive)
REMARK    1  A    between atoms: C_1  and  C_2
REMARK    2  A    between atoms: C_2  and  C_4
REMARK    3  A    between atoms: C_2  and  N_21
REMARK    4  A    between atoms: C_4  and  C_6
REMARK    5  A    between atoms: C_4  and  N_13
REMARK    6  A    between atoms: C_18  and  C_19
REMARK    7  A    between atoms: C_18  and  C_20
REMARK                            x       y       z     vdW  Elec       q    Type
REMARK                         _______ _______ _______ _____ _____    ______ ____
ROOT
ATOM      1  C   UNL     1       1.331  -0.654   0.988  0.00  0.00    +0.073 C 
ENDROOT
BRANCH   1   2
ATOM      2  N   UNL     1       2.526   0.115   1.358  0.00  0.00    -0.288 NA
ATOM      3  C   UNL     1       2.620   1.353   0.572  0.00  0.00    +0.113 C 
ATOM      4  C   UNL     1       3.907   2.093   0.945  0.00  0.00    +0.175 C 
ATOM      5  O   UNL     1       3.916   2.344   2.353  0.00  0.00    -0.377 OA
ATOM      6  C   UNL     1       3.827   1.159   3.149  0.00  0.00    +0.181 C 
ATOM      7  C   UNL     1       2.538   0.410   2.798  0.00  0.00    +0.040 C 
ATOM      8  C   UNL     1       1.330   1.279   3.151  0.00  0.00    +0.030 C 
ATOM      9  C   UNL     1       2.476  -0.898   3.588  0.00  0.00    +0.030 C 
ENDBRANCH   1   2
BRANCH   1  10
ATOM     10  C   UNL     1       1.534  -2.103   1.350  0.00  0.00    -0.032 A 
ATOM     11  C   UNL     1       2.743  -2.718   1.087  0.00  0.00    +0.006 A 
ATOM     12  C   UNL     1       2.930  -4.047   1.419  0.00  0.00    +0.015 A 
ATOM     13  C   UNL     1       1.906  -4.761   2.016  0.00  0.00    +0.018 A 
ATOM     14  C   UNL     1       0.696  -4.145   2.280  0.00  0.00    +0.015 A 
ATOM     15  C   UNL     1       0.512  -2.815   1.952  0.00  0.00    +0.006 A 
ATOM     16 BR   UNL     1       2.161  -6.579   2.470  0.00  0.00    -0.050 Br
ENDBRANCH   1  10
BRANCH   1  18
ATOM     17  C   UNL     1       0.258   0.716  -0.804  0.00  0.00    -0.012 C 
ATOM     18  C   UNL     1       1.093  -0.534  -0.518  0.00  0.00    -0.056 C 
BRANCH  18  19
ATOM     19  N   UNL     1       0.374  -1.723  -0.997  0.00  0.00    +0.381 N 
ATOM     20  H   UNL     1       0.925  -2.547  -0.808  0.00  0.00    -0.090 HD
ATOM     21  H   UNL     1      -0.512  -1.794  -0.521  0.00  0.00    -0.090 HD
ATOM     22  H   UNL     1       0.217  -1.643  -1.991  0.00  0.00    -0.090 HD
ENDBRANCH  18  19
ENDBRANCH   1  18
TORSDOF 4
