REMARK  Name = ZINC35003083
REMARK  14 active torsions:
REMARK  status: ('A' for Active; 'I' for Inactive)
REMARK    1  A    between atoms: C_1  and  C_2
REMARK    2  A    between atoms: C_2  and  C_4
REMARK    3  A    between atoms: C_2  and  N_27
REMARK    4  A    between atoms: C_4  and  C_5
REMARK    5  A    between atoms: C_5  and  C_6
REMARK    6  A    between atoms: C_6  and  N_7
REMARK    7  A    between atoms: N_7  and  C_8
REMARK    8  A    between atoms: C_8  and  C_9
REMARK    9  A    between atoms: N_18  and  C_19
REMARK   10  A    between atoms: C_23  and  O_25
REMARK   11  A    between atoms: O_25  and  C_26
REMARK   12  A    between atoms: N_27  and  C_28
REMARK   13  A    between atoms: C_30  and  O_38
REMARK   14  A    between atoms: O_38  and  C_39
REMARK                            x       y       z     vdW  Elec       q    Type
REMARK                         _______ _______ _______ _____ _____    ______ ____
ROOT
ATOM      1  N   UNL     1       1.193  -3.978  -2.509  0.00  0.00    -0.281 N 
ATOM      2  C   UNL     1       2.140  -4.748  -1.939  0.00  0.00    +0.307 C 
ATOM      3  O   UNL     1       2.993  -4.243  -1.234  0.00  0.00    -0.252 OA
ATOM      4  N   UNL     1       2.143  -6.079  -2.150  0.00  0.00    -0.269 N 
ATOM      5  H   UNL     1       1.420  -6.493  -2.648  0.00  0.00    +0.156 HD
ENDROOT
BRANCH   4   6
ATOM      6  C   UNL     1       3.189  -6.865  -1.652  0.00  0.00    +0.038 A 
ATOM      7  C   UNL     1       2.943  -8.168  -1.237  0.00  0.00    +0.023 A 
ATOM      8  C   UNL     1       3.975  -8.943  -0.745  0.00  0.00    +0.005 A 
ATOM      9  C   UNL     1       5.254  -8.425  -0.664  0.00  0.00    +0.046 A 
ATOM     10  C   UNL     1       5.505  -7.124  -1.077  0.00  0.00    +0.122 A 
ATOM     11  C   UNL     1       4.473  -6.345  -1.578  0.00  0.00    +0.069 A 
BRANCH  10  12
ATOM     12  O   UNL     1       6.763  -6.616  -0.997  0.00  0.00    -0.495 OA
ATOM     13  C   UNL     1       7.779  -7.477  -0.478  0.00  0.00    +0.277 C 
ENDBRANCH  10  12
ENDBRANCH   4   6
BRANCH   1  14
ATOM     14  C   UNL     1       1.190  -2.531  -2.279  0.00  0.00    +0.110 C 
BRANCH  14  15
ATOM     15  C   UNL     1       0.344  -2.212  -1.044  0.00  0.00    +0.021 C 
BRANCH  15  16
ATOM     16  C   UNL     1       0.341  -0.701  -0.804  0.00  0.00    +0.023 C 
BRANCH  16  18
ATOM     17  C   UNL     1      -0.611   1.135   0.598  0.00  0.00    +0.028 C 
ATOM     18  C   UNL     1      -0.505  -0.382   0.430  0.00  0.00    +0.067 C 
BRANCH  18  19
ATOM     19  N   UNL     1       0.127  -0.962   1.618  0.00  0.00    -0.340 N 
ATOM     20  H   UNL     1       1.083  -1.129   1.626  0.00  0.00    +0.146 HD
BRANCH  19  21
ATOM     21  C   UNL     1      -0.645  -1.274   2.736  0.00  0.00    +0.057 A 
ATOM     22  C   UNL     1      -2.002  -1.044   2.725  0.00  0.00    +0.070 A 
ATOM     23  C   UNL     1      -2.788  -1.351   3.838  0.00  0.00    +0.123 A 
ATOM     24  C   UNL     1      -2.222  -1.891   4.971  0.00  0.00    +0.055 A 
ATOM     25  C   UNL     1      -0.840  -2.137   5.010  0.00  0.00    +0.006 A 
ATOM     26  C   UNL     1      -0.038  -1.833   3.883  0.00  0.00    +0.092 A 
ATOM     27  N   UNL     1       1.275  -2.072   3.918  0.00  0.00    -0.253 NA
ATOM     28  C   UNL     1       1.847  -2.590   4.977  0.00  0.00    +0.111 A 
ATOM     29  C   UNL     1       1.116  -2.918   6.117  0.00  0.00    +0.020 A 
ATOM     30  C   UNL     1      -0.230  -2.688   6.153  0.00  0.00    +0.011 A 
BRANCH  23  31
ATOM     31  O   UNL     1      -4.125  -1.113   3.803  0.00  0.00    -0.495 OA
ATOM     32  C   UNL     1      -4.875  -1.449   4.972  0.00  0.00    +0.277 C 
ENDBRANCH  23  31
ENDBRANCH  19  21
ENDBRANCH  18  19
ENDBRANCH  16  18
ENDBRANCH  15  16
ENDBRANCH  14  15
ENDBRANCH   1  14
BRANCH   1  33
ATOM     33  C   UNL     1       0.166  -4.587  -3.357  0.00  0.00    +0.144 C 
BRANCH  33  34
ATOM     34  C   UNL     1       0.646  -4.613  -4.786  0.00  0.00    -0.030 A 
ATOM     35  C   UNL     1       0.383  -3.545  -5.623  0.00  0.00    +0.008 A 
ATOM     36  C   UNL     1       0.823  -3.568  -6.933  0.00  0.00    +0.038 A 
ATOM     37  C   UNL     1       1.527  -4.662  -7.407  0.00  0.00    +0.123 A 
ATOM     38  C   UNL     1       1.790  -5.731  -6.568  0.00  0.00    +0.038 A 
ATOM     39  C   UNL     1       1.353  -5.704  -5.257  0.00  0.00    +0.008 A 
ATOM     40  F   UNL     1       1.957  -4.685  -8.687  0.00  0.00    -0.205 F 
ENDBRANCH  33  34
ENDBRANCH   1  33
TORSDOF 11
