REMARK  Name = ZINC21328080
REMARK  10 active torsions:
REMARK  status: ('A' for Active; 'I' for Inactive)
REMARK    1  A    between atoms: C_1  and  C_2
REMARK    2  A    between atoms: C_2  and  C_24
REMARK    3  A    between atoms: N_3  and  N_4
REMARK    4  A    between atoms: C_8  and  S_11
REMARK    5  A    between atoms: N_9  and  N_10
REMARK    6  A    between atoms: S_11  and  C_12
REMARK    7  A    between atoms: C_12  and  C_13
REMARK    8  A    between atoms: N_15  and  C_16
REMARK    9  A    between atoms: C_27  and  O_30
REMARK   10  A    between atoms: O_30  and  C_31
REMARK                            x       y       z     vdW  Elec       q    Type
REMARK                         _______ _______ _______ _____ _____    ______ ____
ROOT
ATOM      1  N   UNL     1       0.051   0.064  -2.338  0.00  0.00    -0.204 N 
ATOM      2  C   UNL     1       0.037  -0.624  -3.543  0.00  0.00    +0.254 A 
ATOM      3  N   UNL     1       0.050  -1.927  -3.687  0.00  0.00    -0.109 NA
ATOM      4  N   UNL     1       0.029  -2.211  -5.058  0.00  0.00    -0.119 NA
ATOM      5  C   UNL     1       0.003  -1.072  -5.708  0.00  0.00    +0.210 A 
ATOM      6  N   UNL     1       0.003  -0.062  -4.789  0.00  0.00    -0.211 N 
ATOM      7  H   UNL     1       0.037   1.164  -2.333  0.00  0.00    +0.178 HD
ENDROOT
BRANCH   1  10
ATOM      8  C   UNL     1       0.075   1.509   0.007  0.00  0.00    +0.068 C 
ATOM      9  C   UNL     1       0.093   0.002  -0.001  0.00  0.00    +0.063 C 
ATOM     10  N   UNL     1       0.081  -0.642  -1.129  0.00  0.00    -0.184 NA
BRANCH   9  11
ATOM     11  C   UNL     1       0.124  -0.741   1.272  0.00  0.00    -0.002 A 
ATOM     12  C   UNL     1       0.143  -0.051   2.486  0.00  0.00    +0.013 A 
ATOM     13  C   UNL     1       0.168  -0.750   3.674  0.00  0.00    +0.046 A 
ATOM     14  C   UNL     1       0.185  -2.139   3.664  0.00  0.00    +0.120 A 
ATOM     15  C   UNL     1       0.171  -2.829   2.460  0.00  0.00    +0.046 A 
ATOM     16  C   UNL     1       0.141  -2.139   1.267  0.00  0.00    +0.013 A 
BRANCH  14  17
ATOM     17  O   UNL     1       0.215  -2.824   4.838  0.00  0.00    -0.495 OA
ATOM     18  C   UNL     1       0.227  -2.051   6.040  0.00  0.00    +0.277 C 
ENDBRANCH  14  17
ENDBRANCH   9  11
ENDBRANCH   1  10
BRANCH   6  19
ATOM     19  N   UNL     1      -0.024   1.276  -5.066  0.00  0.00    -0.294 N 
ATOM     20  H   UNL     1      -0.051   1.621  -6.110  0.00  0.00    +0.163 HD
ATOM     21  H   UNL     1      -0.020   2.008  -4.245  0.00  0.00    +0.163 HD
ENDBRANCH   6  19
BRANCH   5  22
ATOM     22  S   UNL     1      -0.031  -0.879  -7.459  0.00  0.00    -0.075 S 
BRANCH  22  23
ATOM     23  C   UNL     1      -0.023  -2.581  -8.088  0.00  0.00    +0.173 C 
BRANCH  23  24
ATOM     24  C   UNL     1      -0.051  -2.560  -9.595  0.00  0.00    +0.228 C 
ATOM     25  O   UNL     1      -0.073  -1.501 -10.186  0.00  0.00    -0.275 OA
ATOM     26  N   UNL     1      -0.050  -3.717 -10.285  0.00  0.00    -0.283 N 
ATOM     27  H   UNL     1       0.044  -4.675  -9.753  0.00  0.00    +0.155 HD
BRANCH  26  28
ATOM     28  C   UNL     1      -0.170  -3.700 -11.681  0.00  0.00    +0.069 A 
ATOM     29  C   UNL     1       0.401  -2.670 -12.416  0.00  0.00    +0.029 A 
ATOM     30  C   UNL     1       0.282  -2.655 -13.792  0.00  0.00    +0.040 A 
ATOM     31  C   UNL     1      -0.406  -3.667 -14.440  0.00  0.00    +0.126 A 
ATOM     32  C   UNL     1      -0.976  -4.697 -13.711  0.00  0.00    +0.078 A 
ATOM     33  C   UNL     1      -0.856  -4.719 -12.334  0.00  0.00    +0.147 A 
ATOM     34  F   UNL     1      -1.408  -5.726 -11.622  0.00  0.00    -0.203 F 
ATOM     35  F   UNL     1      -0.520  -3.650 -15.786  0.00  0.00    -0.205 F 
ENDBRANCH  26  28
ENDBRANCH  23  24
ENDBRANCH  22  23
ENDBRANCH   5  22
TORSDOF 8
