REMARK  Name = ZINC22679508
REMARK  5 active torsions:
REMARK  status: ('A' for Active; 'I' for Inactive)
REMARK    1  A    between atoms: C_6  and  N_7
REMARK    2  A    between atoms: N_10  and  C_11
REMARK    3  A    between atoms: C_11  and  C_12
REMARK    4  A    between atoms: C_12  and  C_14
REMARK    5  A    between atoms: C_12  and  N_19
REMARK                            x       y       z     vdW  Elec       q    Type
REMARK                         _______ _______ _______ _____ _____    ______ ____
ROOT
ATOM      1  C   UNL     1      -1.938   2.061  -1.441  0.00  0.00    +0.095 C 
ENDROOT
BRANCH   1   5
ATOM      2  N   UNL     1      -5.078   3.508  -2.692  0.00  0.00    -0.269 N 
ATOM      3  C   UNL     1      -3.921   2.818  -2.636  0.00  0.00    +0.304 C 
ATOM      4  O   UNL     1      -3.534   2.202  -3.610  0.00  0.00    -0.253 OA
ATOM      5  N   UNL     1      -3.195   2.811  -1.501  0.00  0.00    -0.300 N 
ATOM      6  H   UNL     1      -5.467   4.003  -1.790  0.00  0.00    +0.156 HD
ATOM      7  H   UNL     1      -3.546   3.368  -0.620  0.00  0.00    +0.150 HD
BRANCH   2  13
ATOM      8  C   UNL     1      -6.475   4.757  -4.216  0.00  0.00    +0.025 A 
ATOM      9  C   UNL     1      -7.167   4.843  -5.409  0.00  0.00    +0.023 A 
ATOM     10  C   UNL     1      -7.180   3.770  -6.282  0.00  0.00    +0.059 A 
ATOM     11  C   UNL     1      -6.496   2.608  -5.964  0.00  0.00    +0.061 A 
ATOM     12  C   UNL     1      -5.798   2.519  -4.775  0.00  0.00    +0.044 A 
ATOM     13  C   UNL     1      -5.784   3.596  -3.898  0.00  0.00    +0.036 A 
ATOM     14 CL   UNL     1      -6.515   1.263  -7.061  0.00  0.00    -0.082 Cl
ATOM     15 CL   UNL     1      -8.055   3.879  -7.777  0.00  0.00    -0.082 Cl
ENDBRANCH   2  13
ENDBRANCH   1   5
BRANCH   1  16
ATOM     16  C   UNL     1      -1.400   2.082  -0.009  0.00  0.00    -0.020 C 
BRANCH  16  17
ATOM     17  N   UNL     1      -2.292   1.303   0.861  0.00  0.00    +0.385 N 
ATOM     18  C   UNL     1      -3.669   1.846   0.831  0.00  0.00    -0.078 C 
ATOM     19  C   UNL     1      -4.550   1.262   1.901  0.00  0.00    -0.019 C 
ATOM     20  C   UNL     1      -4.509   2.192   3.131  0.00  0.00    -0.002 C 
ATOM     21  C   UNL     1      -3.295   2.010   3.920  0.00  0.00    -0.002 C 
ATOM     22  C   UNL     1      -2.021   2.329   3.110  0.00  0.00    -0.019 C 
ATOM     23  C   UNL     1      -1.716   1.157   2.217  0.00  0.00    -0.078 C 
ATOM     24  H   UNL     1      -2.372   0.281   0.465  0.00  0.00    -0.081 HD
ENDBRANCH  16  17
BRANCH  16  25
ATOM     25  C   UNL     1      -0.020   1.477   0.018  0.00  0.00    -0.052 A 
ATOM     26  C   UNL     1       1.100   2.287   0.039  0.00  0.00    +0.009 A 
ATOM     27  C   UNL     1       2.327   1.712   0.057  0.00  0.00    +0.045 A 
ATOM     28  S   UNL     1       1.920  -0.026   0.046  0.00  0.00    -0.105 S 
ATOM     29  C   UNL     1       0.142   0.132   0.017  0.00  0.00    +0.047 A 
ENDBRANCH  16  25
ENDBRANCH   1  16
TORSDOF 5
