REMARK  Name = ZINC41026119
REMARK  7 active torsions:
REMARK  status: ('A' for Active; 'I' for Inactive)
REMARK    1  A    between atoms: C_4  and  N_7
REMARK    2  A    between atoms: C_12  and  N_25
REMARK    3  A    between atoms: N_16  and  C_17
REMARK    4  A    between atoms: C_17  and  C_18
REMARK    5  A    between atoms: C_18  and  C_19
REMARK    6  A    between atoms: N_25  and  C_26
REMARK    7  A    between atoms: C_29  and  C_32
REMARK                            x       y       z     vdW  Elec       q    Type
REMARK                         _______ _______ _______ _____ _____    ______ ____
ROOT
ATOM      1  N   UNL     1       3.526  -0.821  -0.258  0.00  0.00    -0.214 N 
ATOM      2  C   UNL     1       3.792  -2.032   0.316  0.00  0.00    +0.170 A 
ATOM      3  C   UNL     1       5.178  -2.244   0.180  0.00  0.00    +0.079 A 
ATOM      4  C   UNL     1       5.705  -1.118  -0.490  0.00  0.00    +0.148 A 
ATOM      5  N   UNL     1       4.728  -0.295  -0.747  0.00  0.00    -0.172 NA
ATOM      6  C   UNL     1       5.727  -3.435   0.693  0.00  0.00    +0.139 A 
ATOM      7  N   UNL     1       4.915  -4.304   1.282  0.00  0.00    -0.199 NA
ATOM      8  C   UNL     1       3.614  -4.064   1.389  0.00  0.00    +0.219 A 
ATOM      9  N   UNL     1       3.055  -2.961   0.922  0.00  0.00    -0.195 NA
ATOM     10  N   UNL     1       2.812  -5.004   2.013  0.00  0.00    -0.313 N 
ATOM     11  H   UNL     1       1.859  -4.847   2.101  0.00  0.00    +0.149 HD
ENDROOT
BRANCH   1  15
ATOM     12  C   UNL     1      -0.220   0.986  -0.523  0.00  0.00    +0.000 A 
ATOM     13  C   UNL     1       0.910   1.763  -0.344  0.00  0.00    +0.002 A 
ATOM     14  C   UNL     1       2.153   1.167  -0.255  0.00  0.00    +0.028 A 
ATOM     15  C   UNL     1       2.267  -0.214  -0.346  0.00  0.00    +0.068 A 
ATOM     16  C   UNL     1       1.130  -0.991  -0.526  0.00  0.00    +0.028 A 
ATOM     17  C   UNL     1      -0.110  -0.389  -0.614  0.00  0.00    +0.002 A 
ENDBRANCH   1  15
BRANCH   6  18
ATOM     18  N   UNL     1       7.081  -3.693   0.586  0.00  0.00    -0.299 N 
ATOM     19  H   UNL     1       7.652  -3.091   0.083  0.00  0.00    +0.154 HD
BRANCH  18  20
ATOM     20  C   UNL     1       7.626  -4.818   1.199  0.00  0.00    +0.032 A 
ATOM     21  C   UNL     1       8.704  -5.475   0.612  0.00  0.00    +0.024 A 
ATOM     22  C   UNL     1       9.245  -6.588   1.216  0.00  0.00    +0.015 A 
ATOM     23  C   UNL     1       8.711  -7.057   2.419  0.00  0.00    +0.037 A 
ATOM     24  C   UNL     1       7.629  -6.395   3.006  0.00  0.00    +0.015 A 
ATOM     25  C   UNL     1       7.096  -5.280   2.400  0.00  0.00    +0.024 A 
BRANCH  23  26
ATOM     26  C   UNL     1       9.288  -8.250   3.068  0.00  0.00    +0.242 C 
ATOM     27  O   UNL     1      10.229  -8.825   2.557  0.00  0.00    -0.270 OA
ATOM     28  N   UNL     1       8.773  -8.701   4.229  0.00  0.00    -0.325 N 
ATOM     29  H   UNL     1       8.022  -8.242   4.637  0.00  0.00    +0.145 HD
ATOM     30  H   UNL     1       9.152  -9.485   4.656  0.00  0.00    +0.145 HD
ENDBRANCH  23  26
ENDBRANCH  18  20
ENDBRANCH   6  18
BRANCH  10  31
ATOM     31  C   UNL     1       3.403  -6.237   2.540  0.00  0.00    +0.108 C 
BRANCH  31  32
ATOM     32  C   UNL     1       2.307  -7.097   3.174  0.00  0.00    +0.049 C 
BRANCH  32  33
ATOM     33  C   UNL     1       2.915  -8.364   3.717  0.00  0.00    -0.072 C 
ATOM     34  C   UNL     1       3.242  -8.393   4.969  0.00  0.00    -0.028 C 
ATOM     35  C   UNL     1       3.865  -9.578   5.648  0.00  0.00    +0.027 C 
ATOM     36  C   UNL     1       3.665 -10.836   4.801  0.00  0.00    +0.004 C 
ATOM     37  C   UNL     1       4.091 -10.525   3.361  0.00  0.00    +0.005 C 
ATOM     38  C   UNL     1       3.098  -9.517   2.773  0.00  0.00    +0.030 C 
ENDBRANCH  32  33
ENDBRANCH  31  32
ENDBRANCH  10  31
TORSDOF 7
