REMARK  Name = ZINC23592394
REMARK  11 active torsions:
REMARK  status: ('A' for Active; 'I' for Inactive)
REMARK    1  A    between atoms: C_1  and  C_2
REMARK    2  A    between atoms: C_2  and  C_3
REMARK    3  A    between atoms: C_8  and  N_9
REMARK    4  A    between atoms: C_12  and  C_17
REMARK    5  A    between atoms: C_17  and  S_18
REMARK    6  A    between atoms: S_18  and  C_19
REMARK    7  A    between atoms: C_22  and  C_27
REMARK    8  A    between atoms: N_23  and  C_24
REMARK    9  A    between atoms: C_24  and  C_25
REMARK   10  A    between atoms: C_27  and  O_28
REMARK   11  A    between atoms: O_28  and  C_29
REMARK                            x       y       z     vdW  Elec       q    Type
REMARK                         _______ _______ _______ _____ _____    ______ ____
ROOT
ATOM      1  N   UNL     1      -3.865  -7.423  -1.548  0.00  0.00    -0.283 N 
ATOM      2  C   UNL     1      -2.490  -7.336  -1.435  0.00  0.00    +0.224 A 
ATOM      3  N   UNL     1      -1.945  -6.490  -0.564  0.00  0.00    -0.198 NA
ATOM      4  C   UNL     1      -0.631  -6.403  -0.459  0.00  0.00    +0.146 A 
ATOM      5  N   UNL     1       0.147  -7.162  -1.211  0.00  0.00    -0.199 NA
ATOM      6  C   UNL     1      -0.391  -8.014  -2.080  0.00  0.00    +0.217 A 
ATOM      7  N   UNL     1      -1.712  -8.101  -2.192  0.00  0.00    -0.181 NA
ATOM      8  N   UNL     1       0.423  -8.806  -2.865  0.00  0.00    -0.327 N 
ATOM      9  H   UNL     1      -4.510  -6.862  -0.855  0.00  0.00    +0.155 HD
ATOM     10  H   UNL     1      -0.022  -9.510  -3.583  0.00  0.00    +0.145 HD
ATOM     11  H   UNL     1       1.516  -8.733  -2.772  0.00  0.00    +0.145 HD
ENDROOT
BRANCH   1  17
ATOM     12  C   UNL     1      -5.719  -8.728  -2.378  0.00  0.00    -0.026 A 
ATOM     13  C   UNL     1      -6.280  -9.517  -3.362  0.00  0.00    +0.005 A 
ATOM     14  C   UNL     1      -5.566  -9.805  -4.511  0.00  0.00    +0.000 A 
ATOM     15  C   UNL     1      -4.288  -9.303  -4.678  0.00  0.00    +0.002 A 
ATOM     16  C   UNL     1      -3.723  -8.510  -3.699  0.00  0.00    +0.023 A 
ATOM     17  C   UNL     1      -4.436  -8.223  -2.542  0.00  0.00    +0.037 A 
BRANCH  12  19
ATOM     18  C   UNL     1      -7.207  -7.069  -1.290  0.00  0.00    +0.009 C 
ATOM     19  C   UNL     1      -6.498  -8.415  -1.126  0.00  0.00    +0.033 C 
ENDBRANCH  12  19
ENDBRANCH   1  17
BRANCH   4  20
ATOM     20  C   UNL     1      -0.018  -5.439   0.524  0.00  0.00    +0.153 C 
BRANCH  20  21
ATOM     21  S   UNL     1       0.250  -3.842  -0.283  0.00  0.00    -0.078 S 
BRANCH  21  22
ATOM     22  C   UNL     1       0.953  -2.936   1.055  0.00  0.00    +0.192 A 
ATOM     23  N   UNL     1       1.180  -3.386   2.267  0.00  0.00    -0.122 NA
ATOM     24  N   UNL     1       1.701  -2.456   2.987  0.00  0.00    -0.130 NA
ATOM     25  C   UNL     1       1.841  -1.370   2.281  0.00  0.00    +0.172 A 
ATOM     26  N   UNL     1       1.365  -1.635   1.027  0.00  0.00    -0.299 N 
BRANCH  26  27
ATOM     27  C   UNL     1       1.313  -0.715  -0.112  0.00  0.00    +0.152 C 
BRANCH  27  28
ATOM     28  C   UNL     1      -0.002   0.020  -0.105  0.00  0.00    -0.013 C 
ATOM     29  C   UNL     1      -0.021   1.330  -0.117  0.00  0.00    +0.005 C 
ENDBRANCH  27  28
ENDBRANCH  26  27
BRANCH  25  30
ATOM     30  C   UNL     1       2.418  -0.063   2.760  0.00  0.00    +0.305 C 
BRANCH  30  31
ATOM     31  O   UNL     1       1.372   0.753   3.292  0.00  0.00    -0.481 OA
BRANCH  31  32
ATOM     32  C   UNL     1       1.726   1.976   3.770  0.00  0.00    +0.156 A 
ATOM     33  C   UNL     1       3.052   2.379   3.733  0.00  0.00    +0.048 A 
ATOM     34  C   UNL     1       3.409   3.623   4.216  0.00  0.00    +0.004 A 
ATOM     35  C   UNL     1       2.447   4.464   4.745  0.00  0.00    +0.003 A 
ATOM     36  C   UNL     1       1.124   4.064   4.788  0.00  0.00    +0.042 A 
ATOM     37  C   UNL     1       0.761   2.821   4.302  0.00  0.00    +0.165 A 
ATOM     38  F   UNL     1      -0.532   2.430   4.344  0.00  0.00    -0.202 F 
ENDBRANCH  31  32
ENDBRANCH  30  31
ENDBRANCH  25  30
ENDBRANCH  21  22
ENDBRANCH  20  21
ENDBRANCH   4  20
TORSDOF 10
