REMARK  Name = ZINC44340045
REMARK  10 active torsions:
REMARK  status: ('A' for Active; 'I' for Inactive)
REMARK    1  A    between atoms: C_1  and  C_2
REMARK    2  A    between atoms: C_2  and  O_3
REMARK    3  A    between atoms: O_3  and  C_4
REMARK    4  A    between atoms: C_4  and  C_6
REMARK    5  A    between atoms: C_6  and  C_8
REMARK    6  A    between atoms: C_6  and  N_20
REMARK    7  A    between atoms: C_8  and  C_9
REMARK    8  A    between atoms: C_11  and  O_18
REMARK    9  A    between atoms: C_12  and  O_17
REMARK   10  A    between atoms: O_18  and  C_19
REMARK                            x       y       z     vdW  Elec       q    Type
REMARK                         _______ _______ _______ _____ _____    ______ ____
ROOT
ATOM      1  C   UNL     1       3.789  -2.931  -3.125  0.00  0.00    -0.030 A 
ATOM      2  C   UNL     1       4.068  -4.283  -3.042  0.00  0.00    +0.054 A 
ATOM      3  C   UNL     1       4.875  -4.884  -3.995  0.00  0.00    +0.163 A 
ATOM      4  C   UNL     1       5.403  -4.125  -5.035  0.00  0.00    +0.174 A 
ATOM      5  C   UNL     1       5.120  -2.770  -5.114  0.00  0.00    +0.077 A 
ATOM      6  C   UNL     1       4.309  -2.177  -4.162  0.00  0.00    +0.039 A 
ATOM      7 BR   UNL     1       3.917  -0.330  -4.274  0.00  0.00    -0.049 Br
ATOM      8 BR   UNL     1       5.835  -1.735  -6.525  0.00  0.00    -0.045 Br
ENDROOT
BRANCH   4   9
ATOM      9  O   UNL     1       6.195  -4.711  -5.972  0.00  0.00    -0.503 OA
ATOM     10  H   UNL     1       5.712  -5.058  -6.735  0.00  0.00    +0.292 HD
ENDBRANCH   4   9
BRANCH   3  11
ATOM     11  O   UNL     1       5.151  -6.213  -3.914  0.00  0.00    -0.491 OA
ATOM     12  C   UNL     1       4.575  -6.929  -2.819  0.00  0.00    +0.277 C 
ENDBRANCH   3  11
BRANCH   1  13
ATOM     13  C   UNL     1       2.911  -2.280  -2.088  0.00  0.00    +0.031 C 
BRANCH  13  14
ATOM     14  C   UNL     1       1.474  -2.208  -2.608  0.00  0.00    +0.040 C 
BRANCH  14  15
ATOM     15  N   UNL     1       0.938  -3.568  -2.755  0.00  0.00    +0.387 N 
ATOM     16  H   UNL     1      -0.037  -3.519  -3.011  0.00  0.00    -0.089 HD
ATOM     17  H   UNL     1       1.450  -4.055  -3.475  0.00  0.00    -0.089 HD
ATOM     18  H   UNL     1       1.033  -4.063  -1.881  0.00  0.00    -0.089 HD
ENDBRANCH  14  15
BRANCH  14  19
ATOM     19  C   UNL     1       0.624  -1.436  -1.632  0.00  0.00    +0.293 C 
ATOM     20  O   UNL     1      -0.085  -2.025  -0.851  0.00  0.00    -0.253 OA
BRANCH  19  21
ATOM     21  O   UNL     1       0.655  -0.094  -1.631  0.00  0.00    -0.466 OA
BRANCH  21  23
ATOM     22  C   UNL     1      -0.008   2.087  -0.827  0.00  0.00    +0.048 C 
ATOM     23  C   UNL     1      -0.176   0.573  -0.679  0.00  0.00    +0.228 C 
ENDBRANCH  21  23
ENDBRANCH  19  21
ENDBRANCH  14  19
ENDBRANCH  13  14
ENDBRANCH   1  13
TORSDOF 8
