REMARK  Name = ZINC15972193
REMARK  10 active torsions:
REMARK  status: ('A' for Active; 'I' for Inactive)
REMARK    1  A    between atoms: C_1  and  C_2
REMARK    2  A    between atoms: C_4  and  C_32
REMARK    3  A    between atoms: C_9  and  C_18
REMARK    4  A    between atoms: C_12  and  C_14
REMARK    5  A    between atoms: C_14  and  C_15
REMARK    6  A    between atoms: C_15  and  S_16
REMARK    7  A    between atoms: S_16  and  C_17
REMARK    8  A    between atoms: N_20  and  C_21
REMARK    9  A    between atoms: C_24  and  O_27
REMARK   10  A    between atoms: O_27  and  C_28
REMARK                            x       y       z     vdW  Elec       q    Type
REMARK                         _______ _______ _______ _____ _____    ______ ____
ROOT
ATOM      1  C   UNL     1       7.272   8.573   3.400  0.00  0.00    +0.044 C 
ATOM      2  C   UNL     1       5.853   8.572   2.894  0.00  0.00    -0.050 A 
ATOM      3  C   UNL     1       4.860   9.212   3.614  0.00  0.00    +0.008 A 
ATOM      4  C   UNL     1       3.559   9.214   3.157  0.00  0.00    -0.029 A 
ATOM      5  C   UNL     1       3.235   8.570   1.964  0.00  0.00    +0.039 A 
ATOM      6  C   UNL     1       4.242   7.931   1.249  0.00  0.00    -0.027 A 
ATOM      7  C   UNL     1       5.539   7.931   1.709  0.00  0.00    +0.008 A 
ATOM      8  C   UNL     1       3.578   7.344   0.032  0.00  0.00    +0.049 C 
ATOM      9  C   UNL     1       3.741   5.820  -0.003  0.00  0.00    +0.076 C 
ATOM     10  C   UNL     1       4.480   5.528  -1.331  0.00  0.00    -0.004 C 
ATOM     11  C   UNL     1       5.163   6.881  -1.653  0.00  0.00    -0.068 C 
ATOM     12  C   UNL     1       2.127   7.729   0.163  0.00  0.00    +0.211 C 
ATOM     13  O   UNL     1       1.234   7.456  -0.611  0.00  0.00    -0.277 OA
ATOM     14  N   UNL     1       2.012   8.434   1.304  0.00  0.00    -0.286 N 
ATOM     15  C   UNL     1       2.485   9.914   3.949  0.00  0.00    +0.045 C 
ATOM     16  H   UNL     1       1.177   8.805   1.629  0.00  0.00    +0.155 HD
ATOM     17  N   UNL     1       4.168   7.863  -1.196  0.00  0.00    +0.394 N 
ATOM     18  H   UNL     1       4.622   8.766  -1.014  0.00  0.00    -0.083 HD
ATOM     19  H   UNL     1       3.440   7.984  -1.911  0.00  0.00    -0.083 HD
ENDROOT
BRANCH   9  20
ATOM     20  C   UNL     1       2.392   5.148   0.006  0.00  0.00    +0.220 C 
ATOM     21  O   UNL     1       1.844   4.876  -1.042  0.00  0.00    -0.275 OA
ATOM     22  N   UNL     1       1.794   4.850   1.177  0.00  0.00    -0.285 N 
ATOM     23  H   UNL     1       2.196   5.135   2.012  0.00  0.00    +0.155 HD
BRANCH  22  24
ATOM     24  C   UNL     1       0.592   4.130   1.186  0.00  0.00    +0.034 A 
ATOM     25  C   UNL     1       0.350   3.170   0.214  0.00  0.00    +0.027 A 
ATOM     26  C   UNL     1      -0.835   2.461   0.224  0.00  0.00    +0.047 A 
ATOM     27  C   UNL     1      -1.786   2.713   1.202  0.00  0.00    +0.120 A 
ATOM     28  C   UNL     1      -1.542   3.669   2.178  0.00  0.00    +0.047 A 
ATOM     29  C   UNL     1      -0.357   4.378   2.169  0.00  0.00    +0.027 A 
BRANCH  27  30
ATOM     30  O   UNL     1      -2.955   2.019   1.208  0.00  0.00    -0.495 OA
ATOM     31  C   UNL     1      -3.889   2.329   2.244  0.00  0.00    +0.277 C 
ENDBRANCH  27  30
ENDBRANCH  22  24
ENDBRANCH   9  20
BRANCH  11  32
ATOM     32  C   UNL     1       5.430   7.007  -3.154  0.00  0.00    -0.005 C 
BRANCH  32  33
ATOM     33  C   UNL     1       6.215   8.292  -3.426  0.00  0.00    +0.067 C 
BRANCH  33  34
ATOM     34  S   UNL     1       6.532   8.441  -5.206  0.00  0.00    -0.164 S 
ATOM     35  C   UNL     1       7.457   9.994  -5.358  0.00  0.00    +0.084 C 
ENDBRANCH  33  34
ENDBRANCH  32  33
ENDBRANCH  11  32
TORSDOF 6
