REMARK  Name = ZINC14902736
REMARK  9 active torsions:
REMARK  status: ('A' for Active; 'I' for Inactive)
REMARK    1  A    between atoms: C_4  and  C_7
REMARK    2  A    between atoms: C_7  and  C_9
REMARK    3  A    between atoms: C_7  and  S_12
REMARK    4  A    between atoms: S_12  and  C_13
REMARK    5  A    between atoms: N_23  and  C_24
REMARK    6  A    between atoms: C_24  and  C_25
REMARK    7  A    between atoms: C_25  and  C_26
REMARK    8  A    between atoms: C_29  and  S_32
REMARK    9  A    between atoms: S_32  and  N_35
REMARK                            x       y       z     vdW  Elec       q    Type
REMARK                         _______ _______ _______ _____ _____    ______ ____
ROOT
ATOM      1  C   UNL     1      -0.353   0.351   0.337  0.00  0.00    +0.173 A 
ATOM      2  N   UNL     1       0.641  -0.461   0.071  0.00  0.00    -0.223 NA
ATOM      3  C   UNL     1       0.467  -1.797   0.018  0.00  0.00    +0.079 A 
ATOM      4  C   UNL     1       1.526  -2.664  -0.265  0.00  0.00    +0.028 A 
ATOM      5  C   UNL     1       1.305  -4.011  -0.310  0.00  0.00    +0.002 A 
ATOM      6  C   UNL     1       0.040  -4.536  -0.077  0.00  0.00    +0.001 A 
ATOM      7  C   UNL     1      -1.017  -3.714   0.203  0.00  0.00    +0.015 A 
ATOM      8  C   UNL     1      -0.819  -2.335   0.254  0.00  0.00    +0.065 A 
ATOM      9  C   UNL     1      -1.917  -1.404   0.549  0.00  0.00    +0.262 A 
ATOM     10  O   UNL     1      -3.046  -1.806   0.762  0.00  0.00    -0.267 OA
ATOM     11  N   UNL     1      -1.624  -0.083   0.582  0.00  0.00    -0.287 N 
ENDROOT
BRANCH   1  12
ATOM     12  S   UNL     1      -0.031   2.083   0.386  0.00  0.00    -0.070 S 
BRANCH  12  13
ATOM     13  C   UNL     1       1.739   2.084   0.011  0.00  0.00    +0.169 C 
BRANCH  13  17
ATOM     14  C   UNL     1       3.255   6.066   0.320  0.00  0.00    +0.000 A 
ATOM     15  C   UNL     1       2.124   5.814  -0.433  0.00  0.00    +0.000 A 
ATOM     16  C   UNL     1       1.633   4.525  -0.533  0.00  0.00    +0.005 A 
ATOM     17  C   UNL     1       2.274   3.489   0.120  0.00  0.00    -0.025 A 
ATOM     18  C   UNL     1       3.403   3.742   0.877  0.00  0.00    +0.005 A 
ATOM     19  C   UNL     1       3.896   5.030   0.973  0.00  0.00    +0.000 A 
ENDBRANCH  13  17
BRANCH  13  20
ATOM     20  C   UNL     1       1.957   1.571  -1.389  0.00  0.00    +0.228 C 
ATOM     21  O   UNL     1       2.591   0.552  -1.569  0.00  0.00    -0.274 OA
ATOM     22  N   UNL     1       1.448   2.243  -2.440  0.00  0.00    -0.328 N 
ATOM     23  H   UNL     1       1.016   3.101  -2.304  0.00  0.00    +0.145 HD
ATOM     24  H   UNL     1       1.514   1.869  -3.333  0.00  0.00    +0.145 HD
ENDBRANCH  13  20
ENDBRANCH  12  13
ENDBRANCH   1  12
BRANCH  11  25
ATOM     25  C   UNL     1      -2.680   0.889   0.877  0.00  0.00    +0.132 C 
BRANCH  25  26
ATOM     26  C   UNL     1      -3.352   1.324  -0.427  0.00  0.00    +0.057 C 
BRANCH  26  27
ATOM     27  C   UNL     1      -4.438   2.324  -0.123  0.00  0.00    -0.046 A 
ATOM     28  C   UNL     1      -5.728   1.891   0.121  0.00  0.00    +0.005 A 
ATOM     29  C   UNL     1      -6.723   2.808   0.404  0.00  0.00    +0.029 A 
ATOM     30  C   UNL     1      -6.430   4.158   0.434  0.00  0.00    +0.105 A 
ATOM     31  C   UNL     1      -5.141   4.592   0.185  0.00  0.00    +0.029 A 
ATOM     32  C   UNL     1      -4.145   3.675  -0.094  0.00  0.00    +0.005 A 
BRANCH  30  33
ATOM     33  S   UNL     1      -7.699   5.327   0.790  0.00  0.00    +0.056 S 
ATOM     34  O   UNL     1      -8.698   4.631   1.522  0.00  0.00    -0.153 OA
ATOM     35  O   UNL     1      -7.053   6.487   1.295  0.00  0.00    -0.153 OA
BRANCH  33  36
ATOM     36  N   UNL     1      -8.386   5.759  -0.654  0.00  0.00    -0.204 NA
ATOM     37  H   UNL     1      -9.320   6.019  -0.688  0.00  0.00    +0.144 HD
ATOM     38  H   UNL     1      -7.854   5.752  -1.465  0.00  0.00    +0.144 HD
ENDBRANCH  33  36
ENDBRANCH  30  33
ENDBRANCH  26  27
ENDBRANCH  25  26
ENDBRANCH  11  25
TORSDOF 9
