REMARK  Name = ZINC37634702
REMARK  10 active torsions:
REMARK  status: ('A' for Active; 'I' for Inactive)
REMARK    1  A    between atoms: C_1  and  C_2
REMARK    2  A    between atoms: C_2  and  C_3
REMARK    3  A    between atoms: C_2  and  C_4
REMARK    4  A    between atoms: C_2  and  N_5
REMARK    5  A    between atoms: N_5  and  C_6
REMARK    6  A    between atoms: C_6  and  C_7
REMARK    7  A    between atoms: C_7  and  C_8
REMARK    8  A    between atoms: N_10  and  C_11
REMARK    9  A    between atoms: C_14  and  S_18
REMARK   10  A    between atoms: S_18  and  N_21
REMARK                            x       y       z     vdW  Elec       q    Type
REMARK                         _______ _______ _______ _____ _____    ______ ____
ROOT
ATOM      1  C   UNL     1       4.200   0.054  -2.483  0.00  0.00    +0.215 C 
ATOM      2  O   UNL     1       4.595   0.755  -1.576  0.00  0.00    -0.276 OA
ATOM      3  N   UNL     1       5.022  -0.250  -3.507  0.00  0.00    -0.285 N 
ATOM      4  H   UNL     1       4.729  -0.863  -4.199  0.00  0.00    +0.155 HD
ENDROOT
BRANCH   3   5
ATOM      5  C   UNL     1       6.300   0.318  -3.571  0.00  0.00    +0.048 A 
ATOM      6  C   UNL     1       7.011   0.564  -2.404  0.00  0.00    +0.026 A 
ATOM      7  C   UNL     1       8.272   1.124  -2.470  0.00  0.00    +0.030 A 
ATOM      8  C   UNL     1       8.826   1.441  -3.697  0.00  0.00    +0.106 A 
ATOM      9  C   UNL     1       8.121   1.198  -4.861  0.00  0.00    +0.045 A 
ATOM     10  C   UNL     1       6.861   0.632  -4.802  0.00  0.00    +0.041 A 
ATOM     11 BR   UNL     1       5.900   0.293  -6.395  0.00  0.00    -0.048 Br
BRANCH   8  12
ATOM     12  S   UNL     1      10.434   2.156  -3.777  0.00  0.00    +0.056 S 
ATOM     13  O   UNL     1      10.504   2.862  -5.008  0.00  0.00    -0.153 OA
ATOM     14  O   UNL     1      10.662   2.786  -2.523  0.00  0.00    -0.153 OA
BRANCH  12  15
ATOM     15  N   UNL     1      11.520   0.910  -3.884  0.00  0.00    -0.204 NA
ATOM     16  H   UNL     1      11.205  -0.008  -3.892  0.00  0.00    +0.144 HD
ATOM     17  H   UNL     1      12.470   1.097  -3.938  0.00  0.00    +0.144 HD
ENDBRANCH  12  15
ENDBRANCH   8  12
ENDBRANCH   3   5
BRANCH   1  18
ATOM     18  C   UNL     1       2.790  -0.476  -2.466  0.00  0.00    +0.077 C 
BRANCH  18  19
ATOM     19  C   UNL     1       2.075   0.013  -1.205  0.00  0.00    -0.073 C 
BRANCH  19  20
ATOM     20  N   UNL     1       0.701  -0.504  -1.189  0.00  0.00    +0.383 N 
ATOM     21  H   UNL     1       0.721  -1.513  -1.194  0.00  0.00    -0.085 HD
ATOM     22  H   UNL     1       0.207  -0.174  -2.004  0.00  0.00    -0.085 HD
BRANCH  20  24
ATOM     23  C   UNL     1      -0.016   1.496   0.030  0.00  0.00    -0.011 C 
ATOM     24  C   UNL     1       0.015  -0.034   0.022  0.00  0.00    -0.077 C 
ATOM     25  C   UNL     1       0.763  -0.535   1.259  0.00  0.00    -0.011 C 
ATOM     26  C   UNL     1      -1.417  -0.573   0.039  0.00  0.00    -0.011 C 
ENDBRANCH  20  24
ENDBRANCH  19  20
ENDBRANCH  18  19
ENDBRANCH   1  18
TORSDOF 7
