REMARK  Name = ZINC50224755
REMARK  6 active torsions:
REMARK  status: ('A' for Active; 'I' for Inactive)
REMARK    1  A    between atoms: C_1  and  C_2
REMARK    2  A    between atoms: C_7  and  N_8
REMARK    3  A    between atoms: C_9  and  C_11
REMARK    4  A    between atoms: C_11  and  N_12
REMARK    5  A    between atoms: C_14  and  C_17
REMARK    6  A    between atoms: C_17  and  N_18
REMARK                            x       y       z     vdW  Elec       q    Type
REMARK                         _______ _______ _______ _____ _____    ______ ____
ROOT
ATOM      1  N   UNL     1       0.025  -0.014   2.417  0.00  0.00    -0.284 N 
ATOM      2  C   UNL     1      -0.057  -0.694   3.578  0.00  0.00    +0.239 C 
ATOM      3  O   UNL     1      -0.040  -1.907   3.573  0.00  0.00    -0.273 OA
ATOM      4  H   UNL     1       0.077   0.954   2.425  0.00  0.00    +0.155 HD
ENDROOT
BRANCH   1  11
ATOM      5  C   UNL     1      -1.265   1.183   0.181  0.00  0.00    +0.046 C 
ATOM      6  C   UNL     1      -0.584  -0.158   0.084  0.00  0.00    -0.028 A 
ATOM      7  C   UNL     1      -0.569  -0.841  -1.116  0.00  0.00    +0.019 A 
ATOM      8  C   UNL     1       0.056  -2.071  -1.206  0.00  0.00    +0.014 A 
ATOM      9  C   UNL     1       0.668  -2.622  -0.094  0.00  0.00    +0.016 A 
ATOM     10  C   UNL     1       0.656  -1.944   1.109  0.00  0.00    +0.024 A 
ATOM     11  C   UNL     1       0.034  -0.706   1.201  0.00  0.00    +0.036 A 
ATOM     12  I   UNL     1       0.076  -3.103  -3.029  0.00  0.00    -0.044 I 
ENDBRANCH   1  11
BRANCH   2  13
ATOM     13  C   UNL     1      -0.169   0.053   4.882  0.00  0.00    +0.241 C 
BRANCH  13  14
ATOM     14  N   UNL     1      -0.242  -0.904   5.989  0.00  0.00    -0.243 N 
ATOM     15  C   UNL     1       0.572  -0.931   7.069  0.00  0.00    +0.132 A 
ATOM     16  C   UNL     1       0.153  -1.968   7.831  0.00  0.00    +0.066 A 
ATOM     17  N   UNL     1      -0.883  -2.518   7.188  0.00  0.00    -0.136 NA
ATOM     18  N   UNL     1      -1.096  -1.861   6.103  0.00  0.00    -0.065 NA
BRANCH  16  19
ATOM     19  C   UNL     1       0.739  -2.416   9.146  0.00  0.00    -0.027 C 
BRANCH  19  20
ATOM     20  N   UNL     1      -0.016  -1.808  10.250  0.00  0.00    +0.382 N 
ATOM     21  H   UNL     1       0.377  -2.108  11.130  0.00  0.00    -0.090 HD
ATOM     22  H   UNL     1       0.040  -0.803  10.182  0.00  0.00    -0.090 HD
ATOM     23  H   UNL     1      -0.981  -2.096  10.197  0.00  0.00    -0.090 HD
ENDBRANCH  19  20
ENDBRANCH  16  19
ENDBRANCH  13  14
ENDBRANCH   2  13
TORSDOF 5
