REMARK  Name = ZINC63376035
REMARK  4 active torsions:
REMARK  status: ('A' for Active; 'I' for Inactive)
REMARK    1  A    between atoms: C_4  and  C_7
REMARK    2  A    between atoms: C_7  and  N_8
REMARK    3  A    between atoms: C_13  and  C_31
REMARK    4  A    between atoms: C_31  and  C_32
REMARK                            x       y       z     vdW  Elec       q    Type
REMARK                         _______ _______ _______ _____ _____    ______ ____
ROOT
ATOM      1  N   UNL     1       4.152  -0.952   1.338  0.00  0.00    -0.237 N 
ATOM      2  C   UNL     1       4.914  -0.089   2.018  0.00  0.00    +0.227 C 
ATOM      3  O   UNL     1       5.321   0.972   1.594  0.00  0.00    -0.275 OA
ATOM      4  C   UNL     1       5.190  -0.641   3.399  0.00  0.00    +0.107 C 
ATOM      5  C   UNL     1       6.686  -1.004   3.509  0.00  0.00    +0.072 C 
ATOM      6  N   UNL     1       6.706  -2.353   4.134  0.00  0.00    -0.295 NA
ATOM      7  C   UNL     1       5.561  -3.053   3.522  0.00  0.00    +0.136 C 
ATOM      8  C   UNL     1       4.433  -1.998   3.399  0.00  0.00    +0.122 C 
ATOM      9  C   UNL     1       3.820  -2.056   2.018  0.00  0.00    +0.229 C 
ATOM     10  O   UNL     1       3.136  -2.962   1.592  0.00  0.00    -0.275 OA
ATOM     11  C   UNL     1       5.124  -4.224   4.355  0.00  0.00    +0.005 A 
ATOM     12  C   UNL     1       4.676  -4.352   5.651  0.00  0.00    +0.008 A 
ATOM     13  C   UNL     1       4.341  -5.598   6.149  0.00  0.00    +0.002 A 
ATOM     14  C   UNL     1       4.457  -6.716   5.342  0.00  0.00    +0.022 A 
ATOM     15  C   UNL     1       4.905  -6.593   4.043  0.00  0.00    +0.062 A 
ATOM     16  C   UNL     1       5.244  -5.341   3.533  0.00  0.00    +0.057 A 
ATOM     17  N   UNL     1       5.714  -4.964   2.272  0.00  0.00    -0.282 N 
ATOM     18  C   UNL     1       5.926  -3.637   2.185  0.00  0.00    +0.243 C 
ATOM     19  O   UNL     1       6.331  -3.031   1.216  0.00  0.00    -0.273 OA
ATOM     20 CL   UNL     1       5.048  -8.003   3.039  0.00  0.00    -0.082 Cl
ATOM     21  H   UNL     1       7.571  -2.832   3.934  0.00  0.00    +0.124 HD
ATOM     22  H   UNL     1       5.870  -5.587   1.545  0.00  0.00    +0.155 HD
ENDROOT
BRANCH   1  23
ATOM     23  C   UNL     1       3.711  -0.707  -0.038  0.00  0.00    +0.151 C 
BRANCH  23  27
ATOM     24  C   UNL     1      -0.017   1.378   0.010  0.00  0.00    +0.000 A 
ATOM     25  C   UNL     1       1.171   2.086   0.002  0.00  0.00    +0.000 A 
ATOM     26  C   UNL     1       2.377   1.411  -0.013  0.00  0.00    +0.005 A 
ATOM     27  C   UNL     1       2.396   0.029  -0.020  0.00  0.00    -0.030 A 
ATOM     28  C   UNL     1       1.208  -0.679  -0.012  0.00  0.00    +0.005 A 
ATOM     29  C   UNL     1       0.002  -0.004   0.002  0.00  0.00    +0.000 A 
ENDBRANCH  23  27
ENDBRANCH   1  23
BRANCH   5  30
ATOM     30  C   UNL     1       7.416   0.007   4.395  0.00  0.00    +0.052 C 
BRANCH  30  31
ATOM     31  C   UNL     1       8.892  -0.294   4.390  0.00  0.00    -0.040 C 
ATOM     32  C   UNL     1       9.834   0.271   3.600  0.00  0.00    -0.001 A 
ATOM     33  C   UNL     1       9.769   1.294   2.550  0.00  0.00    +0.010 A 
ATOM     34  C   UNL     1      10.908   1.662   1.921  0.00  0.00    +0.001 A 
ATOM     35  C   UNL     1      12.147   1.093   2.246  0.00  0.00    +0.002 A 
ATOM     36  C   UNL     1      12.287   0.147   3.199  0.00  0.00    +0.026 A 
ATOM     37  C   UNL     1      11.155  -0.315   3.925  0.00  0.00    +0.043 A 
ATOM     38  N   UNL     1      11.034  -1.207   4.879  0.00  0.00    -0.380 N 
ATOM     39  C   UNL     1       9.622  -1.283   5.271  0.00  0.00    +0.144 C 
ATOM     40  H   UNL     1      11.757  -1.726   5.263  0.00  0.00    +0.160 HD
ENDBRANCH  30  31
ENDBRANCH   5  30
TORSDOF 4
