REMARK  Name = ZINC64994219
REMARK  7 active torsions:
REMARK  status: ('A' for Active; 'I' for Inactive)
REMARK    1  A    between atoms: C_1  and  N_2
REMARK    2  A    between atoms: N_2  and  C_3
REMARK    3  A    between atoms: N_2  and  C_10
REMARK    4  A    between atoms: C_3  and  C_4
REMARK    5  A    between atoms: C_10  and  C_11
REMARK    6  A    between atoms: N_13  and  C_14
REMARK    7  A    between atoms: C_15  and  C_19
REMARK                            x       y       z     vdW  Elec       q    Type
REMARK                         _______ _______ _______ _____ _____    ______ ____
ROOT
ATOM      1  C   UNL     1      -2.043  -0.130   1.309  0.00  0.00    +0.201 C 
ATOM      2  O   UNL     1      -1.430   0.504   2.142  0.00  0.00    -0.278 OA
ATOM      3  N   UNL     1      -3.320  -0.492   1.542  0.00  0.00    -0.281 N 
ATOM      4  H   UNL     1      -3.810  -0.999   0.876  0.00  0.00    +0.155 HD
ENDROOT
BRANCH   3   5
ATOM      5  C   UNL     1      -3.933  -0.140   2.735  0.00  0.00    +0.084 A 
ATOM      6  C   UNL     1      -5.226  -0.428   3.146  0.00  0.00    +0.065 A 
ATOM      7  C   UNL     1      -5.615   0.063   4.449  0.00  0.00    +0.022 A 
ATOM      8  C   UNL     1      -4.673   0.749   5.121  0.00  0.00    +0.048 A 
ATOM      9  S   UNL     1      -3.280   0.726   4.015  0.00  0.00    -0.081 S 
BRANCH   6  10
ATOM     10  C   UNL     1      -6.152  -1.192   2.303  0.00  0.00    +0.244 C 
ATOM     11  O   UNL     1      -5.792  -1.590   1.210  0.00  0.00    -0.270 OA
ATOM     12  N   UNL     1      -7.401  -1.452   2.737  0.00  0.00    -0.325 N 
ATOM     13  H   UNL     1      -7.688  -1.134   3.607  0.00  0.00    +0.145 HD
ATOM     14  H   UNL     1      -8.013  -1.957   2.179  0.00  0.00    +0.145 HD
ENDBRANCH   6  10
ENDBRANCH   3   5
BRANCH   1  15
ATOM     15  C   UNL     1      -1.376  -0.512   0.012  0.00  0.00    +0.019 C 
BRANCH  15  17
ATOM     16  C   UNL     1      -0.018   1.465   0.010  0.00  0.00    -0.095 C 
ATOM     17  N   UNL     1       0.002  -0.004   0.002  0.00  0.00    +0.386 N 
ATOM     18  H   UNL     1       0.490  -0.338   0.820  0.00  0.00    -0.081 HD
BRANCH  17  19
ATOM     19  C   UNL     1       0.690  -0.478  -1.207  0.00  0.00    -0.042 C 
BRANCH  19  20
ATOM     20  C   UNL     1       2.137  -0.060  -1.158  0.00  0.00    -0.056 A 
ATOM     21  C   UNL     1       2.534   1.155  -1.686  0.00  0.00    +0.024 A 
ATOM     22  C   UNL     1       3.844   1.500  -1.625  0.00  0.00    +0.055 A 
ATOM     23  S   UNL     1       4.561   0.087  -0.803  0.00  0.00    -0.090 S 
ATOM     24  C   UNL     1       3.067  -0.866  -0.591  0.00  0.00    +0.048 A 
ATOM     25 BR   UNL     1       4.692   3.071  -2.250  0.00  0.00    -0.043 Br
ENDBRANCH  19  20
ENDBRANCH  17  19
ENDBRANCH  15  17
ENDBRANCH   1  15
TORSDOF 6
