REMARK  Name = ZINC49106287
REMARK  12 active torsions:
REMARK  status: ('A' for Active; 'I' for Inactive)
REMARK    1  A    between atoms: C_1  and  C_2
REMARK    2  A    between atoms: C_2  and  C_3
REMARK    3  A    between atoms: C_3  and  C_5
REMARK    4  A    between atoms: C_3  and  C_6
REMARK    5  A    between atoms: C_6  and  C_8
REMARK    6  A    between atoms: C_6  and  N_9
REMARK    7  A    between atoms: N_9  and  S_10
REMARK    8  A    between atoms: S_10  and  C_13
REMARK    9  A    between atoms: C_16  and  C_20
REMARK   10  A    between atoms: C_17  and  C_19
REMARK   11  A    between atoms: C_21  and  C_22
REMARK   12  A    between atoms: C_22  and  N_23
REMARK                            x       y       z     vdW  Elec       q    Type
REMARK                         _______ _______ _______ _____ _____    ______ ____
ROOT
ATOM      1  C   UNL     1       1.558  -5.223   1.848  0.00  0.00    +0.106 A 
ATOM      2  C   UNL     1       0.611  -5.610   0.918  0.00  0.00    +0.030 A 
ATOM      3  C   UNL     1       0.909  -6.586  -0.011  0.00  0.00    +0.019 A 
ATOM      4  C   UNL     1       2.171  -7.184  -0.009  0.00  0.00    +0.028 A 
ATOM      5  C   UNL     1       3.122  -6.789   0.932  0.00  0.00    -0.033 A 
ATOM      6  C   UNL     1       2.812  -5.808   1.852  0.00  0.00    +0.033 A 
ATOM      7  C   UNL     1       4.486  -7.429   0.941  0.00  0.00    +0.045 C 
ENDROOT
BRANCH   1   8
ATOM      8  S   UNL     1       1.169  -3.975   3.030  0.00  0.00    +0.059 S 
ATOM      9  O   UNL     1       2.042  -4.175   4.133  0.00  0.00    -0.153 OA
ATOM     10  O   UNL     1      -0.245  -3.974   3.168  0.00  0.00    -0.153 OA
BRANCH   8  11
ATOM     11  N   UNL     1       1.581  -2.519   2.358  0.00  0.00    -0.187 NA
ATOM     12  H   UNL     1       2.291  -1.987   2.750  0.00  0.00    +0.148 HD
BRANCH  11  13
ATOM     13  C   UNL     1       0.872  -2.034   1.171  0.00  0.00    +0.076 C 
ATOM     14  C   UNL     1       1.656  -2.421  -0.085  0.00  0.00    +0.026 C 
BRANCH  13  15
ATOM     15  C   UNL     1       0.742  -0.511   1.242  0.00  0.00    +0.004 C 
ATOM     16  C   UNL     1      -0.042  -0.124   2.497  0.00  0.00    +0.009 C 
BRANCH  15  18
ATOM     17  C   UNL     1      -0.019   1.526   0.010  0.00  0.00    +0.004 C 
ATOM     18  C   UNL     1       0.002  -0.004   0.002  0.00  0.00    +0.001 C 
ENDBRANCH  15  18
ENDBRANCH  13  15
ENDBRANCH  11  13
ENDBRANCH   8  11
ENDBRANCH   1   8
BRANCH   4  19
ATOM     19  C   UNL     1       2.487  -8.198  -0.969  0.00  0.00    -0.068 C 
ATOM     20  C   UNL     1       2.747  -9.029  -1.757  0.00  0.00    -0.117 C 
BRANCH  20  21
ATOM     21  C   UNL     1       3.072 -10.071  -2.744  0.00  0.00    +0.005 C 
BRANCH  21  22
ATOM     22  N   UNL     1       4.450 -10.534  -2.531  0.00  0.00    +0.385 N 
ATOM     23  H   UNL     1       4.537 -10.913  -1.601  0.00  0.00    -0.089 HD
ATOM     24  H   UNL     1       4.673 -11.248  -3.208  0.00  0.00    -0.089 HD
ATOM     25  H   UNL     1       5.086  -9.758  -2.640  0.00  0.00    -0.089 HD
ENDBRANCH  21  22
ENDBRANCH  20  21
ENDBRANCH   4  19
TORSDOF 8
