REMARK  Name = ZINC15226796
REMARK  8 active torsions:
REMARK  status: ('A' for Active; 'I' for Inactive)
REMARK    1  A    between atoms: C_1  and  O_2
REMARK    2  A    between atoms: O_2  and  C_3
REMARK    3  A    between atoms: C_5  and  C_13
REMARK    4  A    between atoms: C_7  and  O_11
REMARK    5  A    between atoms: C_8  and  O_9
REMARK    6  A    between atoms: O_9  and  C_10
REMARK    7  A    between atoms: O_11  and  C_12
REMARK    8  A    between atoms: N_14  and  N_15
REMARK                            x       y       z     vdW  Elec       q    Type
REMARK                         _______ _______ _______ _____ _____    ______ ____
ROOT
ATOM      1  N   UNL     1      -7.194   0.363   0.056  0.00  0.00    -0.113 NA
ATOM      2  C   UNL     1      -8.355  -0.252   0.064  0.00  0.00    +0.239 C 
ATOM      3  N   UNL     1      -8.449  -1.637   0.069  0.00  0.00    -0.234 N 
ATOM      4  N   UNL     1      -8.877  -2.281  -1.096  0.00  0.00    -0.253 N 
ATOM      5  C   UNL     1     -10.084  -1.961  -1.673  0.00  0.00    +0.089 C 
ATOM      6  N   UNL     1     -11.005  -2.858  -1.814  0.00  0.00    -0.389 N 
ATOM      7  C   UNL     1     -10.316  -0.537  -2.140  0.00  0.00    +0.147 C 
ATOM      8  C   UNL     1     -10.512   0.322  -0.909  0.00  0.00    +0.147 A 
ATOM      9  N   UNL     1      -9.550   0.446   0.074  0.00  0.00    -0.254 N 
ATOM     10  C   UNL     1     -10.048   1.326   0.974  0.00  0.00    +0.232 A 
ATOM     11  N   UNL     1     -11.246   1.658   0.564  0.00  0.00    -0.137 NA
ATOM     12  N   UNL     1     -11.517   1.052  -0.555  0.00  0.00    -0.134 NA
ATOM     13  H   UNL     1      -8.316  -2.961  -1.502  0.00  0.00    +0.171 HD
ATOM     14  H   UNL     1     -10.847  -3.767  -1.512  0.00  0.00    +0.157 HD
ATOM     15  H   UNL     1      -8.224  -2.147   0.862  0.00  0.00    +0.173 HD
ATOM     16  H   UNL     1     -11.853  -2.623  -2.222  0.00  0.00    +0.157 HD
ENDROOT
BRANCH   1  18
ATOM     17  C   UNL     1      -4.854   0.229   0.038  0.00  0.00    +0.143 C 
ATOM     18  N   UNL     1      -6.007  -0.382   0.046  0.00  0.00    -0.154 NA
BRANCH  17  21
ATOM     19  C   UNL     1      -1.201  -0.638   0.010  0.00  0.00    +0.166 A 
ATOM     20  C   UNL     1      -2.370   0.100   0.019  0.00  0.00    +0.059 A 
ATOM     21  C   UNL     1      -3.607  -0.552   0.028  0.00  0.00    +0.002 A 
ATOM     22  C   UNL     1      -3.657  -1.950   0.027  0.00  0.00    +0.059 A 
ATOM     23  C   UNL     1      -2.483  -2.682   0.017  0.00  0.00    +0.166 A 
ATOM     24  C   UNL     1      -1.254  -2.029   0.003  0.00  0.00    +0.204 A 
BRANCH  19  26
ATOM     25  C   UNL     1      -0.017   1.425   0.010  0.00  0.00    +0.277 C 
ATOM     26  O   UNL     1       0.002  -0.004   0.002  0.00  0.00    -0.491 OA
ENDBRANCH  19  26
BRANCH  24  27
ATOM     27  O   UNL     1      -0.102  -2.751  -0.012  0.00  0.00    -0.488 OA
ATOM     28  C   UNL     1       0.460  -3.103   1.254  0.00  0.00    +0.277 C 
ENDBRANCH  24  27
BRANCH  23  29
ATOM     29  O   UNL     1      -2.530  -4.041   0.016  0.00  0.00    -0.491 OA
ATOM     30  C   UNL     1      -3.825  -4.645   0.025  0.00  0.00    +0.277 C 
ENDBRANCH  23  29
ENDBRANCH  17  21
ENDBRANCH   1  18
TORSDOF 5
