REMARK  Name = ZINC59170569
REMARK  6 active torsions:
REMARK  status: ('A' for Active; 'I' for Inactive)
REMARK    1  A    between atoms: C_5  and  N_7
REMARK    2  A    between atoms: C_8  and  C_10
REMARK    3  A    between atoms: C_15  and  O_31
REMARK    4  A    between atoms: N_20  and  C_21
REMARK    5  A    between atoms: C_24  and  S_27
REMARK    6  A    between atoms: S_27  and  N_30
REMARK                            x       y       z     vdW  Elec       q    Type
REMARK                         _______ _______ _______ _____ _____    ______ ____
ROOT
ATOM      1  C   UNL     1       0.131  -4.212   0.251  0.00  0.00    +0.098 A 
ATOM      2  C   UNL     1      -1.052  -4.938   0.246  0.00  0.00    +0.030 A 
ATOM      3  C   UNL     1      -0.971  -6.351   0.314  0.00  0.00    +0.018 A 
ATOM      4  C   UNL     1      -2.115  -7.138   0.111  0.00  0.00    +0.015 A 
ATOM      5  C   UNL     1      -2.018  -8.498   0.137  0.00  0.00    +0.046 A 
ATOM      6  C   UNL     1      -0.790  -9.115   0.370  0.00  0.00    +0.120 A 
ATOM      7  C   UNL     1       0.348  -8.354   0.592  0.00  0.00    +0.092 A 
ATOM      8  C   UNL     1       0.266  -6.972   0.577  0.00  0.00    +0.141 A 
ATOM      9  O   UNL     1       1.363  -6.218   0.836  0.00  0.00    -0.438 OA
ATOM     10  C   UNL     1       1.395  -4.975   0.286  0.00  0.00    +0.212 A 
ATOM     11  N   UNL     1       2.510  -4.467  -0.194  0.00  0.00    -0.325 N 
ATOM     12  H   UNL     1       2.490  -3.630  -0.683  0.00  0.00    +0.169 HD
ENDROOT
BRANCH  11  13
ATOM     13  C   UNL     1       3.696  -5.120  -0.003  0.00  0.00    +0.042 A 
ATOM     14  C   UNL     1       4.012  -5.648   1.252  0.00  0.00    +0.027 A 
ATOM     15  C   UNL     1       5.210  -6.306   1.437  0.00  0.00    +0.030 A 
ATOM     16  C   UNL     1       6.098  -6.444   0.384  0.00  0.00    +0.105 A 
ATOM     17  C   UNL     1       5.791  -5.924  -0.861  0.00  0.00    +0.030 A 
ATOM     18  C   UNL     1       4.594  -5.268  -1.062  0.00  0.00    +0.027 A 
BRANCH  16  19
ATOM     19  S   UNL     1       7.626  -7.286   0.630  0.00  0.00    +0.056 S 
ATOM     20  O   UNL     1       8.519  -6.806  -0.366  0.00  0.00    -0.153 OA
ATOM     21  O   UNL     1       7.917  -7.202   2.018  0.00  0.00    -0.153 OA
BRANCH  19  22
ATOM     22  N   UNL     1       7.362  -8.887   0.298  0.00  0.00    -0.204 NA
ATOM     23  H   UNL     1       8.083  -9.435  -0.050  0.00  0.00    +0.144 HD
ATOM     24  H   UNL     1       6.487  -9.276   0.451  0.00  0.00    +0.144 HD
ENDBRANCH  19  22
ENDBRANCH  16  19
ENDBRANCH  11  13
BRANCH   1  26
ATOM     25  N   UNL     1       1.284  -2.061   0.336  0.00  0.00    -0.280 N 
ATOM     26  C   UNL     1       0.127  -2.741   0.216  0.00  0.00    +0.253 C 
ATOM     27  O   UNL     1      -0.921  -2.139   0.078  0.00  0.00    -0.270 OA
ATOM     28  H   UNL     1       2.124  -2.541   0.399  0.00  0.00    +0.155 HD
BRANCH  25  33
ATOM     29  C   UNL     1       0.181   1.419  -0.107  0.00  0.00    +0.002 A 
ATOM     30  C   UNL     1       1.250   2.104   0.440  0.00  0.00    +0.002 A 
ATOM     31  C   UNL     1       2.331   1.411   0.952  0.00  0.00    +0.022 A 
ATOM     32  C   UNL     1       2.346   0.029   0.919  0.00  0.00    +0.062 A 
ATOM     33  C   UNL     1       1.272  -0.662   0.371  0.00  0.00    +0.052 A 
ATOM     34  C   UNL     1       0.189   0.038  -0.142  0.00  0.00    +0.025 A 
ATOM     35 CL   UNL     1       3.704  -0.841   1.562  0.00  0.00    -0.082 Cl
ENDBRANCH  25  33
ENDBRANCH   1  26
BRANCH   6  36
ATOM     36  O   UNL     1      -0.708 -10.470   0.382  0.00  0.00    -0.507 OA
ATOM     37  H   UNL     1      -0.517 -10.859  -0.483  0.00  0.00    +0.292 HD
ENDBRANCH   6  36
TORSDOF 6
