REMARK  Name = ZINC59876094
REMARK  15 active torsions:
REMARK  status: ('A' for Active; 'I' for Inactive)
REMARK    1  A    between atoms: C_1  and  C_2
REMARK    2  A    between atoms: C_2  and  N_3
REMARK    3  A    between atoms: N_3  and  C_4
REMARK    4  A    between atoms: N_3  and  C_6
REMARK    5  A    between atoms: C_4  and  C_5
REMARK    6  A    between atoms: C_6  and  C_8
REMARK    7  A    between atoms: C_6  and  C_28
REMARK    8  A    between atoms: C_8  and  N_9
REMARK    9  A    between atoms: C_10  and  C_12
REMARK   10  A    between atoms: C_12  and  C_13
REMARK   11  A    between atoms: C_13  and  C_14
REMARK   12  A    between atoms: C_14  and  C_15
REMARK   13  A    between atoms: C_15  and  C_16
REMARK   14  A    between atoms: C_32  and  O_34
REMARK   15  A    between atoms: O_34  and  C_35
REMARK                            x       y       z     vdW  Elec       q    Type
REMARK                         _______ _______ _______ _____ _____    ______ ____
ROOT
ATOM      1  N   UNL     1       0.263  -2.347  -1.805  0.00  0.00    -0.317 N 
ATOM      2  C   UNL     1       0.794  -3.351  -1.079  0.00  0.00    +0.213 C 
ATOM      3  O   UNL     1       1.708  -3.129  -0.313  0.00  0.00    -0.276 OA
ATOM      4  H   UNL     1      -0.514  -2.510  -2.362  0.00  0.00    +0.149 HD
ENDROOT
BRANCH   1   5
ATOM      5  C   UNL     1       0.859  -1.010  -1.751  0.00  0.00    +0.093 C 
BRANCH   5   6
ATOM      6  C   UNL     1      -0.010  -0.032  -2.544  0.00  0.00    -0.020 C 
BRANCH   6   7
ATOM      7  C   UNL     1       0.536   1.364  -2.389  0.00  0.00    -0.056 A 
ATOM      8  C   UNL     1       1.858   1.554  -2.031  0.00  0.00    +0.002 A 
ATOM      9  C   UNL     1       2.361   2.833  -1.888  0.00  0.00    +0.004 A 
ATOM     10  C   UNL     1       1.544   3.926  -2.103  0.00  0.00    +0.045 A 
ATOM     11  C   UNL     1       0.217   3.739  -2.462  0.00  0.00    +0.120 A 
ATOM     12  C   UNL     1      -0.284   2.454  -2.611  0.00  0.00    +0.047 A 
BRANCH  11  13
ATOM     13  O   UNL     1      -0.589   4.813  -2.674  0.00  0.00    -0.495 OA
ATOM     14  C   UNL     1      -0.003   6.106  -2.508  0.00  0.00    +0.277 C 
ENDBRANCH  11  13
ENDBRANCH   6   7
BRANCH   6  15
ATOM     15  N   UNL     1      -1.388  -0.079  -2.037  0.00  0.00    +0.385 N 
ATOM     16  H   UNL     1      -1.597  -1.012  -1.717  0.00  0.00    -0.081 HD
BRANCH  15  18
ATOM     17  C   UNL     1      -0.506   0.532   0.164  0.00  0.00    -0.017 C 
ATOM     18  C   UNL     1      -1.531   0.866  -0.921  0.00  0.00    -0.081 C 
ENDBRANCH  15  18
BRANCH  15  19
ATOM     19  C   UNL     1      -2.318   0.290  -3.113  0.00  0.00    -0.081 C 
ATOM     20  C   UNL     1      -2.326  -0.808  -4.178  0.00  0.00    -0.017 C 
ENDBRANCH  15  19
ENDBRANCH   6  15
ENDBRANCH   5   6
ENDBRANCH   1   5
BRANCH   2  21
ATOM     21  C   UNL     1       0.252  -4.751  -1.220  0.00  0.00    +0.096 C 
BRANCH  21  22
ATOM     22  C   UNL     1       0.937  -5.667  -0.204  0.00  0.00    +0.009 C 
BRANCH  22  23
ATOM     23  C   UNL     1       0.387  -7.088  -0.346  0.00  0.00    +0.002 C 
BRANCH  23  24
ATOM     24  C   UNL     1       1.071  -8.004   0.670  0.00  0.00    +0.016 C 
BRANCH  24  25
ATOM     25  C   UNL     1       0.521  -9.425   0.527  0.00  0.00    +0.069 C 
ATOM     26  C   UNL     1       1.219 -10.390   1.509  0.00  0.00    +0.108 C 
ATOM     27  C   UNL     1       0.270 -11.405   2.153  0.00  0.00    +0.105 C 
ATOM     28  C   UNL     1      -1.199 -11.254   1.701  0.00  0.00    +0.093 C 
ATOM     29  S   UNL     1      -1.229  -9.519   1.104  0.00  0.00    -0.154 S 
ATOM     30  N   UNL     1       0.354 -11.109   3.592  0.00  0.00    -0.294 N 
ATOM     31  C   UNL     1       1.207 -10.092   3.780  0.00  0.00    +0.300 C 
ATOM     32  O   UNL     1       1.467  -9.639   4.877  0.00  0.00    -0.253 OA
ATOM     33  N   UNL     1       1.737  -9.622   2.652  0.00  0.00    -0.294 N 
ATOM     34  H   UNL     1      -0.130 -11.574   4.292  0.00  0.00    +0.151 HD
ATOM     35  H   UNL     1       2.370  -8.889   2.598  0.00  0.00    +0.151 HD
ENDBRANCH  24  25
ENDBRANCH  23  24
ENDBRANCH  22  23
ENDBRANCH  21  22
ENDBRANCH   2  21
TORSDOF 12
