REMARK  Name = ZINC06332996
REMARK  8 active torsions:
REMARK  status: ('A' for Active; 'I' for Inactive)
REMARK    1  A    between atoms: C_3  and  S_23
REMARK    2  A    between atoms: C_6  and  C_7
REMARK    3  A    between atoms: C_7  and  C_8
REMARK    4  A    between atoms: C_8  and  N_9
REMARK    5  A    between atoms: N_9  and  C_10
REMARK    6  A    between atoms: C_10  and  N_12
REMARK    7  A    between atoms: N_12  and  C_13
REMARK    8  A    between atoms: S_23  and  N_26
REMARK                            x       y       z     vdW  Elec       q    Type
REMARK                         _______ _______ _______ _____ _____    ______ ____
ROOT
ATOM      1  C   UNL     1       0.203  -0.525   1.437  0.00  0.00    +0.108 C 
ENDROOT
BRANCH   1   2
ATOM      2  N   UNL     1       0.129  -1.988   1.431  0.00  0.00    -0.326 N 
ATOM      3  H   UNL     1       0.065  -2.467   0.590  0.00  0.00    +0.148 HD
BRANCH   2   4
ATOM      4  C   UNL     1       0.149  -2.668   2.595  0.00  0.00    +0.130 C 
ATOM      5  S   UNL     1       0.262  -1.822   4.079  0.00  0.00    -0.019 S 
BRANCH   4   6
ATOM      6  N   UNL     1       0.081  -4.014   2.590  0.00  0.00    -0.323 N 
ATOM      7  H   UNL     1       0.018  -4.494   1.749  0.00  0.00    +0.148 HD
BRANCH   6   8
ATOM      8  C   UNL     1       0.103  -4.753   3.854  0.00  0.00    +0.075 C 
ATOM      9  C   UNL     1      -0.497  -6.165   3.664  0.00  0.00    +0.026 C 
ATOM     10  C   UNL     1       0.667  -7.140   4.022  0.00  0.00    -0.009 C 
ATOM     11  C   UNL     1       1.683  -6.982   2.850  0.00  0.00    +0.004 C 
ATOM     12  C   UNL     1       2.283  -5.570   3.040  0.00  0.00    +0.005 C 
ATOM     13  C   UNL     1       1.573  -5.008   4.310  0.00  0.00    +0.010 C 
ATOM     14  C   UNL     1       1.393  -6.323   5.148  0.00  0.00    +0.009 C 
ENDBRANCH   6   8
ENDBRANCH   4   6
ENDBRANCH   2   4
ENDBRANCH   1   2
BRANCH   1  15
ATOM     15  C   UNL     1       0.162  -0.007  -0.003  0.00  0.00    +0.054 C 
BRANCH  15  21
ATOM     16  C   UNL     1      -0.921   2.249   0.056  0.00  0.00    +0.005 A 
ATOM     17  C   UNL     1      -0.851   3.629   0.065  0.00  0.00    +0.029 A 
ATOM     18  C   UNL     1       0.378   4.259   0.013  0.00  0.00    +0.105 A 
ATOM     19  C   UNL     1       1.538   3.509  -0.045  0.00  0.00    +0.029 A 
ATOM     20  C   UNL     1       1.468   2.128  -0.051  0.00  0.00    +0.005 A 
ATOM     21  C   UNL     1       0.238   1.498   0.003  0.00  0.00    -0.046 A 
BRANCH  18  22
ATOM     22  S   UNL     1       0.468   6.019   0.020  0.00  0.00    +0.056 S 
ATOM     23  O   UNL     1      -0.729   6.484   0.630  0.00  0.00    -0.153 OA
ATOM     24  O   UNL     1       1.756   6.358   0.514  0.00  0.00    -0.153 OA
BRANCH  22  25
ATOM     25  N   UNL     1       0.419   6.518  -1.558  0.00  0.00    -0.204 NA
ATOM     26  H   UNL     1       0.032   7.378  -1.783  0.00  0.00    +0.144 HD
ATOM     27  H   UNL     1       0.779   5.950  -2.258  0.00  0.00    +0.144 HD
ENDBRANCH  22  25
ENDBRANCH  18  22
ENDBRANCH  15  21
ENDBRANCH   1  15
TORSDOF 8
