REMARK  Name = ZINC36552061
REMARK  12 active torsions:
REMARK  status: ('A' for Active; 'I' for Inactive)
REMARK    1  A    between atoms: C_1  and  C_2
REMARK    2  A    between atoms: C_2  and  C_3
REMARK    3  A    between atoms: C_3  and  C_4
REMARK    4  A    between atoms: C_4  and  N_5
REMARK    5  A    between atoms: C_6  and  C_8
REMARK    6  A    between atoms: C_8  and  C_10
REMARK    7  A    between atoms: C_8  and  N_17
REMARK    8  A    between atoms: C_14  and  O_16
REMARK    9  A    between atoms: N_17  and  C_18
REMARK   10  A    between atoms: C_25  and  C_27
REMARK   11  A    between atoms: C_27  and  C_28
REMARK   12  A    between atoms: C_27  and  C_34
REMARK                            x       y       z     vdW  Elec       q    Type
REMARK                         _______ _______ _______ _____ _____    ______ ____
ROOT
ATOM      1  N   UNL     1       2.539  -5.723  -4.450  0.00  0.00    -0.255 N 
ATOM      2  C   UNL     1       1.689  -6.163  -5.399  0.00  0.00    +0.232 C 
ATOM      3  O   UNL     1       1.038  -5.369  -6.046  0.00  0.00    -0.274 OA
ENDROOT
BRANCH   1   4
ATOM      4  C   UNL     1       3.364  -6.629  -3.776  0.00  0.00    +0.039 A 
ATOM      5  C   UNL     1       3.237  -6.798  -2.403  0.00  0.00    +0.023 A 
ATOM      6  C   UNL     1       4.053  -7.693  -1.739  0.00  0.00    +0.003 A 
ATOM      7  C   UNL     1       4.996  -8.421  -2.440  0.00  0.00    +0.020 A 
ATOM      8  C   UNL     1       5.126  -8.256  -3.808  0.00  0.00    +0.043 A 
ATOM      9  C   UNL     1       4.308  -7.366  -4.478  0.00  0.00    +0.043 A 
ATOM     10 CL   UNL     1       6.313  -9.172  -4.684  0.00  0.00    -0.083 Cl
ENDBRANCH   1   4
BRANCH   1  11
ATOM     11  C   UNL     1       2.598  -4.296  -4.125  0.00  0.00    +0.197 C 
BRANCH  11  12
ATOM     12  C   UNL     1       4.013  -3.802  -4.287  0.00  0.00    -0.014 A 
ATOM     13  C   UNL     1       5.043  -4.420  -3.602  0.00  0.00    +0.006 A 
ATOM     14  C   UNL     1       6.342  -3.970  -3.748  0.00  0.00    +0.004 A 
ATOM     15  C   UNL     1       6.613  -2.900  -4.580  0.00  0.00    +0.045 A 
ATOM     16  C   UNL     1       5.582  -2.279  -5.268  0.00  0.00    +0.117 A 
ATOM     17  C   UNL     1       4.280  -2.736  -5.124  0.00  0.00    +0.051 A 
BRANCH  16  18
ATOM     18  O   UNL     1       5.847  -1.226  -6.087  0.00  0.00    -0.507 OA
ATOM     19  H   UNL     1       6.040  -1.478  -7.000  0.00  0.00    +0.292 HD
ENDBRANCH  16  18
ENDBRANCH  11  12
BRANCH  11  21
ATOM     20  N   UNL     1       2.539  -2.983  -2.029  0.00  0.00    -0.313 N 
ATOM     21  C   UNL     1       2.153  -4.086  -2.700  0.00  0.00    +0.238 C 
ATOM     22  O   UNL     1       1.448  -4.911  -2.157  0.00  0.00    -0.273 OA
ATOM     23  H   UNL     1       3.103  -2.324  -2.463  0.00  0.00    +0.149 HD
BRANCH  20  24
ATOM     24  C   UNL     1       2.107  -2.780  -0.644  0.00  0.00    +0.104 C 
BRANCH  24  25
ATOM     25  C   UNL     1       2.679  -1.461  -0.119  0.00  0.00    +0.018 C 
BRANCH  25  27
ATOM     26  C   UNL     1       2.799   0.070   1.851  0.00  0.00    +0.004 C 
ATOM     27  C   UNL     1       2.227  -1.248   1.327  0.00  0.00    -0.002 C 
ENDBRANCH  25  27
ENDBRANCH  24  25
ENDBRANCH  20  24
ENDBRANCH  11  21
ENDBRANCH   1  11
BRANCH   2  28
ATOM     28  C   UNL     1       1.546  -7.641  -5.657  0.00  0.00    +0.135 C 
BRANCH  28  29
ATOM     29  C   UNL     1       0.935  -8.304  -4.450  0.00  0.00    -0.031 A 
ATOM     30  C   UNL     1      -0.055  -7.658  -3.733  0.00  0.00    +0.005 A 
ATOM     31  C   UNL     1      -0.616  -8.267  -2.626  0.00  0.00    +0.000 A 
ATOM     32  C   UNL     1      -0.188  -9.522  -2.236  0.00  0.00    +0.000 A 
ATOM     33  C   UNL     1       0.802 -10.168  -2.953  0.00  0.00    +0.000 A 
ATOM     34  C   UNL     1       1.360  -9.561  -4.062  0.00  0.00    +0.005 A 
ENDBRANCH  28  29
BRANCH  28  35
ATOM     35  C   UNL     1       0.657  -7.858  -6.854  0.00  0.00    -0.031 A 
ATOM     36  C   UNL     1      -0.617  -7.323  -6.875  0.00  0.00    +0.005 A 
ATOM     37  C   UNL     1      -1.432  -7.522  -7.974  0.00  0.00    +0.000 A 
ATOM     38  C   UNL     1      -0.973  -8.258  -9.050  0.00  0.00    +0.000 A 
ATOM     39  C   UNL     1       0.301  -8.793  -9.029  0.00  0.00    +0.000 A 
ATOM     40  C   UNL     1       1.118  -8.589  -7.933  0.00  0.00    +0.005 A 
ENDBRANCH  28  35
ENDBRANCH   2  28
TORSDOF 11
