REMARK  Name = ZINC38974930
REMARK  8 active torsions:
REMARK  status: ('A' for Active; 'I' for Inactive)
REMARK    1  A    between atoms: C_1  and  C_2
REMARK    2  A    between atoms: C_2  and  C_3
REMARK    3  A    between atoms: C_3  and  C_5
REMARK    4  A    between atoms: C_3  and  C_6
REMARK    5  A    between atoms: C_9  and  N_12
REMARK    6  A    between atoms: N_12  and  C_13
REMARK    7  A    between atoms: N_16  and  S_17
REMARK    8  A    between atoms: S_17  and  C_20
REMARK                            x       y       z     vdW  Elec       q    Type
REMARK                         _______ _______ _______ _____ _____    ______ ____
ROOT
ATOM      1  C   UNL     1       2.547  -6.773   0.869  0.00  0.00    +0.237 C 
ATOM      2  C   UNL     1       2.530  -7.686  -0.336  0.00  0.00    +0.192 C 
ATOM      3  N   UNL     1       2.245  -7.218  -1.515  0.00  0.00    -0.110 NA
ATOM      4  N   UNL     1       2.814  -8.988  -0.171  0.00  0.00    -0.226 NA
ATOM      5  C   UNL     1       3.106  -9.486   1.012  0.00  0.00    +0.089 A 
ATOM      6  C   UNL     1       3.401 -10.867   1.150  0.00  0.00    +0.030 A 
ATOM      7  C   UNL     1       3.701 -11.383   2.361  0.00  0.00    +0.002 A 
ATOM      8  C   UNL     1       3.738 -10.606   3.531  0.00  0.00    +0.002 A 
ATOM      9  C   UNL     1       3.473  -9.281   3.512  0.00  0.00    +0.027 A 
ATOM     10  C   UNL     1       3.138  -8.641   2.231  0.00  0.00    +0.063 A 
ATOM     11  N   UNL     1       2.877  -7.366   2.175  0.00  0.00    -0.359 N 
ATOM     12  H   UNL     1       2.900  -6.819   2.976  0.00  0.00    +0.162 HD
ENDROOT
BRANCH   3  13
ATOM     13  S   UNL     1       2.231  -8.229  -2.827  0.00  0.00    +0.103 S 
ATOM     14  O   UNL     1       3.570  -8.662  -3.020  0.00  0.00    -0.146 OA
ATOM     15  O   UNL     1       1.157  -9.138  -2.627  0.00  0.00    -0.146 OA
BRANCH  13  16
ATOM     16  C   UNL     1       1.809  -7.253  -4.232  0.00  0.00    +0.141 A 
ATOM     17  C   UNL     1       2.707  -7.082  -5.230  0.00  0.00    +0.031 A 
ATOM     18  C   UNL     1       2.408  -6.317  -6.357  0.00  0.00    +0.004 A 
ATOM     19  C   UNL     1       1.206  -5.712  -6.502  0.00  0.00    +0.031 A 
ATOM     20  C   UNL     1       0.213  -5.847  -5.494  0.00  0.00    +0.102 A 
ATOM     21  C   UNL     1       0.524  -6.652  -4.318  0.00  0.00    +0.127 A 
ATOM     22  N   UNL     1      -0.481  -6.712  -3.443  0.00  0.00    -0.189 NA
ATOM     23  S   UNL     1      -1.669  -5.838  -4.085  0.00  0.00    +0.117 S 
ATOM     24  N   UNL     1      -1.015  -5.328  -5.464  0.00  0.00    -0.191 NA
ENDBRANCH  13  16
ENDBRANCH   3  13
BRANCH   1  25
ATOM     25  N   UNL     1       1.223  -6.155   0.980  0.00  0.00    -0.318 N 
ATOM     26  H   UNL     1       0.427  -6.709   0.973  0.00  0.00    +0.148 HD
BRANCH  25  30
ATOM     27  C   UNL     1       0.879  -2.020   1.325  0.00  0.00    -0.044 A 
ATOM     28  C   UNL     1       2.125  -2.616   1.389  0.00  0.00    +0.006 A 
ATOM     29  C   UNL     1       2.243  -3.987   1.275  0.00  0.00    +0.023 A 
ATOM     30  C   UNL     1       1.108  -4.768   1.096  0.00  0.00    +0.029 A 
ATOM     31  C   UNL     1      -0.142  -4.166   1.032  0.00  0.00    +0.023 A 
ATOM     32  C   UNL     1      -0.254  -2.795   1.153  0.00  0.00    +0.006 A 
BRANCH  27  33
ATOM     33  C   UNL     1       0.754  -0.523   1.450  0.00  0.00    +0.016 C 
ATOM     34  C   UNL     1       1.539   0.149   0.322  0.00  0.00    +0.012 C 
BRANCH  33  36
ATOM     35  C   UNL     1       1.077   1.425   2.980  0.00  0.00    +0.004 C 
ATOM     36  C   UNL     1       1.316  -0.075   2.800  0.00  0.00    +0.004 C 
ENDBRANCH  33  36
ENDBRANCH  27  33
ENDBRANCH  25  30
ENDBRANCH   1  25
TORSDOF 6
