REMARK  Name = ZINC34785658
REMARK  9 active torsions:
REMARK  status: ('A' for Active; 'I' for Inactive)
REMARK    1  A    between atoms: C_1  and  O_2
REMARK    2  A    between atoms: O_2  and  C_3
REMARK    3  A    between atoms: C_6  and  C_9
REMARK    4  A    between atoms: C_9  and  C_10
REMARK    5  A    between atoms: C_10  and  N_11
REMARK    6  A    between atoms: N_14  and  C_15
REMARK    7  A    between atoms: C_16  and  C_28
REMARK    8  A    between atoms: N_18  and  C_21
REMARK    9  A    between atoms: C_19  and  N_20
REMARK                            x       y       z     vdW  Elec       q    Type
REMARK                         _______ _______ _______ _____ _____    ______ ____
ROOT
ATOM      1  C   UNL     1      -9.173  -4.901  -3.740  0.00  0.00    +0.103 A 
ATOM      2  C   UNL     1     -10.511  -5.327  -3.875  0.00  0.00    +0.116 A 
ATOM      3  N   UNL     1     -10.709  -5.668  -5.133  0.00  0.00    -0.163 NA
ATOM      4  N   UNL     1      -9.515  -5.473  -5.837  0.00  0.00    -0.216 N 
ATOM      5  C   UNL     1      -8.583  -4.995  -4.965  0.00  0.00    +0.142 A 
ENDROOT
BRANCH   4   6
ATOM      6  C   UNL     1      -9.314  -5.721  -7.202  0.00  0.00    +0.068 A 
ATOM      7  C   UNL     1      -8.466  -4.906  -7.939  0.00  0.00    +0.030 A 
ATOM      8  C   UNL     1      -8.270  -5.152  -9.284  0.00  0.00    +0.040 A 
ATOM      9  C   UNL     1      -8.919  -6.210  -9.897  0.00  0.00    +0.124 A 
ATOM     10  C   UNL     1      -9.765  -7.024  -9.164  0.00  0.00    +0.040 A 
ATOM     11  C   UNL     1      -9.960  -6.785  -7.817  0.00  0.00    +0.030 A 
ATOM     12  F   UNL     1      -8.726  -6.449 -11.213  0.00  0.00    -0.205 F 
ENDBRANCH   4   6
BRANCH   2  13
ATOM     13  C   UNL     1     -11.520  -5.382  -2.790  0.00  0.00    +0.004 A 
ATOM     14  C   UNL     1     -11.128  -5.677  -1.485  0.00  0.00    +0.011 A 
ATOM     15  C   UNL     1     -12.071  -5.726  -0.478  0.00  0.00    +0.020 A 
ATOM     16  C   UNL     1     -13.404  -5.483  -0.763  0.00  0.00    +0.041 A 
ATOM     17  C   UNL     1     -13.798  -5.189  -2.057  0.00  0.00    +0.020 A 
ATOM     18  C   UNL     1     -12.863  -5.132  -3.070  0.00  0.00    +0.011 A 
ATOM     19 CL   UNL     1     -14.585  -5.547   0.508  0.00  0.00    -0.084 Cl
ENDBRANCH   2  13
BRANCH   1  23
ATOM     20  N   UNL     1      -8.709  -3.385  -0.482  0.00  0.00    -0.299 N 
ATOM     21  C   UNL     1      -9.263  -3.725  -1.662  0.00  0.00    +0.304 C 
ATOM     22  O   UNL     1     -10.398  -3.376  -1.925  0.00  0.00    -0.253 OA
ATOM     23  N   UNL     1      -8.559  -4.452  -2.552  0.00  0.00    -0.265 N 
ATOM     24  H   UNL     1      -7.804  -3.663  -0.273  0.00  0.00    +0.150 HD
ATOM     25  H   UNL     1      -7.629  -4.667  -2.376  0.00  0.00    +0.157 HD
BRANCH  20  26
ATOM     26  C   UNL     1      -9.474  -2.594   0.486  0.00  0.00    +0.110 C 
BRANCH  26  27
ATOM     27  C   UNL     1      -8.621  -2.347   1.732  0.00  0.00    +0.054 C 
BRANCH  27  31
ATOM     28  C   UNL     1     -10.854  -0.042   4.553  0.00  0.00    +0.120 A 
ATOM     29  C   UNL     1     -10.914  -1.428   4.585  0.00  0.00    +0.046 A 
ATOM     30  C   UNL     1     -10.192  -2.171   3.672  0.00  0.00    +0.007 A 
ATOM     31  C   UNL     1      -9.409  -1.534   2.727  0.00  0.00    -0.046 A 
ATOM     32  C   UNL     1      -9.346  -0.154   2.693  0.00  0.00    +0.007 A 
ATOM     33  C   UNL     1     -10.071   0.594   3.601  0.00  0.00    +0.046 A 
BRANCH  28  35
ATOM     34  C   UNL     1     -12.347  -0.031   6.403  0.00  0.00    +0.277 C 
ATOM     35  O   UNL     1     -11.564   0.691   5.451  0.00  0.00    -0.495 OA
ENDBRANCH  28  35
ENDBRANCH  27  31
ENDBRANCH  26  27
ENDBRANCH  20  26
ENDBRANCH   1  23
BRANCH   5  36
ATOM     36  N   UNL     1      -7.261  -4.665  -5.270  0.00  0.00    -0.342 N 
ATOM     37  H   UNL     1      -6.704  -4.231  -4.605  0.00  0.00    +0.144 HD
ATOM     38  H   UNL     1      -6.901  -4.869  -6.147  0.00  0.00    +0.144 HD
ENDBRANCH   5  36
TORSDOF 8
