REMARK  Name = ZINC21259592
REMARK  9 active torsions:
REMARK  status: ('A' for Active; 'I' for Inactive)
REMARK    1  A    between atoms: C_1  and  C_2
REMARK    2  A    between atoms: C_2  and  C_3
REMARK    3  A    between atoms: C_2  and  C_4
REMARK    4  A    between atoms: C_2  and  C_5
REMARK    5  A    between atoms: C_8  and  C_11
REMARK    6  A    between atoms: C_16  and  C_22
REMARK    7  A    between atoms: C_24  and  N_31
REMARK    8  A    between atoms: C_26  and  O_28
REMARK    9  A    between atoms: O_28  and  C_29
REMARK                            x       y       z     vdW  Elec       q    Type
REMARK                         _______ _______ _______ _____ _____    ______ ____
ROOT
ATOM      1  C   UNL     1       3.399   1.942   1.067  0.00  0.00    +0.032 C 
ATOM      2  C   UNL     1       2.431   0.941   0.430  0.00  0.00    +0.059 C 
ATOM      3  C   UNL     1       1.175   1.655  -0.000  0.00  0.00    +0.018 C 
ATOM      4  C   UNL     1       1.212   2.947  -0.390  0.00  0.00    +0.020 C 
ATOM      5  C   UNL     1      -0.058   3.639  -0.827  0.00  0.00    +0.063 C 
ATOM      6  C   UNL     1      -1.232   3.116   0.002  0.00  0.00    +0.109 C 
ATOM      7  C   UNL     1      -1.191   1.610   0.017  0.00  0.00    +0.218 C 
ATOM      8  O   UNL     1      -2.225   0.977   0.040  0.00  0.00    -0.275 OA
ATOM      9  N   UNL     1      -0.011   0.966   0.007  0.00  0.00    -0.289 N 
ATOM     10  C   UNL     1       2.414   3.675  -0.396  0.00  0.00    +0.162 C 
ATOM     11  O   UNL     1       2.410   4.833  -0.763  0.00  0.00    -0.292 OA
ATOM     12  C   UNL     1       3.707   3.041   0.045  0.00  0.00    +0.088 C 
ATOM     13  H   UNL     1      -0.008  -0.134   0.006  0.00  0.00    +0.155 HD
ENDROOT
BRANCH   5  14
ATOM     14  C   UNL     1      -0.307   3.356  -2.286  0.00  0.00    -0.034 A 
ATOM     15  C   UNL     1      -0.464   2.053  -2.719  0.00  0.00    +0.041 A 
ATOM     16  C   UNL     1      -0.698   1.788  -4.055  0.00  0.00    +0.177 A 
ATOM     17  C   UNL     1      -0.765   2.831  -4.966  0.00  0.00    +0.250 A 
ATOM     18  C   UNL     1      -0.602   4.142  -4.531  0.00  0.00    +0.169 A 
ATOM     19  C   UNL     1      -0.373   4.401  -3.189  0.00  0.00    +0.054 A 
ATOM     20  O   UNL     1      -0.991   2.572  -6.282  0.00  0.00    -0.282 OA
BRANCH  16  21
ATOM     21  N   UNL     1      -0.872   0.392  -4.515  0.00  0.00    +0.060 N 
ATOM     22  O   UNL     1      -0.813  -0.524  -3.714  0.00  0.00    -0.126 OA
ATOM     23  O   UNL     1      -1.073   0.159  -5.693  0.00  0.00    -0.126 OA
ENDBRANCH  16  21
BRANCH  18  24
ATOM     24  O   UNL     1      -0.667   5.169  -5.421  0.00  0.00    -0.491 OA
ATOM     25  C   UNL     1      -0.490   6.489  -4.903  0.00  0.00    +0.277 C 
ENDBRANCH  18  24
ENDBRANCH   5  14
BRANCH   1  29
ATOM     26  C   UNL     1       7.014  -0.055   2.157  0.00  0.00    -0.042 A 
ATOM     27  C   UNL     1       6.262   0.589   3.122  0.00  0.00    +0.004 A 
ATOM     28  C   UNL     1       5.093   1.235   2.769  0.00  0.00    +0.004 A 
ATOM     29  C   UNL     1       4.674   1.237   1.451  0.00  0.00    -0.043 A 
ATOM     30  C   UNL     1       5.423   0.589   0.487  0.00  0.00    +0.004 A 
ATOM     31  C   UNL     1       6.596  -0.053   0.839  0.00  0.00    +0.004 A 
BRANCH  26  33
ATOM     32  C   UNL     1       7.980  -1.856   3.562  0.00  0.00    +0.015 C 
ATOM     33  C   UNL     1       8.290  -0.759   2.542  0.00  0.00    -0.013 C 
ATOM     34  C   UNL     1       8.923  -1.384   1.297  0.00  0.00    +0.015 C 
ATOM     35  C   UNL     1       9.263   0.249   3.157  0.00  0.00    +0.015 C 
ENDBRANCH  26  33
ENDBRANCH   1  29
TORSDOF 5
