REMARK  Name = ZINC45626235
REMARK  5 active torsions:
REMARK  status: ('A' for Active; 'I' for Inactive)
REMARK    1  A    between atoms: C_4  and  N_7
REMARK    2  A    between atoms: C_8  and  C_19
REMARK    3  A    between atoms: N_9  and  N_10
REMARK    4  A    between atoms: C_11  and  C_12
REMARK    5  A    between atoms: C_16  and  O_18
REMARK                            x       y       z     vdW  Elec       q    Type
REMARK                         _______ _______ _______ _____ _____    ______ ____
ROOT
ATOM      1  N   UNL     1       3.608  -0.709  -0.055  0.00  0.00    -0.297 N 
ATOM      2  C   UNL     1       3.599  -2.088  -0.128  0.00  0.00    +0.160 C 
ATOM      3  N   UNL     1       2.455  -2.738  -0.173  0.00  0.00    -0.261 N 
ATOM      4  H   UNL     1       2.917  -0.195  -0.502  0.00  0.00    +0.154 HD
ATOM      5  H   UNL     1       2.446  -3.707  -0.141  0.00  0.00    +0.190 HD
ENDROOT
BRANCH   2   6
ATOM      6  C   UNL     1       4.870  -2.832  -0.156  0.00  0.00    +0.172 A 
ATOM      7  N   UNL     1       4.984  -4.199  -0.195  0.00  0.00    -0.336 N 
ATOM      8  H   UNL     1       4.255  -4.838  -0.209  0.00  0.00    +0.167 HD
ATOM      9  C   UNL     1       6.332  -4.491  -0.210  0.00  0.00    +0.067 A 
ATOM     10  C   UNL     1       7.062  -5.671  -0.247  0.00  0.00    +0.028 A 
ATOM     11  C   UNL     1       8.439  -5.623  -0.254  0.00  0.00    +0.002 A 
ATOM     12  C   UNL     1       9.102  -4.404  -0.223  0.00  0.00    +0.002 A 
ATOM     13  C   UNL     1       8.404  -3.232  -0.185  0.00  0.00    +0.030 A 
ATOM     14  C   UNL     1       7.003  -3.253  -0.179  0.00  0.00    +0.090 A 
ATOM     15  N   UNL     1       6.064  -2.289  -0.153  0.00  0.00    -0.225 NA
ENDBRANCH   2   6
BRANCH   1  19
ATOM     16  C   UNL     1       6.599   1.244   2.084  0.00  0.00    +0.000 A 
ATOM     17  C   UNL     1       6.040   1.848   0.973  0.00  0.00    +0.002 A 
ATOM     18  C   UNL     1       5.047   1.203   0.262  0.00  0.00    +0.023 A 
ATOM     19  C   UNL     1       4.612  -0.054   0.662  0.00  0.00    +0.032 A 
ATOM     20  C   UNL     1       5.177  -0.658   1.779  0.00  0.00    +0.023 A 
ATOM     21  C   UNL     1       6.168  -0.007   2.486  0.00  0.00    +0.002 A 
ENDBRANCH   1  19
BRANCH   3  22
ATOM     22  N   UNL     1       1.346  -2.085  -0.258  0.00  0.00    -0.180 NA
ATOM     23  C   UNL     1       0.205  -2.723  -0.201  0.00  0.00    +0.140 C 
BRANCH  23  24
ATOM     24  C   UNL     1      -1.055  -1.996  -0.413  0.00  0.00    -0.002 A 
ATOM     25  C   UNL     1      -1.035  -0.649  -0.793  0.00  0.00    +0.010 A 
ATOM     26  C   UNL     1      -2.219   0.028  -0.991  0.00  0.00    +0.004 A 
ATOM     27  C   UNL     1      -3.429  -0.619  -0.814  0.00  0.00    +0.045 A 
ATOM     28  C   UNL     1      -3.461  -1.955  -0.436  0.00  0.00    +0.117 A 
ATOM     29  C   UNL     1      -2.280  -2.648  -0.240  0.00  0.00    +0.055 A 
BRANCH  28  30
ATOM     30  O   UNL     1      -4.654  -2.584  -0.265  0.00  0.00    -0.507 OA
ATOM     31  H   UNL     1      -4.995  -3.006  -1.065  0.00  0.00    +0.292 HD
ENDBRANCH  28  30
ENDBRANCH  23  24
ENDBRANCH   3  22
TORSDOF 5
