REMARK  Name = ZINC39358091
REMARK  10 active torsions:
REMARK  status: ('A' for Active; 'I' for Inactive)
REMARK    1  A    between atoms: C_1  and  N_2
REMARK    2  A    between atoms: C_4  and  C_21
REMARK    3  A    between atoms: C_5  and  C_8
REMARK    4  A    between atoms: C_11  and  O_14
REMARK    5  A    between atoms: O_14  and  C_15
REMARK    6  A    between atoms: C_21  and  N_22
REMARK    7  A    between atoms: N_22  and  C_23
REMARK    8  A    between atoms: C_23  and  C_24
REMARK    9  A    between atoms: C_24  and  S_25
REMARK   10  A    between atoms: S_25  and  C_26
REMARK                            x       y       z     vdW  Elec       q    Type
REMARK                         _______ _______ _______ _____ _____    ______ ____
ROOT
ATOM      1  C   UNL     1       0.515   0.584  -2.147  0.00  0.00    +0.149 C 
ATOM      2  N   UNL     1       0.464  -0.819  -1.727  0.00  0.00    -0.276 N 
ATOM      3  C   UNL     1       0.528  -1.896  -2.589  0.00  0.00    +0.086 C 
ATOM      4  C   UNL     1       0.460  -3.042  -1.944  0.00  0.00    -0.049 C 
ATOM      5  C   UNL     1       0.334  -2.710  -0.473  0.00  0.00    +0.128 C 
ATOM      6  N   UNL     1       0.351  -1.234  -0.431  0.00  0.00    -0.229 NA
ATOM      7  H   UNL     1      -0.492  -0.876  -0.008  0.00  0.00    +0.145 HD
ENDROOT
BRANCH   5   8
ATOM      8  C   UNL     1       1.502  -3.271   0.296  0.00  0.00    -0.025 A 
ATOM      9  C   UNL     1       2.711  -2.600   0.301  0.00  0.00    +0.009 A 
ATOM     10  C   UNL     1       3.784  -3.112   1.006  0.00  0.00    +0.046 A 
ATOM     11  C   UNL     1       3.647  -4.300   1.709  0.00  0.00    +0.128 A 
ATOM     12  C   UNL     1       2.433  -4.972   1.702  0.00  0.00    +0.046 A 
ATOM     13  C   UNL     1       1.362  -4.453   1.000  0.00  0.00    +0.009 A 
BRANCH  11  14
ATOM     14  O   UNL     1       4.700  -4.806   2.402  0.00  0.00    -0.456 OA
BRANCH  14  15
ATOM     15  C   UNL     1       5.868  -4.110   2.386  0.00  0.00    +0.128 A 
ATOM     16  C   UNL     1       6.116  -3.147   3.353  0.00  0.00    +0.046 A 
ATOM     17  C   UNL     1       7.303  -2.441   3.335  0.00  0.00    +0.004 A 
ATOM     18  C   UNL     1       8.244  -2.694   2.354  0.00  0.00    +0.000 A 
ATOM     19  C   UNL     1       7.999  -3.653   1.389  0.00  0.00    +0.004 A 
ATOM     20  C   UNL     1       6.816  -4.366   1.406  0.00  0.00    +0.046 A 
ENDBRANCH  14  15
ENDBRANCH  11  14
ENDBRANCH   5   8
BRANCH   4  21
ATOM     21  C   UNL     1       0.499  -4.420  -2.554  0.00  0.00    -0.048 C 
BRANCH  21  22
ATOM     22  N   UNL     1       1.876  -4.931  -2.521  0.00  0.00    +0.382 N 
ATOM     23  H   UNL     1       2.476  -4.314  -3.047  0.00  0.00    -0.085 HD
ATOM     24  H   UNL     1       2.195  -4.977  -1.565  0.00  0.00    -0.085 HD
BRANCH  22  25
ATOM     25  C   UNL     1       1.914  -6.274  -3.116  0.00  0.00    -0.071 C 
BRANCH  25  26
ATOM     26  C   UNL     1       3.348  -6.806  -3.082  0.00  0.00    +0.057 C 
BRANCH  26  27
ATOM     27  S   UNL     1       3.395  -8.464  -3.816  0.00  0.00    -0.105 S 
BRANCH  27  28
ATOM     28  C   UNL     1       5.090  -8.932  -3.703  0.00  0.00    +0.138 A 
ATOM     29  C   UNL     1       5.642 -10.100  -4.128  0.00  0.00    +0.141 A 
ATOM     30  N   UNL     1       6.970 -10.014  -3.834  0.00  0.00    -0.264 N 
ATOM     31  N   UNL     1       7.185  -8.875  -3.276  0.00  0.00    -0.067 NA
ATOM     32  N   UNL     1       6.091  -8.205  -3.188  0.00  0.00    -0.123 NA
ATOM     33  H   UNL     1       7.637 -10.695  -4.015  0.00  0.00    +0.190 HD
ENDBRANCH  27  28
ENDBRANCH  26  27
ENDBRANCH  25  26
ENDBRANCH  22  25
ENDBRANCH  21  22
ENDBRANCH   4  21
TORSDOF 9
