REMARK  Name = ZINC64044156
REMARK  4 active torsions:
REMARK  status: ('A' for Active; 'I' for Inactive)
REMARK    1  A    between atoms: C_8  and  C_23
REMARK    2  A    between atoms: C_16  and  C_18
REMARK    3  A    between atoms: C_18  and  N_19
REMARK    4  A    between atoms: C_27  and  C_29
REMARK                            x       y       z     vdW  Elec       q    Type
REMARK                         _______ _______ _______ _____ _____    ______ ____
ROOT
ATOM      1  C   UNL     1      -0.301   1.111  -0.093  0.00  0.00    +0.001 A 
ATOM      2  C   UNL     1       0.834   1.934  -0.052  0.00  0.00    +0.002 A 
ATOM      3  C   UNL     1       2.089   1.440  -0.023  0.00  0.00    +0.026 A 
ATOM      4  C   UNL     1       2.313   0.037  -0.035  0.00  0.00    +0.043 A 
ATOM      5  N   UNL     1       3.420  -0.671  -0.033  0.00  0.00    -0.375 N 
ATOM      6  C   UNL     1       3.065  -2.087   0.028  0.00  0.00    +0.131 C 
ATOM      7  C   UNL     1       3.651  -2.874  -1.150  0.00  0.00    +0.133 C 
ATOM      8  N   UNL     1       2.934  -4.156  -1.238  0.00  0.00    -0.291 N 
ATOM      9  C   UNL     1       1.483  -4.186  -1.452  0.00  0.00    +0.113 C 
ATOM     10  C   UNL     1       0.785  -3.415  -0.316  0.00  0.00    +0.052 C 
ATOM     11  C   UNL     1       1.551  -2.129  -0.100  0.00  0.00    -0.035 C 
ATOM     12  C   UNL     1       1.129  -0.857  -0.085  0.00  0.00    -0.001 A 
ATOM     13  C   UNL     1      -0.202  -0.237  -0.111  0.00  0.00    +0.010 A 
ATOM     14  C   UNL     1       3.616  -5.312  -1.123  0.00  0.00    +0.233 C 
ATOM     15  O   UNL     1       4.815  -5.294  -0.948  0.00  0.00    -0.274 OA
ATOM     16  H   UNL     1       4.321  -0.314  -0.067  0.00  0.00    +0.160 HD
ENDROOT
BRANCH   7  17
ATOM     17  C   UNL     1       3.466  -2.096  -2.427  0.00  0.00    -0.024 A 
ATOM     18  C   UNL     1       2.194  -1.774  -2.862  0.00  0.00    +0.005 A 
ATOM     19  C   UNL     1       2.025  -1.060  -4.033  0.00  0.00    +0.001 A 
ATOM     20  C   UNL     1       3.127  -0.666  -4.769  0.00  0.00    +0.012 A 
ATOM     21  C   UNL     1       4.399  -0.987  -4.333  0.00  0.00    +0.055 A 
ATOM     22  C   UNL     1       4.569  -1.698  -3.159  0.00  0.00    +0.018 A 
BRANCH  21  23
ATOM     23  C   UNL     1       5.601  -0.559  -5.135  0.00  0.00    +0.417 C 
ATOM     24  F   UNL     1       5.178   0.144  -6.269  0.00  0.00    -0.166 F 
ATOM     25  F   UNL     1       6.415   0.266  -4.351  0.00  0.00    -0.166 F 
ATOM     26  F   UNL     1       6.325  -1.689  -5.530  0.00  0.00    -0.166 F 
ENDBRANCH  21  23
ENDBRANCH   7  17
BRANCH  14  27
ATOM     27  C   UNL     1       2.887  -6.629  -1.213  0.00  0.00    +0.201 C 
BRANCH  27  28
ATOM     28  N   UNL     1       3.844  -7.728  -1.058  0.00  0.00    -0.291 N 
ATOM     29  C   UNL     1       3.416  -9.005  -1.105  0.00  0.00    +0.297 C 
ATOM     30  O   UNL     1       2.236  -9.245  -1.275  0.00  0.00    -0.253 OA
ATOM     31  N   UNL     1       4.296 -10.016  -0.962  0.00  0.00    -0.313 N 
ATOM     32  H   UNL     1       4.785  -7.536  -0.923  0.00  0.00    +0.151 HD
ATOM     33  H   UNL     1       5.237  -9.824  -0.827  0.00  0.00    +0.146 HD
ATOM     34  H   UNL     1       3.988 -10.935  -0.996  0.00  0.00    +0.146 HD
ENDBRANCH  27  28
ENDBRANCH  14  27
TORSDOF 4
