REMARK  Name = ZINC66599391
REMARK  10 active torsions:
REMARK  status: ('A' for Active; 'I' for Inactive)
REMARK    1  A    between atoms: C_1  and  C_2
REMARK    2  A    between atoms: C_2  and  C_3
REMARK    3  A    between atoms: C_3  and  C_4
REMARK    4  A    between atoms: C_4  and  N_5
REMARK    5  A    between atoms: C_10  and  C_12
REMARK    6  A    between atoms: C_12  and  N_13
REMARK    7  A    between atoms: N_16  and  C_17
REMARK    8  A    between atoms: C_17  and  C_18
REMARK    9  A    between atoms: C_18  and  C_19
REMARK   10  A    between atoms: C_19  and  N_20
REMARK                            x       y       z     vdW  Elec       q    Type
REMARK                         _______ _______ _______ _____ _____    ______ ____
ROOT
ATOM      1  N   UNL     1      -0.856  -3.453   3.594  0.00  0.00    -0.301 N 
ATOM      2  C   UNL     1      -2.160  -3.630   3.884  0.00  0.00    +0.300 C 
ATOM      3  O   UNL     1      -2.798  -4.493   3.312  0.00  0.00    -0.253 OA
ATOM      4  N   UNL     1      -2.757  -2.851   4.807  0.00  0.00    -0.299 N 
ATOM      5  H   UNL     1      -0.347  -2.764   4.050  0.00  0.00    +0.150 HD
ATOM      6  H   UNL     1      -2.248  -2.162   5.263  0.00  0.00    +0.150 HD
ENDROOT
BRANCH   1   7
ATOM      7  C   UNL     1      -0.206  -4.300   2.590  0.00  0.00    +0.090 C 
BRANCH   7  13
ATOM      8  N   UNL     1       1.467  -2.536   2.308  0.00  0.00    +0.383 N 
ATOM      9  C   UNL     1       2.896  -2.226   2.181  0.00  0.00    -0.078 C 
ATOM     10  C   UNL     1       3.612  -2.553   3.493  0.00  0.00    -0.019 C 
ATOM     11  C   UNL     1       3.437  -4.042   3.807  0.00  0.00    -0.003 C 
ATOM     12  C   UNL     1       1.942  -4.369   3.864  0.00  0.00    -0.014 C 
ATOM     13  C   UNL     1       1.288  -3.975   2.538  0.00  0.00    -0.051 C 
ATOM     14  H   UNL     1       1.081  -2.022   3.086  0.00  0.00    -0.081 HD
BRANCH   8  15
ATOM     15  C   UNL     1       0.771  -2.148   1.074  0.00  0.00    -0.078 C 
BRANCH  15  16
ATOM     16  C   UNL     1       0.837  -0.629   0.907  0.00  0.00    -0.019 C 
BRANCH  16  18
ATOM     17  C   UNL     1       0.178   1.294  -0.546  0.00  0.00    +0.004 C 
ATOM     18  C   UNL     1       0.113  -0.225  -0.379  0.00  0.00    -0.005 C 
ENDBRANCH  16  18
ENDBRANCH  15  16
ENDBRANCH   8  15
ENDBRANCH   7  13
ENDBRANCH   1   7
BRANCH   4  19
ATOM     19  C   UNL     1      -4.175  -3.044   5.122  0.00  0.00    +0.107 C 
BRANCH  19  20
ATOM     20  C   UNL     1      -4.601  -2.038   6.194  0.00  0.00    +0.038 C 
BRANCH  20  21
ATOM     21  C   UNL     1      -6.081  -2.240   6.523  0.00  0.00    +0.119 C 
BRANCH  21  22
ATOM     22  N   UNL     1      -6.489  -1.277   7.549  0.00  0.00    -0.225 N 
ATOM     23  C   UNL     1      -6.418  -1.508   8.875  0.00  0.00    +0.240 C 
ATOM     24  O   UNL     1      -6.021  -2.514   9.422  0.00  0.00    -0.273 OA
ATOM     25  C   UNL     1      -6.939  -0.248   9.538  0.00  0.00    +0.202 C 
ATOM     26  N   UNL     1      -7.274   0.628   8.403  0.00  0.00    -0.290 N 
ATOM     27  C   UNL     1      -6.972  -0.057   7.285  0.00  0.00    +0.309 C 
ATOM     28  O   UNL     1      -7.124   0.381   6.162  0.00  0.00    -0.252 OA
ATOM     29  H   UNL     1      -7.638   1.526   8.452  0.00  0.00    +0.151 HD
ENDBRANCH  21  22
ENDBRANCH  20  21
ENDBRANCH  19  20
ENDBRANCH   4  19
TORSDOF 9
