REMARK  Name = ZINC32542139
REMARK  12 active torsions:
REMARK  status: ('A' for Active; 'I' for Inactive)
REMARK    1  A    between atoms: C_1  and  C_2
REMARK    2  A    between atoms: C_2  and  C_4
REMARK    3  A    between atoms: C_2  and  N_14
REMARK    4  A    between atoms: C_7  and  S_10
REMARK    5  A    between atoms: S_10  and  N_13
REMARK    6  A    between atoms: N_14  and  C_15
REMARK    7  A    between atoms: N_14  and  C_16
REMARK    8  A    between atoms: C_16  and  C_17
REMARK    9  A    between atoms: N_19  and  C_20
REMARK   10  A    between atoms: C_20  and  C_21
REMARK   11  A    between atoms: C_21  and  C_22
REMARK   12  A    between atoms: C_22  and  C_23
REMARK                            x       y       z     vdW  Elec       q    Type
REMARK                         _______ _______ _______ _____ _____    ______ ____
ROOT
ATOM      1  N   UNL     1       1.568  -3.779  -2.761  0.00  0.00    +0.388 N 
ATOM      2  C   UNL     1       0.164  -4.177  -2.930  0.00  0.00    -0.095 C 
ATOM      3  H   UNL     1       1.989  -4.369  -1.933  0.00  0.00    -0.081 HD
ENDROOT
BRANCH   1   5
ATOM      4  C   UNL     1       2.260  -5.572  -4.279  0.00  0.00    -0.008 C 
ATOM      5  C   UNL     1       2.349  -4.077  -3.969  0.00  0.00    -0.041 C 
BRANCH   5   6
ATOM      6  C   UNL     1       3.789  -3.695  -3.743  0.00  0.00    -0.061 A 
ATOM      7  C   UNL     1       4.423  -4.052  -2.567  0.00  0.00    +0.004 A 
ATOM      8  C   UNL     1       5.745  -3.706  -2.362  0.00  0.00    +0.029 A 
ATOM      9  C   UNL     1       6.431  -2.994  -3.328  0.00  0.00    +0.105 A 
ATOM     10  C   UNL     1       5.796  -2.632  -4.502  0.00  0.00    +0.029 A 
ATOM     11  C   UNL     1       4.475  -2.983  -4.709  0.00  0.00    +0.004 A 
BRANCH   9  12
ATOM     12  S   UNL     1       8.115  -2.546  -3.064  0.00  0.00    +0.056 S 
ATOM     13  O   UNL     1       8.639  -3.474  -2.123  0.00  0.00    -0.153 OA
ATOM     14  O   UNL     1       8.691  -2.357  -4.349  0.00  0.00    -0.153 OA
BRANCH  12  15
ATOM     15  N   UNL     1       8.117  -1.067  -2.321  0.00  0.00    -0.204 NA
ATOM     16  H   UNL     1       9.155  -0.750  -2.137  0.00  0.00    +0.144 HD
ATOM     17  H   UNL     1       7.580  -1.136  -1.363  0.00  0.00    +0.144 HD
ENDBRANCH  12  15
ENDBRANCH   9  12
ENDBRANCH   5   6
ENDBRANCH   1   5
BRANCH   1  18
ATOM     18  C   UNL     1       1.673  -2.359  -2.402  0.00  0.00    +0.019 C 
BRANCH  18  19
ATOM     19  C   UNL     1       1.072  -2.139  -1.038  0.00  0.00    +0.196 C 
ATOM     20  O   UNL     1       0.602  -3.074  -0.425  0.00  0.00    -0.278 OA
ATOM     21  N   UNL     1       1.056  -0.904  -0.499  0.00  0.00    -0.317 N 
ATOM     22  H   UNL     1       1.482  -0.056  -1.055  0.00  0.00    +0.149 HD
BRANCH  21  23
ATOM     23  C   UNL     1       0.471  -0.690   0.827  0.00  0.00    +0.104 C 
BRANCH  23  24
ATOM     24  C   UNL     1       0.581   0.789   1.200  0.00  0.00    +0.023 C 
BRANCH  24  25
ATOM     25  C   UNL     1      -0.030   1.012   2.585  0.00  0.00    +0.036 C 
BRANCH  25  26
ATOM     26  C   UNL     1       0.077   2.470   2.953  0.00  0.00    -0.047 A 
ATOM     27  C   UNL     1       1.191   2.931   3.630  0.00  0.00    +0.003 A 
ATOM     28  C   UNL     1       1.292   4.269   3.963  0.00  0.00    +0.000 A 
ATOM     29  C   UNL     1       0.275   5.144   3.628  0.00  0.00    +0.000 A 
ATOM     30  C   UNL     1      -0.841   4.681   2.956  0.00  0.00    +0.000 A 
ATOM     31  C   UNL     1      -0.940   3.344   2.618  0.00  0.00    +0.003 A 
ENDBRANCH  25  26
ENDBRANCH  24  25
ENDBRANCH  23  24
ENDBRANCH  21  23
ENDBRANCH  18  19
ENDBRANCH   1  18
TORSDOF 10
