REMARK  Name = ZINC04477550
REMARK  5 active torsions:
REMARK  status: ('A' for Active; 'I' for Inactive)
REMARK    1  A    between atoms: C_1  and  C_2
REMARK    2  A    between atoms: C_3  and  N_9
REMARK    3  A    between atoms: N_9  and  N_10
REMARK    4  A    between atoms: C_11  and  C_12
REMARK    5  A    between atoms: C_11  and  C_15
REMARK                            x       y       z     vdW  Elec       q    Type
REMARK                         _______ _______ _______ _____ _____    ______ ____
ROOT
ATOM      1  N   UNL     1       0.032   4.125  -0.068  0.00  0.00    -0.172 NA
ATOM      2  C   UNL     1       0.022   5.427   0.129  0.00  0.00    +0.204 C 
ENDROOT
BRANCH   2   3
ATOM      3  C   UNL     1       1.284   6.181   0.121  0.00  0.00    +0.267 C 
ATOM      4  O   UNL     1       1.863   6.410   1.167  0.00  0.00    -0.269 OA
ATOM      5  N   UNL     1       1.800   6.620  -1.044  0.00  0.00    -0.324 N 
ATOM      6  H   UNL     1       1.378   6.377  -1.883  0.00  0.00    +0.145 HD
ATOM      7  H   UNL     1       2.593   7.179  -1.044  0.00  0.00    +0.145 HD
ENDBRANCH   2   3
BRANCH   2   8
ATOM      8  C   UNL     1      -1.251   6.127   0.357  0.00  0.00    +0.267 C 
ATOM      9  O   UNL     1      -1.260   7.330   0.539  0.00  0.00    -0.269 OA
ATOM     10  N   UNL     1      -2.408   5.436   0.364  0.00  0.00    -0.324 N 
ATOM     11  H   UNL     1      -2.401   4.477   0.219  0.00  0.00    +0.145 HD
ATOM     12  H   UNL     1      -3.248   5.897   0.514  0.00  0.00    +0.145 HD
ENDBRANCH   2   8
BRANCH   1  13
ATOM     13  N   UNL     1       1.154   3.496  -0.168  0.00  0.00    -0.237 N 
ATOM     14  H   UNL     1       1.988   3.990  -0.172  0.00  0.00    +0.174 HD
BRANCH  13  17
ATOM     15  C   UNL     1       3.672   2.190  -0.384  0.00  0.00    +0.047 C 
ATOM     16  C   UNL     1       2.374   1.425  -0.379  0.00  0.00    -0.010 A 
ATOM     17  C   UNL     1       1.167   2.104  -0.270  0.00  0.00    +0.053 A 
ATOM     18  C   UNL     1      -0.028   1.394  -0.265  0.00  0.00    +0.025 A 
ATOM     19  C   UNL     1      -0.012   0.017  -0.367  0.00  0.00    +0.003 A 
ATOM     20  C   UNL     1       1.191  -0.656  -0.474  0.00  0.00    +0.020 A 
ATOM     21  C   UNL     1       2.383   0.047  -0.479  0.00  0.00    +0.046 A 
ATOM     22 CL   UNL     1       3.891  -0.803  -0.613  0.00  0.00    -0.083 Cl
ENDBRANCH  13  17
ENDBRANCH   1  13
TORSDOF 4
