REMARK  Name = ZINC59418517
REMARK  10 active torsions:
REMARK  status: ('A' for Active; 'I' for Inactive)
REMARK    1  A    between atoms: C_1  and  C_2
REMARK    2  A    between atoms: C_2  and  O_3
REMARK    3  A    between atoms: O_3  and  C_4
REMARK    4  A    between atoms: C_4  and  C_6
REMARK    5  A    between atoms: C_7  and  C_37
REMARK    6  A    between atoms: C_14  and  C_15
REMARK    7  A    between atoms: C_24  and  O_25
REMARK    8  A    between atoms: C_27  and  C_29
REMARK    9  A    between atoms: C_32  and  S_35
REMARK   10  A    between atoms: S_35  and  C_36
REMARK                            x       y       z     vdW  Elec       q    Type
REMARK                         _______ _______ _______ _____ _____    ______ ____
ROOT
ATOM      1  C   UNL     1      -2.642  -1.941  -0.337  0.00  0.00    +0.085 C 
ATOM      2  C   UNL     1      -2.711  -3.226  -0.800  0.00  0.00    +0.053 C 
ATOM      3  N   UNL     1      -3.885  -3.820  -0.969  0.00  0.00    -0.228 NA
ATOM      4  C   UNL     1      -5.045  -3.266  -0.721  0.00  0.00    +0.178 A 
ATOM      5  N   UNL     1      -5.201  -1.984  -0.249  0.00  0.00    -0.275 N 
ATOM      6  C   UNL     1      -6.441  -1.525  -0.033  0.00  0.00    +0.268 A 
ATOM      7  O   UNL     1      -6.628  -0.397   0.384  0.00  0.00    -0.266 OA
ATOM      8  C   UNL     1      -7.567  -2.422  -0.314  0.00  0.00    +0.081 A 
ATOM      9  C   UNL     1      -8.905  -2.201  -0.181  0.00  0.00    +0.032 C 
ATOM     10  S   UNL     1      -6.709  -3.884  -0.879  0.00  0.00    -0.046 S 
ATOM     11  C   UNL     1      -3.937  -1.229  -0.020  0.00  0.00    +0.162 C 
ATOM     12  C   UNL     1      -1.442  -3.972  -1.123  0.00  0.00    +0.066 C 
ENDROOT
BRANCH   9  13
ATOM     13  C   UNL     1      -9.851  -3.292  -0.399  0.00  0.00    +0.025 A 
ATOM     14  C   UNL     1     -10.900  -3.183  -1.415  0.00  0.00    -0.007 A 
ATOM     15  C   UNL     1     -11.032  -2.038  -2.207  0.00  0.00    +0.009 A 
ATOM     16  C   UNL     1     -12.023  -1.975  -3.142  0.00  0.00    +0.001 A 
ATOM     17  C   UNL     1     -12.906  -3.037  -3.320  0.00  0.00    +0.001 A 
ATOM     18  C   UNL     1     -12.805  -4.166  -2.565  0.00  0.00    +0.008 A 
ATOM     19  C   UNL     1     -11.796  -4.264  -1.592  0.00  0.00    -0.017 A 
ATOM     20  C   UNL     1     -11.662  -5.416  -0.795  0.00  0.00    +0.012 A 
ATOM     21  C   UNL     1     -10.683  -5.503   0.144  0.00  0.00    +0.046 A 
ATOM     22  C   UNL     1      -9.773  -4.469   0.355  0.00  0.00    +0.125 A 
BRANCH  22  23
ATOM     23  O   UNL     1      -8.808  -4.601   1.300  0.00  0.00    -0.506 OA
ATOM     24  H   UNL     1      -9.096  -4.363   2.192  0.00  0.00    +0.292 HD
ENDBRANCH  22  23
ENDBRANCH   9  13
BRANCH  11  25
ATOM     25  C   UNL     1      -3.895  -0.814   1.429  0.00  0.00    -0.020 A 
ATOM     26  C   UNL     1      -4.171  -1.739   2.419  0.00  0.00    +0.007 A 
ATOM     27  C   UNL     1      -4.134  -1.363   3.747  0.00  0.00    +0.015 A 
ATOM     28  C   UNL     1      -3.819  -0.052   4.088  0.00  0.00    +0.008 A 
ATOM     29  C   UNL     1      -3.542   0.874   3.089  0.00  0.00    +0.015 A 
ATOM     30  C   UNL     1      -3.576   0.489   1.764  0.00  0.00    +0.007 A 
BRANCH  28  31
ATOM     31  S   UNL     1      -3.771   0.433   5.781  0.00  0.00    -0.129 S 
ATOM     32  C   UNL     1      -3.326   2.190   5.721  0.00  0.00    +0.090 C 
ENDBRANCH  28  31
ENDBRANCH  11  25
BRANCH   1  33
ATOM     33  C   UNL     1      -1.404  -1.304  -0.155  0.00  0.00    +0.339 C 
ATOM     34  O   UNL     1      -0.370  -1.933  -0.288  0.00  0.00    -0.245 OA
BRANCH  33  35
ATOM     35  O   UNL     1      -1.360   0.007   0.168  0.00  0.00    -0.462 OA
BRANCH  35  37
ATOM     36  C   UNL     1      -0.218   2.070   0.697  0.00  0.00    +0.048 C 
ATOM     37  C   UNL     1      -0.067   0.591   0.337  0.00  0.00    +0.229 C 
ENDBRANCH  35  37
ENDBRANCH  33  35
ENDBRANCH   1  33
TORSDOF 7
