REMARK  Name = ZINC05210871
REMARK  5 active torsions:
REMARK  status: ('A' for Active; 'I' for Inactive)
REMARK    1  A    between atoms: C_1  and  O_2
REMARK    2  A    between atoms: O_2  and  C_3
REMARK    3  A    between atoms: C_6  and  S_11
REMARK    4  A    between atoms: C_8  and  C_9
REMARK    5  A    between atoms: S_11  and  N_14
REMARK                            x       y       z     vdW  Elec       q    Type
REMARK                         _______ _______ _______ _____ _____    ______ ____
ROOT
ATOM      1  C   UNL     1       1.180   1.785   0.000  0.00  0.00    +0.134 A 
ATOM      2  C   UNL     1      -0.013   1.076   0.008  0.00  0.00    +0.048 A 
ATOM      3  C   UNL     1      -1.218   1.749   0.017  0.00  0.00    +0.032 A 
ATOM      4  C   UNL     1      -1.248   3.134   0.031  0.00  0.00    +0.106 A 
ATOM      5  C   UNL     1      -0.073   3.855   0.024  0.00  0.00    +0.047 A 
ATOM      6  C   UNL     1       1.154   3.186   0.008  0.00  0.00    +0.106 A 
ENDROOT
BRANCH   6   7
ATOM      7  C   UNL     1       2.414   3.951   0.001  0.00  0.00    +0.390 C 
ATOM      8  O   UNL     1       3.480   3.366  -0.012  0.00  0.00    -0.240 OA
ATOM      9  O   UNL     1       2.385   5.298   0.008  0.00  0.00    -0.240 OA
ENDBRANCH   6   7
BRANCH   4  10
ATOM     10  S   UNL     1      -2.794   3.978   0.050  0.00  0.00    +0.056 S 
ATOM     11  O   UNL     1      -3.742   3.076   0.605  0.00  0.00    -0.153 OA
ATOM     12  O   UNL     1      -2.549   5.263   0.606  0.00  0.00    -0.153 OA
BRANCH  10  13
ATOM     13  N   UNL     1      -3.239   4.221  -1.526  0.00  0.00    -0.204 NA
ATOM     14  H   UNL     1      -2.667   3.909  -2.245  0.00  0.00    +0.144 HD
ATOM     15  H   UNL     1      -4.071   4.675  -1.731  0.00  0.00    +0.144 HD
ENDBRANCH  10  13
ENDBRANCH   4  10
BRANCH   1  17
ATOM     16  C   UNL     1       2.312  -0.303  -0.023  0.00  0.00    +0.277 C 
ATOM     17  O   UNL     1       2.365   1.125  -0.015  0.00  0.00    -0.494 OA
ENDBRANCH   1  17
TORSDOF 4
