REMARK  Name = ZINC17026014
REMARK  11 active torsions:
REMARK  status: ('A' for Active; 'I' for Inactive)
REMARK    1  A    between atoms: C_1  and  C_2
REMARK    2  A    between atoms: C_5  and  S_9
REMARK    3  A    between atoms: C_6  and  C_8
REMARK    4  A    between atoms: S_9  and  C_12
REMARK    5  A    between atoms: C_15  and  S_19
REMARK    6  A    between atoms: S_19  and  C_20
REMARK    7  A    between atoms: C_20  and  C_21
REMARK    8  A    between atoms: N_23  and  C_24
REMARK    9  A    between atoms: C_26  and  C_32
REMARK   10  A    between atoms: C_29  and  O_30
REMARK   11  A    between atoms: O_30  and  C_31
REMARK                            x       y       z     vdW  Elec       q    Type
REMARK                         _______ _______ _______ _____ _____    ______ ____
ROOT
ATOM      1  C   UNL     1       1.595  -5.091   0.648  0.00  0.00    +0.177 A 
ATOM      2  C   UNL     1       1.633  -5.789   1.842  0.00  0.00    +0.146 A 
ATOM      3  N   UNL     1       2.805  -6.144   2.347  0.00  0.00    -0.228 NA
ATOM      4  C   UNL     1       3.935  -5.841   1.724  0.00  0.00    +0.192 A 
ATOM      5  N   UNL     1       3.939  -5.173   0.579  0.00  0.00    -0.182 NA
ATOM      6  C   UNL     1       2.800  -4.792   0.014  0.00  0.00    +0.299 A 
ATOM      7  O   UNL     1       2.808  -4.115  -1.160  0.00  0.00    -0.264 OA
ENDROOT
BRANCH   1   8
ATOM      8  S   UNL     1       0.058  -4.599  -0.058  0.00  0.00    +0.032 S 
ATOM      9  O   UNL     1      -0.957  -5.029   0.838  0.00  0.00    -0.164 OA
ATOM     10  O   UNL     1       0.091  -5.000  -1.421  0.00  0.00    -0.164 OA
BRANCH   8  15
ATOM     11  C   UNL     1      -0.067   1.433  -0.037  0.00  0.00    +0.044 C 
ATOM     12  C   UNL     1      -0.036  -0.073  -0.042  0.00  0.00    -0.050 A 
ATOM     13  C   UNL     1      -0.023  -0.760  -1.242  0.00  0.00    +0.005 A 
ATOM     14  C   UNL     1       0.006  -2.142  -1.247  0.00  0.00    +0.028 A 
ATOM     15  C   UNL     1       0.023  -2.837  -0.052  0.00  0.00    +0.097 A 
ATOM     16  C   UNL     1       0.011  -2.151   1.147  0.00  0.00    -0.025 A 
ATOM     17  C   UNL     1      -0.014  -0.768   1.152  0.00  0.00    +0.008 A 
ATOM     18  C   UNL     1       0.028  -2.909   2.450  0.00  0.00    +0.046 C 
ENDBRANCH   8  15
ENDBRANCH   1   8
BRANCH   4  19
ATOM     19  S   UNL     1       5.468  -6.336   2.436  0.00  0.00    -0.077 S 
BRANCH  19  20
ATOM     20  C   UNL     1       6.713  -5.721   1.268  0.00  0.00    +0.173 C 
BRANCH  20  21
ATOM     21  C   UNL     1       8.089  -6.082   1.764  0.00  0.00    +0.228 C 
ATOM     22  O   UNL     1       8.218  -6.695   2.803  0.00  0.00    -0.275 OA
ATOM     23  N   UNL     1       9.177  -5.725   1.053  0.00  0.00    -0.282 N 
ATOM     24  H   UNL     1       9.073  -5.293   0.191  0.00  0.00    +0.155 HD
BRANCH  23  25
ATOM     25  C   UNL     1      10.459  -5.979   1.560  0.00  0.00    +0.076 A 
ATOM     26  C   UNL     1      10.697  -7.119   2.313  0.00  0.00    +0.030 A 
ATOM     27  C   UNL     1      11.962  -7.367   2.811  0.00  0.00    -0.048 A 
ATOM     28  C   UNL     1      12.993  -6.480   2.561  0.00  0.00    +0.007 A 
ATOM     29  C   UNL     1      12.764  -5.341   1.811  0.00  0.00    +0.048 A 
ATOM     30  C   UNL     1      11.500  -5.088   1.304  0.00  0.00    +0.141 A 
ATOM     31  C   UNL     1      12.218  -8.606   3.628  0.00  0.00    +0.044 C 
BRANCH  30  32
ATOM     32  O   UNL     1      11.274  -3.972   0.561  0.00  0.00    -0.493 OA
ATOM     33  C   UNL     1      12.388  -3.104   0.339  0.00  0.00    +0.277 C 
ENDBRANCH  30  32
ENDBRANCH  23  25
ENDBRANCH  20  21
ENDBRANCH  19  20
ENDBRANCH   4  19
TORSDOF 7
