REMARK  Name = ZINC48227914
REMARK  10 active torsions:
REMARK  status: ('A' for Active; 'I' for Inactive)
REMARK    1  A    between atoms: C_1  and  O_2
REMARK    2  A    between atoms: O_2  and  C_3
REMARK    3  A    between atoms: C_6  and  C_9
REMARK    4  A    between atoms: C_9  and  C_11
REMARK    5  A    between atoms: C_9  and  N_22
REMARK    6  A    between atoms: C_11  and  N_12
REMARK    7  A    between atoms: N_12  and  C_13
REMARK    8  A    between atoms: C_13  and  N_15
REMARK    9  A    between atoms: N_15  and  C_16
REMARK   10  A    between atoms: C_16  and  C_17
REMARK                            x       y       z     vdW  Elec       q    Type
REMARK                         _______ _______ _______ _____ _____    ______ ____
ROOT
ATOM      1  C   UNL     1      -4.977  -2.634   0.042  0.00  0.00    -0.020 C 
ENDROOT
BRANCH   1   5
ATOM      2  C   UNL     1      -0.939  -1.246   0.214  0.00  0.00    +0.120 A 
ATOM      3  C   UNL     1      -1.985  -0.336   0.157  0.00  0.00    +0.046 A 
ATOM      4  C   UNL     1      -3.289  -0.787   0.101  0.00  0.00    +0.005 A 
ATOM      5  C   UNL     1      -3.553  -2.144   0.102  0.00  0.00    -0.059 A 
ATOM      6  C   UNL     1      -2.513  -3.053   0.160  0.00  0.00    +0.005 A 
ATOM      7  C   UNL     1      -1.206  -2.607   0.209  0.00  0.00    +0.046 A 
BRANCH   2   9
ATOM      8  C   UNL     1       0.545   0.611   0.270  0.00  0.00    +0.277 C 
ATOM      9  O   UNL     1       0.345  -0.804   0.268  0.00  0.00    -0.495 OA
ENDBRANCH   2   9
ENDBRANCH   1   5
BRANCH   1  10
ATOM     10  N   UNL     1      -5.055  -3.805  -0.841  0.00  0.00    +0.385 N 
ATOM     11  C   UNL     1      -6.465  -4.255  -0.973  0.00  0.00    -0.078 C 
ATOM     12  C   UNL     1      -6.458  -5.060  -2.297  0.00  0.00    -0.020 C 
ATOM     13  C   UNL     1      -5.488  -4.251  -3.188  0.00  0.00    -0.020 C 
ATOM     14  C   UNL     1      -4.618  -3.444  -2.207  0.00  0.00    -0.078 C 
ATOM     15  H   UNL     1      -4.483  -4.553  -0.479  0.00  0.00    -0.081 HD
ENDBRANCH   1  10
BRANCH   1  16
ATOM     16  C   UNL     1      -5.443  -3.022   1.447  0.00  0.00    +0.092 C 
BRANCH  16  17
ATOM     17  N   UNL     1      -5.489  -1.828   2.294  0.00  0.00    -0.328 N 
ATOM     18  H   UNL     1      -5.315  -0.954   1.910  0.00  0.00    +0.148 HD
BRANCH  17  19
ATOM     19  C   UNL     1      -5.772  -1.943   3.606  0.00  0.00    +0.130 C 
ATOM     20  S   UNL     1      -6.078  -3.485   4.284  0.00  0.00    -0.019 S 
BRANCH  19  21
ATOM     21  N   UNL     1      -5.814  -0.844   4.386  0.00  0.00    -0.322 N 
ATOM     22  H   UNL     1      -5.640   0.029   4.002  0.00  0.00    +0.148 HD
BRANCH  21  23
ATOM     23  C   UNL     1      -6.121  -0.969   5.812  0.00  0.00    +0.145 C 
BRANCH  23  24
ATOM     24  C   UNL     1      -6.106   0.395   6.451  0.00  0.00    +0.007 A 
ATOM     25  C   UNL     1      -7.123   1.277   6.607  0.00  0.00    +0.013 A 
ATOM     26  C   UNL     1      -6.875   2.484   7.231  0.00  0.00    +0.008 A 
ATOM     27  C   UNL     1      -5.621   2.752   7.670  0.00  0.00    +0.045 A 
ATOM     28  S   UNL     1      -4.743   1.268   7.207  0.00  0.00    -0.100 S 
ENDBRANCH  23  24
ENDBRANCH  21  23
ENDBRANCH  19  21
ENDBRANCH  17  19
ENDBRANCH  16  17
ENDBRANCH   1  16
TORSDOF 9
