REMARK  Name = ZINC46362564
REMARK  9 active torsions:
REMARK  status: ('A' for Active; 'I' for Inactive)
REMARK    1  A    between atoms: N_9  and  C_11
REMARK    2  A    between atoms: C_11  and  C_12
REMARK    3  A    between atoms: C_12  and  C_13
REMARK    4  A    between atoms: C_13  and  N_14
REMARK    5  A    between atoms: C_15  and  C_17
REMARK    6  A    between atoms: C_18  and  C_19
REMARK    7  A    between atoms: C_22  and  O_25
REMARK    8  A    between atoms: O_25  and  C_26
REMARK    9  A    between atoms: C_26  and  C_27
REMARK                            x       y       z     vdW  Elec       q    Type
REMARK                         _______ _______ _______ _____ _____    ______ ____
ROOT
ATOM      1  N   UNL     1       8.238  -2.333   1.887  0.00  0.00    -0.312 N 
ATOM      2  C   UNL     1       9.494  -2.821   1.903  0.00  0.00    +0.237 C 
ATOM      3  O   UNL     1       9.800  -3.739   1.166  0.00  0.00    -0.271 OA
ATOM      4  H   UNL     1       7.994  -1.601   2.474  0.00  0.00    +0.149 HD
ENDROOT
BRANCH   2   5
ATOM      5  C   UNL     1      10.490  -2.246   2.808  0.00  0.00    +0.068 C 
ATOM      6  C   UNL     1      11.748  -2.735   2.824  0.00  0.00    +0.013 C 
BRANCH   6   7
ATOM      7  C   UNL     1      12.749  -2.157   3.733  0.00  0.00    -0.025 A 
ATOM      8  C   UNL     1      12.398  -1.105   4.587  0.00  0.00    +0.011 A 
ATOM      9  C   UNL     1      13.338  -0.567   5.436  0.00  0.00    +0.046 A 
ATOM     10  C   UNL     1      14.635  -1.068   5.447  0.00  0.00    +0.121 A 
ATOM     11  C   UNL     1      14.989  -2.113   4.601  0.00  0.00    +0.046 A 
ATOM     12  C   UNL     1      14.054  -2.662   3.753  0.00  0.00    +0.011 A 
BRANCH  10  13
ATOM     13  O   UNL     1      15.559  -0.535   6.286  0.00  0.00    -0.483 OA
BRANCH  13  14
ATOM     14  C   UNL     1      16.872  -1.097   6.247  0.00  0.00    +0.324 C 
BRANCH  14  15
ATOM     15  C   UNL     1      17.754  -0.384   7.239  0.00  0.00    +0.248 C 
ATOM     16  O   UNL     1      17.303   0.518   7.913  0.00  0.00    -0.272 OA
ATOM     17  N   UNL     1      19.045  -0.747   7.377  0.00  0.00    -0.327 N 
ATOM     18  H   UNL     1      19.406  -1.467   6.837  0.00  0.00    +0.145 HD
ATOM     19  H   UNL     1      19.613  -0.287   8.015  0.00  0.00    +0.145 HD
ENDBRANCH  14  15
ENDBRANCH  13  14
ENDBRANCH  10  13
ENDBRANCH   6   7
ENDBRANCH   2   5
BRANCH   1  20
ATOM     20  C   UNL     1       7.241  -2.908   0.981  0.00  0.00    +0.102 C 
BRANCH  20  21
ATOM     21  C   UNL     1       5.908  -2.179   1.160  0.00  0.00    +0.000 C 
BRANCH  21  22
ATOM     22  C   UNL     1       4.866  -2.780   0.214  0.00  0.00    -0.077 C 
BRANCH  22  31
ATOM     23  C   UNL     1      -0.017   1.376   0.010  0.00  0.00    +0.000 A 
ATOM     24  C   UNL     1       1.173   2.080   0.002  0.00  0.00    +0.000 A 
ATOM     25  C   UNL     1       2.375   1.401  -0.015  0.00  0.00    +0.002 A 
ATOM     26  C   UNL     1       2.395   0.014  -0.023  0.00  0.00    -0.061 A 
ATOM     27  C   UNL     1       1.208  -0.687  -0.013  0.00  0.00    -0.048 A 
ATOM     28  C   UNL     1       0.002  -0.004   0.002  0.00  0.00    +0.004 A 
ATOM     29  C   UNL     1       1.186  -2.194  -0.014  0.00  0.00    +0.017 C 
ATOM     30  C   UNL     1       2.554  -2.732  -0.434  0.00  0.00    -0.074 C 
ATOM     31  N   UNL     1       3.587  -2.079   0.386  0.00  0.00    +0.383 N 
ATOM     32  C   UNL     1       3.728  -0.686  -0.046  0.00  0.00    -0.043 C 
ATOM     33  H   UNL     1       3.313  -2.106   1.357  0.00  0.00    -0.081 HD
ENDBRANCH  22  31
ENDBRANCH  21  22
ENDBRANCH  20  21
ENDBRANCH   1  20
TORSDOF 9
