REMARK  Name = ZINC32513707
REMARK  11 active torsions:
REMARK  status: ('A' for Active; 'I' for Inactive)
REMARK    1  A    between atoms: C_1  and  C_2
REMARK    2  A    between atoms: C_2  and  C_3
REMARK    3  A    between atoms: C_10  and  N_28
REMARK    4  A    between atoms: C_11  and  C_26
REMARK    5  A    between atoms: C_12  and  C_14
REMARK    6  A    between atoms: C_17  and  O_24
REMARK    7  A    between atoms: C_18  and  O_22
REMARK    8  A    between atoms: C_19  and  O_20
REMARK    9  A    between atoms: O_20  and  C_21
REMARK   10  A    between atoms: O_22  and  C_23
REMARK   11  A    between atoms: O_24  and  C_25
REMARK                            x       y       z     vdW  Elec       q    Type
REMARK                         _______ _______ _______ _____ _____    ______ ____
ROOT
ATOM      1  C   UNL     1       5.114  -1.561  -2.015  0.00  0.00    +0.070 A 
ATOM      2  C   UNL     1       3.834  -1.587  -1.479  0.00  0.00    +0.050 A 
ATOM      3  C   UNL     1       2.968  -1.963  -2.468  0.00  0.00    +0.222 A 
ATOM      4  N   UNL     1       3.688  -2.163  -3.583  0.00  0.00    -0.246 N 
ATOM      5  H   UNL     1       3.340  -2.436  -4.447  0.00  0.00    +0.192 HD
ATOM      6  N   UNL     1       5.033  -1.901  -3.280  0.00  0.00    -0.176 NA
ATOM      7  O   UNL     1       1.633  -2.087  -2.264  0.00  0.00    -0.423 OA
ATOM      8  C   UNL     1       1.194  -2.098  -0.989  0.00  0.00    +0.200 C 
ATOM      9  C   UNL     1       1.952  -1.736   0.070  0.00  0.00    +0.098 C 
ATOM     10  C   UNL     1       3.380  -1.274  -0.077  0.00  0.00    +0.105 C 
ENDROOT
BRANCH  10  11
ATOM     11  C   UNL     1       3.462   0.212   0.164  0.00  0.00    +0.011 A 
ATOM     12  C   UNL     1       3.996   0.691   1.346  0.00  0.00    +0.012 A 
ATOM     13  C   UNL     1       4.073   2.052   1.572  0.00  0.00    +0.050 A 
ATOM     14  C   UNL     1       3.615   2.943   0.613  0.00  0.00    +0.165 A 
ATOM     15  C   UNL     1       3.078   2.466  -0.576  0.00  0.00    +0.204 A 
ATOM     16  C   UNL     1       3.007   1.096  -0.802  0.00  0.00    +0.169 A 
BRANCH  16  17
ATOM     17  O   UNL     1       2.487   0.624  -1.966  0.00  0.00    -0.491 OA
ATOM     18  C   UNL     1       1.063   0.573  -2.068  0.00  0.00    +0.277 C 
ENDBRANCH  16  17
BRANCH  15  19
ATOM     19  O   UNL     1       2.628   3.337  -1.520  0.00  0.00    -0.488 OA
ATOM     20  C   UNL     1       3.570   3.775  -2.501  0.00  0.00    +0.277 C 
ENDBRANCH  15  19
BRANCH  14  21
ATOM     21  O   UNL     1       3.691   4.283   0.837  0.00  0.00    -0.491 OA
ATOM     22  C   UNL     1       4.254   4.702   2.081  0.00  0.00    +0.277 C 
ENDBRANCH  14  21
ENDBRANCH  10  11
BRANCH   8  23
ATOM     23  N   UNL     1      -0.097  -2.500  -0.753  0.00  0.00    -0.328 N 
ATOM     24  H   UNL     1      -0.665  -2.766  -1.493  0.00  0.00    +0.145 HD
ATOM     25  H   UNL     1      -0.441  -2.518   0.153  0.00  0.00    +0.145 HD
ENDBRANCH   8  23
BRANCH   1  27
ATOM     26  C   UNL     1       6.697   0.278  -1.504  0.00  0.00    +0.010 C 
ATOM     27  C   UNL     1       6.376  -1.200  -1.275  0.00  0.00    +0.054 C 
ENDBRANCH   1  27
BRANCH   9  28
ATOM     28  C   UNL     1       1.377  -1.794   1.381  0.00  0.00    +0.101 C 
ATOM     29  N   UNL     1       0.921  -1.839   2.420  0.00  0.00    -0.191 NA
ENDBRANCH   9  28
TORSDOF 7
