REMARK  Name = ZINC32244628
REMARK  15 active torsions:
REMARK  status: ('A' for Active; 'I' for Inactive)
REMARK    1  A    between atoms: C_1  and  C_2
REMARK    2  A    between atoms: C_7  and  N_8
REMARK    3  A    between atoms: N_8  and  S_9
REMARK    4  A    between atoms: S_9  and  C_12
REMARK    5  A    between atoms: C_15  and  C_30
REMARK    6  A    between atoms: C_16  and  C_18
REMARK    7  A    between atoms: N_20  and  C_21
REMARK    8  A    between atoms: C_21  and  C_22
REMARK    9  A    between atoms: C_22  and  N_23
REMARK   10  A    between atoms: N_23  and  C_24
REMARK   11  A    between atoms: N_23  and  C_27
REMARK   12  A    between atoms: C_24  and  C_25
REMARK   13  A    between atoms: C_24  and  C_26
REMARK   14  A    between atoms: C_27  and  C_28
REMARK   15  A    between atoms: C_27  and  C_29
REMARK                            x       y       z     vdW  Elec       q    Type
REMARK                         _______ _______ _______ _____ _____    ______ ____
ROOT
ATOM      1  C   UNL     1       1.685  -0.872   5.748  0.00  0.00    +0.109 A 
ATOM      2  C   UNL     1       2.085  -2.108   5.272  0.00  0.00    +0.029 A 
ATOM      3  C   UNL     1       3.338  -2.268   4.710  0.00  0.00    +0.006 A 
ATOM      4  C   UNL     1       4.199  -1.193   4.620  0.00  0.00    -0.038 A 
ATOM      5  C   UNL     1       3.803   0.057   5.098  0.00  0.00    +0.041 A 
ATOM      6  C   UNL     1       2.534   0.212   5.659  0.00  0.00    +0.042 A 
ATOM      7  C   UNL     1       5.565  -1.369   4.008  0.00  0.00    +0.044 C 
ENDROOT
BRANCH   5   8
ATOM      8  C   UNL     1       4.720   1.212   5.006  0.00  0.00    +0.244 C 
ATOM      9  O   UNL     1       5.847   1.061   4.575  0.00  0.00    -0.270 OA
ATOM     10  N   UNL     1       4.307   2.433   5.399  0.00  0.00    -0.313 N 
ATOM     11  H   UNL     1       3.408   2.554   5.742  0.00  0.00    +0.149 HD
BRANCH  10  12
ATOM     12  C   UNL     1       5.216   3.579   5.308  0.00  0.00    +0.086 C 
BRANCH  12  13
ATOM     13  C   UNL     1       4.505   4.835   5.814  0.00  0.00    -0.059 C 
BRANCH  13  14
ATOM     14  N   UNL     1       5.386   5.999   5.641  0.00  0.00    +0.384 N 
ATOM     15  H   UNL     1       5.692   6.049   4.681  0.00  0.00    -0.081 HD
BRANCH  14  16
ATOM     16  C   UNL     1       4.652   7.224   5.986  0.00  0.00    -0.074 C 
ATOM     17  C   UNL     1       5.521   8.444   5.673  0.00  0.00    -0.014 C 
ATOM     18  C   UNL     1       3.361   7.293   5.166  0.00  0.00    -0.014 C 
ENDBRANCH  14  16
BRANCH  14  19
ATOM     19  C   UNL     1       6.554   5.864   6.521  0.00  0.00    -0.074 C 
ATOM     20  C   UNL     1       6.149   5.124   7.797  0.00  0.00    -0.014 C 
ATOM     21  C   UNL     1       7.648   5.074   5.799  0.00  0.00    -0.014 C 
ENDBRANCH  14  19
ENDBRANCH  13  14
ENDBRANCH  12  13
ENDBRANCH  10  12
ENDBRANCH   5   8
BRANCH   1  22
ATOM     22  S   UNL     1       0.085  -0.680   6.461  0.00  0.00    +0.072 S 
ATOM     23  O   UNL     1       0.157   0.450   7.320  0.00  0.00    -0.150 OA
ATOM     24  O   UNL     1      -0.310  -1.964   6.924  0.00  0.00    -0.150 OA
BRANCH  22  25
ATOM     25  N   UNL     1      -0.953  -0.278   5.235  0.00  0.00    -0.216 N 
ATOM     26  H   UNL     1      -1.442   0.559   5.269  0.00  0.00    +0.174 HD
BRANCH  25  33
ATOM     27  C   UNL     1      -1.380   0.857   2.662  0.00  0.00    +0.046 C 
ATOM     28  C   UNL     1      -1.336  -0.633   2.879  0.00  0.00    -0.028 A 
ATOM     29  C   UNL     1      -1.500  -1.493   1.811  0.00  0.00    +0.005 A 
ATOM     30  C   UNL     1      -1.460  -2.861   2.009  0.00  0.00    +0.000 A 
ATOM     31  C   UNL     1      -1.255  -3.373   3.277  0.00  0.00    +0.002 A 
ATOM     32  C   UNL     1      -1.090  -2.519   4.350  0.00  0.00    +0.025 A 
ATOM     33  C   UNL     1      -1.125  -1.144   4.153  0.00  0.00    +0.051 A 
ENDBRANCH  25  33
ENDBRANCH  22  25
ENDBRANCH   1  22
TORSDOF 9
