REMARK  Name = ZINC09320212
REMARK  4 active torsions:
REMARK  status: ('A' for Active; 'I' for Inactive)
REMARK    1  A    between atoms: C_1  and  S_2
REMARK    2  A    between atoms: S_2  and  C_5
REMARK    3  A    between atoms: C_15  and  C_17
REMARK    4  A    between atoms: N_25  and  C_26
REMARK                            x       y       z     vdW  Elec       q    Type
REMARK                         _______ _______ _______ _____ _____    ______ ____
ROOT
ATOM      1  C   UNL     1     -10.553  -1.467   0.413  0.00  0.00    +0.135 A 
ATOM      2  C   UNL     1     -11.107  -2.647   0.835  0.00  0.00    +0.081 A 
ATOM      3  S   UNL     1     -12.749  -2.474   0.296  0.00  0.00    -0.060 S 
ATOM      4  C   UNL     1     -12.589  -0.862  -0.455  0.00  0.00    +0.166 A 
ATOM      5  N   UNL     1     -11.320  -0.587  -0.236  0.00  0.00    -0.220 NA
ATOM      6  N   UNL     1     -13.552  -0.098  -1.102  0.00  0.00    -0.248 N 
ATOM      7  C   UNL     1     -14.810  -0.563  -1.225  0.00  0.00    +0.310 C 
ATOM      8  O   UNL     1     -15.104  -1.652  -0.770  0.00  0.00    -0.252 OA
ATOM      9  N   UNL     1     -15.745   0.179  -1.852  0.00  0.00    -0.269 N 
ATOM     10  H   UNL     1     -13.318   0.771  -1.465  0.00  0.00    +0.158 HD
ATOM     11  H   UNL     1     -15.529   1.075  -2.156  0.00  0.00    +0.156 HD
ENDROOT
BRANCH   1  22
ATOM     12  C   UNL     1      -2.499   1.022   1.436  0.00  0.00    +0.089 A 
ATOM     13  C   UNL     1      -2.778  -0.226   1.974  0.00  0.00    +0.029 A 
ATOM     14  C   UNL     1      -4.031  -0.776   1.895  0.00  0.00    +0.031 A 
ATOM     15  C   UNL     1      -5.086  -0.082   1.259  0.00  0.00    +0.080 A 
ATOM     16  C   UNL     1      -4.765   1.186   0.723  0.00  0.00    +0.043 A 
ATOM     17  C   UNL     1      -3.508   1.731   0.811  0.00  0.00    +0.044 A 
ATOM     18  S   UNL     1      -6.316   1.708   0.031  0.00  0.00    -0.052 S 
ATOM     19  C   UNL     1      -7.261   0.260   0.482  0.00  0.00    +0.166 A 
ATOM     20  N   UNL     1      -6.367  -0.479   1.096  0.00  0.00    -0.225 NA
ATOM     21  N   UNL     1      -8.597  -0.014   0.243  0.00  0.00    -0.259 N 
ATOM     22  C   UNL     1      -9.133  -1.176   0.667  0.00  0.00    +0.269 C 
ATOM     23  O   UNL     1      -8.443  -1.984   1.259  0.00  0.00    -0.268 OA
ATOM     24  H   UNL     1      -9.148   0.630  -0.229  0.00  0.00    +0.157 HD
BRANCH  12  26
ATOM     25  C   UNL     1      -0.022   1.127   0.062  0.00  0.00    +0.200 C 
ATOM     26  S   UNL     1      -0.877   1.700   1.555  0.00  0.00    -0.006 S 
ATOM     27  O   UNL     1      -0.313   1.089   2.707  0.00  0.00    -0.170 OA
ATOM     28  O   UNL     1      -1.067   3.107   1.500  0.00  0.00    -0.170 OA
ENDBRANCH  12  26
ENDBRANCH   1  22
BRANCH   9  29
ATOM     29  C   UNL     1     -17.026  -0.344  -2.066  0.00  0.00    +0.035 A 
ATOM     30  C   UNL     1     -17.727  -0.017  -3.219  0.00  0.00    +0.026 A 
ATOM     31  C   UNL     1     -18.988  -0.539  -3.431  0.00  0.00    +0.040 A 
ATOM     32  C   UNL     1     -19.559  -1.377  -2.488  0.00  0.00    +0.124 A 
ATOM     33  C   UNL     1     -18.865  -1.698  -1.334  0.00  0.00    +0.040 A 
ATOM     34  C   UNL     1     -17.601  -1.184  -1.121  0.00  0.00    +0.026 A 
ATOM     35  F   UNL     1     -20.796  -1.881  -2.694  0.00  0.00    -0.205 F 
ENDBRANCH   9  29
TORSDOF 3
