REMARK  Name = ZINC63205542
REMARK  7 active torsions:
REMARK  status: ('A' for Active; 'I' for Inactive)
REMARK    1  A    between atoms: C_1  and  C_2
REMARK    2  A    between atoms: C_2  and  N_3
REMARK    3  A    between atoms: C_8  and  C_29
REMARK    4  A    between atoms: C_11  and  C_16
REMARK    5  A    between atoms: C_11  and  C_26
REMARK    6  A    between atoms: C_16  and  C_17
REMARK    7  A    between atoms: C_34  and  O_35
REMARK                            x       y       z     vdW  Elec       q    Type
REMARK                         _______ _______ _______ _____ _____    ______ ____
ROOT
ATOM      1  N   UNL     1      -1.487  -0.464  -0.040  0.00  0.00    -0.242 N 
ATOM      2  C   UNL     1      -2.238  -0.633   1.097  0.00  0.00    +0.224 C 
ATOM      3  O   UNL     1      -2.001  -0.218   2.210  0.00  0.00    -0.275 OA
ATOM      4  C   UNL     1      -3.373  -1.417   0.670  0.00  0.00    +0.077 C 
ATOM      5  C   UNL     1      -4.732  -1.766   1.109  0.00  0.00    -0.023 C 
ATOM      6  N   UNL     1      -5.409  -2.258  -0.137  0.00  0.00    +0.396 N 
ATOM      7  C   UNL     1      -4.456  -2.058  -1.277  0.00  0.00    +0.052 C 
ATOM      8  C   UNL     1      -3.617  -0.858  -0.789  0.00  0.00    +0.086 C 
ATOM      9  C   UNL     1      -2.165  -0.802  -1.177  0.00  0.00    +0.225 C 
ATOM     10  O   UNL     1      -1.693  -1.015  -2.273  0.00  0.00    -0.275 OA
ATOM     11  H   UNL     1      -5.630  -3.238  -0.043  0.00  0.00    -0.083 HD
ATOM     12  H   UNL     1      -6.253  -1.729  -0.299  0.00  0.00    -0.083 HD
ENDROOT
BRANCH   5  13
ATOM     13  C   UNL     1      -5.439  -0.551   1.652  0.00  0.00    -0.019 A 
ATOM     14  C   UNL     1      -6.211   0.231   0.815  0.00  0.00    +0.005 A 
ATOM     15  C   UNL     1      -6.860   1.346   1.312  0.00  0.00    +0.000 A 
ATOM     16  C   UNL     1      -6.737   1.681   2.648  0.00  0.00    +0.004 A 
ATOM     17  C   UNL     1      -5.967   0.902   3.489  0.00  0.00    +0.045 A 
ATOM     18  C   UNL     1      -5.319  -0.220   2.993  0.00  0.00    +0.118 A 
BRANCH  18  19
ATOM     19  O   UNL     1      -4.565  -0.991   3.820  0.00  0.00    -0.507 OA
ATOM     20  H   UNL     1      -3.638  -0.720   3.874  0.00  0.00    +0.292 HD
ENDBRANCH  18  19
ENDBRANCH   5  13
BRANCH   7  21
ATOM     21  C   UNL     1      -5.200  -1.702  -2.538  0.00  0.00    +0.347 C 
ATOM     22  O   UNL     1      -6.418  -1.639  -2.531  0.00  0.00    -0.248 OA
ATOM     23  O   UNL     1      -4.584  -1.476  -3.566  0.00  0.00    -0.248 OA
ENDBRANCH   7  21
BRANCH   1  25
ATOM     24  C   UNL     1      -0.115   1.558  -0.145  0.00  0.00    +0.025 C 
ATOM     25  C   UNL     1      -0.108   0.032  -0.035  0.00  0.00    +0.113 C 
ENDBRANCH   1  25
BRANCH   7  26
ATOM     26  C   UNL     1      -3.594  -3.305  -1.488  0.00  0.00    +0.033 C 
BRANCH  26  27
ATOM     27  C   UNL     1      -4.471  -4.457  -1.903  0.00  0.00    -0.042 C 
ATOM     28  C   UNL     1      -4.750  -4.854  -3.166  0.00  0.00    -0.001 A 
ATOM     29  C   UNL     1      -4.336  -4.349  -4.481  0.00  0.00    +0.010 A 
ATOM     30  C   UNL     1      -4.789  -4.968  -5.594  0.00  0.00    +0.001 A 
ATOM     31  C   UNL     1      -5.643  -6.078  -5.524  0.00  0.00    +0.002 A 
ATOM     32  C   UNL     1      -6.067  -6.599  -4.353  0.00  0.00    +0.026 A 
ATOM     33  C   UNL     1      -5.651  -6.027  -3.119  0.00  0.00    +0.043 A 
ATOM     34  N   UNL     1      -5.920  -6.344  -1.876  0.00  0.00    -0.380 N 
ATOM     35  C   UNL     1      -5.214  -5.410  -0.992  0.00  0.00    +0.144 C 
ATOM     36  H   UNL     1      -6.488  -7.075  -1.588  0.00  0.00    +0.160 HD
ENDBRANCH  26  27
ENDBRANCH   7  26
TORSDOF 6
