REMARK  Name = ZINC43287459
REMARK  10 active torsions:
REMARK  status: ('A' for Active; 'I' for Inactive)
REMARK    1  A    between atoms: C_1  and  C_2
REMARK    2  A    between atoms: C_2  and  C_3
REMARK    3  A    between atoms: C_3  and  C_5
REMARK    4  A    between atoms: C_3  and  N_23
REMARK    5  A    between atoms: C_5  and  C_7
REMARK    6  A    between atoms: C_5  and  N_13
REMARK    7  A    between atoms: N_13  and  C_14
REMARK    8  A    between atoms: N_13  and  C_17
REMARK    9  A    between atoms: C_14  and  C_15
REMARK   10  A    between atoms: C_15  and  O_16
REMARK                            x       y       z     vdW  Elec       q    Type
REMARK                         _______ _______ _______ _____ _____    ______ ____
ROOT
ATOM      1  C   UNL     1       0.556  -1.805  -1.407  0.00  0.00    -0.013 C 
ENDROOT
BRANCH   1   2
ATOM      2  C   UNL     1       1.450  -2.667  -0.554  0.00  0.00    -0.021 A 
ATOM      3  C   UNL     1       2.437  -2.292   0.297  0.00  0.00    +0.025 A 
ATOM      4  C   UNL     1       3.136  -3.267   0.984  0.00  0.00    +0.025 A 
ATOM      5  C   UNL     1       2.813  -4.569   0.787  0.00  0.00    +0.060 A 
ATOM      6  S   UNL     1       1.480  -4.444  -0.395  0.00  0.00    -0.102 S 
ATOM      7 BR   UNL     1       4.521  -2.792   2.181  0.00  0.00    -0.050 Br
ENDBRANCH   1   2
BRANCH   1   8
ATOM      8  N   UNL     1      -0.843  -1.999  -1.002  0.00  0.00    +0.389 N 
ATOM      9  H   UNL     1      -1.452  -1.748  -1.766  0.00  0.00    -0.080 HD
BRANCH   8  10
ATOM     10  C   UNL     1      -1.059  -3.408  -0.646  0.00  0.00    -0.068 C 
ATOM     11  C   UNL     1      -0.704  -4.296  -1.841  0.00  0.00    -0.015 C 
ATOM     12  C   UNL     1      -0.929  -5.763  -1.471  0.00  0.00    -0.002 C 
ATOM     13  C   UNL     1      -2.397  -5.975  -1.096  0.00  0.00    -0.000 C 
ATOM     14  C   UNL     1      -2.752  -5.088   0.099  0.00  0.00    -0.002 C 
ATOM     15  C   UNL     1      -2.527  -3.620  -0.272  0.00  0.00    -0.015 C 
ENDBRANCH   8  10
BRANCH   8  16
ATOM     16  C   UNL     1      -1.138  -1.150   0.160  0.00  0.00    -0.049 C 
BRANCH  16  17
ATOM     17  C   UNL     1      -1.091   0.321  -0.258  0.00  0.00    +0.137 C 
BRANCH  17  18
ATOM     18  O   UNL     1      -2.119   0.576  -1.218  0.00  0.00    -0.397 OA
ATOM     19  H   UNL     1      -2.149   1.491  -1.529  0.00  0.00    +0.209 HD
ENDBRANCH  17  18
ENDBRANCH  16  17
ENDBRANCH   8  16
ENDBRANCH   1   8
BRANCH   1  20
ATOM     20  C   UNL     1       0.720  -2.199  -2.877  0.00  0.00    +0.042 C 
BRANCH  20  21
ATOM     21  N   UNL     1       2.145  -2.175  -3.234  0.00  0.00    -0.328 NA
ATOM     22  H   UNL     1       2.285  -2.494  -4.181  0.00  0.00    +0.118 HD
ATOM     23  H   UNL     1       2.536  -1.255  -3.100  0.00  0.00    +0.118 HD
ENDBRANCH  20  21
BRANCH  20  25
ATOM     24  C   UNL     1       0.045  -1.653  -5.220  0.00  0.00    +0.005 C 
ATOM     25  C   UNL     1      -0.043  -1.208  -3.759  0.00  0.00    +0.014 C 
ENDBRANCH  20  25
ENDBRANCH   1  20
TORSDOF 9
