REMARK  Name = ZINC12875278
REMARK  9 active torsions:
REMARK  status: ('A' for Active; 'I' for Inactive)
REMARK    1  A    between atoms: C_1  and  C_2
REMARK    2  A    between atoms: C_7  and  C_8
REMARK    3  A    between atoms: C_17  and  C_19
REMARK    4  A    between atoms: C_19  and  C_21
REMARK    5  A    between atoms: C_19  and  O_22
REMARK    6  A    between atoms: N_25  and  C_28
REMARK    7  A    between atoms: C_28  and  C_29
REMARK    8  A    between atoms: C_32  and  O_35
REMARK    9  A    between atoms: O_35  and  C_36
REMARK                            x       y       z     vdW  Elec       q    Type
REMARK                         _______ _______ _______ _____ _____    ______ ____
ROOT
ATOM      1  C   UNL     1      -4.669  -5.461  -4.435  0.00  0.00    +0.044 C 
ATOM      2  C   UNL     1      -3.537  -4.830  -3.667  0.00  0.00    -0.046 A 
ATOM      3  C   UNL     1      -3.140  -5.371  -2.457  0.00  0.00    +0.004 A 
ATOM      4  C   UNL     1      -2.101  -4.791  -1.751  0.00  0.00    +0.005 A 
ATOM      5  C   UNL     1      -1.464  -3.678  -2.252  0.00  0.00    -0.027 A 
ATOM      6  C   UNL     1      -1.855  -3.125  -3.468  0.00  0.00    +0.039 A 
ATOM      7  C   UNL     1      -2.902  -3.715  -4.173  0.00  0.00    -0.026 A 
ATOM      8  C   UNL     1      -3.341  -3.134  -5.492  0.00  0.00    +0.046 C 
ATOM      9  N   UNL     1      -1.068  -2.010  -3.767  0.00  0.00    -0.286 N 
ATOM     10  C   UNL     1      -0.150  -1.766  -2.812  0.00  0.00    +0.211 C 
ATOM     11  O   UNL     1       0.664  -0.867  -2.804  0.00  0.00    -0.277 OA
ATOM     12  C   UNL     1      -0.331  -2.824  -1.758  0.00  0.00    +0.050 C 
ATOM     13  C   UNL     1      -0.645  -2.206  -0.391  0.00  0.00    +0.088 C 
ATOM     14  C   UNL     1       0.709  -2.192   0.371  0.00  0.00    +0.075 C 
ATOM     15  C   UNL     1       1.729  -2.784  -0.625  0.00  0.00    -0.028 C 
ATOM     16  C   UNL     1       0.995  -0.717   0.546  0.00  0.00    +0.224 C 
ATOM     17  O   UNL     1       1.970  -0.253   1.097  0.00  0.00    -0.275 OA
ATOM     18  N   UNL     1       0.002  -0.004   0.002  0.00  0.00    -0.237 N 
ATOM     19  C   UNL     1      -0.968  -0.738  -0.555  0.00  0.00    +0.225 C 
ATOM     20  O   UNL     1      -1.952  -0.294  -1.107  0.00  0.00    -0.275 OA
ATOM     21  H   UNL     1      -1.172  -1.473  -4.568  0.00  0.00    +0.155 HD
ATOM     22  N   UNL     1       0.908  -3.578  -1.544  0.00  0.00    +0.396 N 
ATOM     23  H   UNL     1       1.400  -3.710  -2.436  0.00  0.00    -0.083 HD
ATOM     24  H   UNL     1       0.698  -4.494  -1.131  0.00  0.00    -0.083 HD
ENDROOT
BRANCH  15  25
ATOM     25  C   UNL     1       2.747  -3.657   0.111  0.00  0.00    +0.098 C 
ATOM     26  C   UNL     1       3.747  -4.233  -0.894  0.00  0.00    +0.036 C 
BRANCH  25  27
ATOM     27  O   UNL     1       3.444  -2.866   1.075  0.00  0.00    -0.394 OA
ATOM     28  H   UNL     1       4.107  -3.356   1.581  0.00  0.00    +0.210 HD
ENDBRANCH  25  27
ENDBRANCH  15  25
BRANCH  18  29
ATOM     29  C   UNL     1      -0.018   1.461   0.010  0.00  0.00    +0.151 C 
BRANCH  29  30
ATOM     30  C   UNL     1      -0.723   1.947   1.250  0.00  0.00    -0.029 A 
ATOM     31  C   UNL     1      -2.088   2.164   1.227  0.00  0.00    +0.009 A 
ATOM     32  C   UNL     1      -2.738   2.604   2.364  0.00  0.00    +0.046 A 
ATOM     33  C   UNL     1      -2.018   2.839   3.526  0.00  0.00    +0.120 A 
ATOM     34  C   UNL     1      -0.647   2.626   3.545  0.00  0.00    +0.046 A 
ATOM     35  C   UNL     1      -0.003   2.180   2.407  0.00  0.00    +0.009 A 
BRANCH  33  36
ATOM     36  O   UNL     1      -2.654   3.279   4.644  0.00  0.00    -0.495 OA
ATOM     37  C   UNL     1      -4.066   3.476   4.551  0.00  0.00    +0.277 C 
ENDBRANCH  33  36
ENDBRANCH  29  30
ENDBRANCH  18  29
TORSDOF 5
