REMARK  Name = ZINC62814275
REMARK  6 active torsions:
REMARK  status: ('A' for Active; 'I' for Inactive)
REMARK    1  A    between atoms: C_1  and  C_2
REMARK    2  A    between atoms: C_2  and  O_3
REMARK    3  A    between atoms: O_3  and  C_4
REMARK    4  A    between atoms: C_9  and  N_12
REMARK    5  A    between atoms: C_13  and  C_15
REMARK    6  A    between atoms: C_19  and  C_23
REMARK                            x       y       z     vdW  Elec       q    Type
REMARK                         _______ _______ _______ _____ _____    ______ ____
ROOT
ATOM      1  N   UNL     1      -5.946  -3.850   2.241  0.00  0.00    -0.311 N 
ATOM      2  C   UNL     1      -6.821  -4.862   2.081  0.00  0.00    +0.228 C 
ATOM      3  O   UNL     1      -6.877  -5.454   1.024  0.00  0.00    -0.274 OA
ATOM      4  H   UNL     1      -5.901  -3.376   3.087  0.00  0.00    +0.149 HD
ENDROOT
BRANCH   2   5
ATOM      5  C   UNL     1      -7.731  -5.258   3.215  0.00  0.00    +0.123 C 
ATOM      6  C   UNL     1      -8.611  -4.067   3.603  0.00  0.00    -0.054 C 
ATOM      7  N   UNL     1      -9.433  -3.670   2.452  0.00  0.00    +0.383 N 
ATOM      8  C   UNL     1     -10.297  -4.790   2.056  0.00  0.00    -0.061 C 
ATOM      9  C   UNL     1      -9.431  -5.986   1.655  0.00  0.00    +0.065 C 
ATOM     10  N   UNL     1      -8.584  -6.377   2.791  0.00  0.00    -0.309 NA
ATOM     11  C   UNL     1     -11.166  -4.368   0.869  0.00  0.00    -0.012 C 
ATOM     12  H   UNL     1     -10.004  -2.877   2.704  0.00  0.00    -0.085 HD
ATOM     13  H   UNL     1      -8.030  -7.189   2.567  0.00  0.00    +0.123 HD
ATOM     14  H   UNL     1      -8.833  -3.420   1.681  0.00  0.00    -0.085 HD
ENDBRANCH   2   5
BRANCH   1  20
ATOM     15  C   UNL     1      -1.354  -2.080   0.036  0.00  0.00    +0.403 C 
ATOM     16  O   UNL     1      -0.431  -2.867  -0.039  0.00  0.00    -0.226 OA
ATOM     17  N   UNL     1      -2.624  -2.531   0.047  0.00  0.00    -0.267 N 
ATOM     18  C   UNL     1      -3.751  -1.592   0.131  0.00  0.00    +0.113 C 
ATOM     19  C   UNL     1      -4.648  -2.001   1.304  0.00  0.00    +0.041 C 
ATOM     20  C   UNL     1      -5.061  -3.465   1.139  0.00  0.00    +0.076 C 
ATOM     21  C   UNL     1      -3.815  -4.353   1.151  0.00  0.00    +0.041 C 
ATOM     22  C   UNL     1      -2.909  -3.970  -0.029  0.00  0.00    +0.113 C 
BRANCH  15  23
ATOM     23  O   UNL     1      -1.108  -0.758   0.106  0.00  0.00    -0.451 OA
BRANCH  23  25
ATOM     24  C   UNL     1       0.342   1.174   0.177  0.00  0.00    +0.048 C 
ATOM     25  C   UNL     1       0.262  -0.352   0.089  0.00  0.00    +0.230 C 
ENDBRANCH  23  25
ENDBRANCH  15  23
ENDBRANCH   1  20
TORSDOF 4
