REMARK  Name = ZINC42397951
REMARK  7 active torsions:
REMARK  status: ('A' for Active; 'I' for Inactive)
REMARK    1  A    between atoms: C_1  and  N_2
REMARK    2  A    between atoms: N_2  and  C_3
REMARK    3  A    between atoms: N_2  and  C_10
REMARK    4  A    between atoms: C_3  and  C_4
REMARK    5  A    between atoms: C_10  and  C_11
REMARK    6  A    between atoms: N_13  and  C_14
REMARK    7  A    between atoms: C_18  and  N_20
REMARK                            x       y       z     vdW  Elec       q    Type
REMARK                         _______ _______ _______ _____ _____    ______ ____
ROOT
ATOM      1  C   UNL     1       2.136  -0.058  -1.159  0.00  0.00    +0.201 C 
ATOM      2  O   UNL     1       2.551   0.580  -0.214  0.00  0.00    -0.278 OA
ATOM      3  N   UNL     1       2.967  -0.387  -2.168  0.00  0.00    -0.287 N 
ATOM      4  H   UNL     1       2.653  -0.953  -2.890  0.00  0.00    +0.155 HD
ENDROOT
BRANCH   3   5
ATOM      5  C   UNL     1       4.283   0.090  -2.174  0.00  0.00    +0.035 A 
ATOM      6  C   UNL     1       4.897   0.422  -3.375  0.00  0.00    +0.025 A 
ATOM      7  C   UNL     1       6.196   0.892  -3.383  0.00  0.00    +0.023 A 
ATOM      8  C   UNL     1       6.889   1.034  -2.196  0.00  0.00    +0.062 A 
ATOM      9  C   UNL     1       6.280   0.704  -0.990  0.00  0.00    +0.045 A 
ATOM     10  C   UNL     1       4.974   0.236  -0.980  0.00  0.00    +0.047 A 
ATOM     11 CL   UNL     1       8.521   1.625  -2.210  0.00  0.00    -0.082 Cl
BRANCH   9  12
ATOM     12  N   UNL     1       6.982   0.847   0.210  0.00  0.00    -0.357 N 
ATOM     13  H   UNL     1       7.894   1.177   0.203  0.00  0.00    +0.142 HD
ATOM     14  H   UNL     1       6.556   0.616   1.051  0.00  0.00    +0.142 HD
ENDBRANCH   9  12
ENDBRANCH   3   5
BRANCH   1  15
ATOM     15  C   UNL     1       0.691  -0.484  -1.204  0.00  0.00    +0.019 C 
BRANCH  15  17
ATOM     16  C   UNL     1      -0.025   1.462   0.003  0.00  0.00    -0.095 C 
ATOM     17  N   UNL     1       0.003  -0.007   0.003  0.00  0.00    +0.387 N 
ATOM     18  H   UNL     1       0.493  -0.334   0.822  0.00  0.00    -0.081 HD
BRANCH  17  19
ATOM     19  C   UNL     1      -1.373  -0.522   0.018  0.00  0.00    -0.035 C 
BRANCH  19  20
ATOM     20  C   UNL     1      -2.040  -0.135   1.312  0.00  0.00    -0.026 A 
ATOM     21  C   UNL     1      -2.763   0.975   1.603  0.00  0.00    +0.024 A 
ATOM     22  C   UNL     1      -3.287   1.120   2.874  0.00  0.00    +0.025 A 
ATOM     23  C   UNL     1      -3.063   0.148   3.792  0.00  0.00    +0.060 A 
ATOM     24  S   UNL     1      -2.092  -1.024   2.860  0.00  0.00    -0.102 S 
ATOM     25 BR   UNL     1      -4.300   2.652   3.324  0.00  0.00    -0.050 Br
ENDBRANCH  19  20
ENDBRANCH  17  19
ENDBRANCH  15  17
ENDBRANCH   1  15
TORSDOF 6
