REMARK  Name = ZINC51169283
REMARK  5 active torsions:
REMARK  status: ('A' for Active; 'I' for Inactive)
REMARK    1  A    between atoms: C_1  and  C_2
REMARK    2  A    between atoms: C_2  and  C_3
REMARK    3  A    between atoms: C_3  and  C_4
REMARK    4  A    between atoms: C_6  and  N_15
REMARK    5  A    between atoms: N_15  and  N_16
REMARK                            x       y       z     vdW  Elec       q    Type
REMARK                         _______ _______ _______ _____ _____    ______ ____
ROOT
ATOM      1  C   UNL     1      -1.413  -2.041   0.005  0.00  0.00    +0.018 A 
ATOM      2  C   UNL     1      -1.304  -2.707  -1.208  0.00  0.00    +0.046 A 
ATOM      3  C   UNL     1      -1.284  -4.092  -1.231  0.00  0.00    +0.052 A 
ATOM      4  C   UNL     1      -1.377  -4.776   0.005  0.00  0.00    +0.021 A 
ATOM      5  C   UNL     1      -1.363  -6.177   0.067  0.00  0.00    +0.026 A 
ATOM      6  C   UNL     1      -1.454  -6.799   1.276  0.00  0.00    +0.014 A 
ATOM      7  C   UNL     1      -1.562  -6.060   2.452  0.00  0.00    +0.016 A 
ATOM      8  C   UNL     1      -1.579  -4.699   2.426  0.00  0.00    +0.027 A 
ATOM      9  C   UNL     1      -1.486  -4.023   1.198  0.00  0.00    +0.048 A 
ATOM     10  N   UNL     1      -1.493  -2.686   1.145  0.00  0.00    -0.358 N 
ATOM     11  I   UNL     1      -1.434  -8.892   1.367  0.00  0.00    -0.044 I 
ATOM     12  H   UNL     1      -1.564  -2.180   1.970  0.00  0.00    +0.166 HD
ENDROOT
BRANCH   3  13
ATOM     13  N   UNL     1      -1.176  -4.787  -2.426  0.00  0.00    -0.282 N 
ATOM     14  H   UNL     1      -1.164  -5.757  -2.425  0.00  0.00    +0.166 HD
BRANCH  13  15
ATOM     15  N   UNL     1      -1.088  -4.105  -3.607  0.00  0.00    -0.256 NA
ATOM     16  H   UNL     1      -1.016  -4.741  -4.387  0.00  0.00    +0.140 HD
ATOM     17  H   UNL     1      -1.871  -3.479  -3.722  0.00  0.00    +0.140 HD
ENDBRANCH  13  15
ENDBRANCH   3  13
BRANCH   1  18
ATOM     18  C   UNL     1      -1.433  -0.534   0.013  0.00  0.00    +0.053 C 
BRANCH  18  20
ATOM     19  C   UNL     1      -0.019   1.526   0.010  0.00  0.00    +0.004 C 
ATOM     20  C   UNL     1       0.002  -0.004   0.002  0.00  0.00    +0.003 C 
ENDBRANCH  18  20
ENDBRANCH   1  18
TORSDOF 4
