REMARK  Name = ZINC39502519
REMARK  14 active torsions:
REMARK  status: ('A' for Active; 'I' for Inactive)
REMARK    1  A    between atoms: C_1  and  C_2
REMARK    2  A    between atoms: C_2  and  O_3
REMARK    3  A    between atoms: O_3  and  C_4
REMARK    4  A    between atoms: C_4  and  C_6
REMARK    5  A    between atoms: C_7  and  C_31
REMARK    6  A    between atoms: C_11  and  O_30
REMARK    7  A    between atoms: C_12  and  S_28
REMARK    8  A    between atoms: C_15  and  C_16
REMARK    9  A    between atoms: C_20  and  S_22
REMARK   10  A    between atoms: S_22  and  C_25
REMARK   11  A    between atoms: C_25  and  C_26
REMARK   12  A    between atoms: C_25  and  C_27
REMARK   13  A    between atoms: S_28  and  C_29
REMARK   14  A    between atoms: C_31  and  N_32
REMARK                            x       y       z     vdW  Elec       q    Type
REMARK                         _______ _______ _______ _____ _____    ______ ____
ROOT
ATOM      1  C   UNL     1      -2.417  -2.293  -0.075  0.00  0.00    +0.072 A 
ATOM      2  C   UNL     1      -2.930  -2.580  -1.351  0.00  0.00    -0.011 A 
ATOM      3  C   UNL     1      -4.068  -3.306  -1.500  0.00  0.00    +0.015 A 
ATOM      4  C   UNL     1      -4.758  -3.787  -0.371  0.00  0.00    -0.013 A 
ATOM      5  C   UNL     1      -5.936  -4.539  -0.515  0.00  0.00    +0.055 A 
ATOM      6  C   UNL     1      -6.591  -4.997   0.591  0.00  0.00    +0.131 A 
ATOM      7  C   UNL     1      -6.102  -4.726   1.880  0.00  0.00    +0.050 A 
ATOM      8  C   UNL     1      -4.950  -3.990   2.051  0.00  0.00    +0.027 A 
ATOM      9  C   UNL     1      -4.261  -3.510   0.927  0.00  0.00    -0.008 A 
ATOM     10  C   UNL     1      -3.072  -2.759   1.071  0.00  0.00    +0.004 A 
ENDROOT
BRANCH  10  11
ATOM     11  C   UNL     1      -2.531  -2.463   2.415  0.00  0.00    -0.015 A 
ATOM     12  C   UNL     1      -3.222  -1.609   3.276  0.00  0.00    +0.008 A 
ATOM     13  C   UNL     1      -2.711  -1.338   4.529  0.00  0.00    +0.002 A 
ATOM     14  C   UNL     1      -1.517  -1.909   4.931  0.00  0.00    +0.027 A 
ATOM     15  C   UNL     1      -0.828  -2.756   4.082  0.00  0.00    +0.089 A 
ATOM     16  C   UNL     1      -1.330  -3.042   2.829  0.00  0.00    +0.035 A 
BRANCH  15  17
ATOM     17  S   UNL     1       0.693  -3.478   4.604  0.00  0.00    -0.001 S 
ATOM     18  O   UNL     1       1.420  -3.700   3.404  0.00  0.00    -0.169 OA
ATOM     19  O   UNL     1       1.190  -2.595   5.600  0.00  0.00    -0.169 OA
BRANCH  17  20
ATOM     20  C   UNL     1       0.223  -5.062   5.353  0.00  0.00    +0.130 C 
ATOM     21  C   UNL     1      -0.473  -5.934   4.307  0.00  0.00    +0.032 C 
ATOM     22  C   UNL     1       1.477  -5.778   5.860  0.00  0.00    +0.032 C 
ENDBRANCH  17  20
ENDBRANCH  15  17
ENDBRANCH  10  11
BRANCH   1  23
ATOM     23  C   UNL     1      -1.181  -1.503   0.058  0.00  0.00    +0.340 C 
ATOM     24  O   UNL     1      -0.112  -2.066   0.190  0.00  0.00    -0.245 OA
BRANCH  23  25
ATOM     25  O   UNL     1      -1.235  -0.157   0.032  0.00  0.00    -0.461 OA
BRANCH  25  27
ATOM     26  C   UNL     1      -0.252   2.049   0.129  0.00  0.00    +0.048 C 
ATOM     27  C   UNL     1       0.010   0.543   0.051  0.00  0.00    +0.229 C 
ENDBRANCH  25  27
ENDBRANCH  23  25
ENDBRANCH   1  23
BRANCH   7  28
ATOM     28  S   UNL     1      -6.971  -5.331   3.289  0.00  0.00    -0.125 S 
ATOM     29  C   UNL     1      -5.987  -4.745   4.696  0.00  0.00    +0.090 C 
ENDBRANCH   7  28
BRANCH   6  30
ATOM     30  O   UNL     1      -7.729  -5.724   0.444  0.00  0.00    -0.506 OA
ATOM     31  H   UNL     1      -7.582  -6.677   0.376  0.00  0.00    +0.292 HD
ENDBRANCH   6  30
BRANCH   2  32
ATOM     32  C   UNL     1      -2.207  -2.075  -2.573  0.00  0.00    +0.181 C 
BRANCH  32  33
ATOM     33  N   UNL     1      -1.146  -3.017  -2.937  0.00  0.00    -0.248 N 
ATOM     34  C   UNL     1      -0.969  -3.609  -4.131  0.00  0.00    +0.219 A 
ATOM     35  N   UNL     1       0.088  -4.376  -4.051  0.00  0.00    -0.223 NA
ATOM     36  C   UNL     1       0.610  -4.301  -2.827  0.00  0.00    +0.245 A 
ATOM     37  N   UNL     1      -0.108  -3.477  -2.110  0.00  0.00    -0.158 NA
ENDBRANCH  32  33
ENDBRANCH   2  32
TORSDOF 10
