REMARK  Name = ZINC44533999
REMARK  6 active torsions:
REMARK  status: ('A' for Active; 'I' for Inactive)
REMARK    1  A    between atoms: C_1  and  N_2
REMARK    2  A    between atoms: C_6  and  C_9
REMARK    3  A    between atoms: C_9  and  N_10
REMARK    4  A    between atoms: N_10  and  S_11
REMARK    5  A    between atoms: S_11  and  C_14
REMARK    6  A    between atoms: C_19  and  N_20
REMARK                            x       y       z     vdW  Elec       q    Type
REMARK                         _______ _______ _______ _____ _____    ______ ____
ROOT
ATOM      1  S   UNL     1       2.358  -4.903   3.498  0.00  0.00    +0.060 S 
ATOM      2  O   UNL     1       2.134  -6.300   3.370  0.00  0.00    -0.153 OA
ATOM      3  O   UNL     1       3.603  -4.298   3.174  0.00  0.00    -0.153 OA
ENDROOT
BRANCH   1   4
ATOM      4  C   UNL     1       2.021  -4.491   5.178  0.00  0.00    +0.127 A 
ATOM      5  C   UNL     1       2.933  -3.749   5.904  0.00  0.00    +0.050 A 
ATOM      6  C   UNL     1       2.668  -3.425   7.223  0.00  0.00    +0.043 A 
ATOM      7  C   UNL     1       1.491  -3.842   7.818  0.00  0.00    +0.022 A 
ATOM      8  C   UNL     1       0.576  -4.584   7.097  0.00  0.00    +0.026 A 
ATOM      9  C   UNL     1       0.836  -4.906   5.771  0.00  0.00    +0.051 A 
ATOM     10 CL   UNL     1       3.816  -2.493   8.133  0.00  0.00    -0.083 Cl
BRANCH   9  11
ATOM     11  N   UNL     1      -0.090  -5.651   5.037  0.00  0.00    -0.356 N 
ATOM     12  H   UNL     1       0.050  -5.802   4.089  0.00  0.00    +0.142 HD
ATOM     13  H   UNL     1      -0.874  -6.018   5.475  0.00  0.00    +0.142 HD
ENDBRANCH   9  11
ENDBRANCH   1   4
BRANCH   1  14
ATOM     14  N   UNL     1       1.211  -4.152   2.570  0.00  0.00    -0.190 NA
ATOM     15  H   UNL     1       0.576  -4.681   2.062  0.00  0.00    +0.148 HD
BRANCH  14  16
ATOM     16  C   UNL     1       1.156  -2.689   2.515  0.00  0.00    +0.107 C 
BRANCH  16  22
ATOM     17  C   UNL     1      -0.896   1.137   0.252  0.00  0.00    -0.096 C 
ATOM     18  N   UNL     1      -0.683  -0.316   0.194  0.00  0.00    +0.378 N 
ATOM     19  C   UNL     1      -0.004  -0.659  -1.061  0.00  0.00    -0.079 C 
ATOM     20  C   UNL     1       0.148  -2.178  -1.164  0.00  0.00    -0.018 C 
ATOM     21  C   UNL     1       0.976  -2.684   0.021  0.00  0.00    +0.001 C 
ATOM     22  C   UNL     1       0.297  -2.256   1.325  0.00  0.00    -0.012 C 
ATOM     23  C   UNL     1       0.139  -0.734   1.335  0.00  0.00    -0.074 C 
ATOM     24  H   UNL     1      -1.574  -0.787   0.232  0.00  0.00    -0.082 HD
ENDBRANCH  16  22
ENDBRANCH  14  16
ENDBRANCH   1  14
TORSDOF 5
