REMARK  Name = ZINC27578717
REMARK  7 active torsions:
REMARK  status: ('A' for Active; 'I' for Inactive)
REMARK    1  A    between atoms: C_1  and  C_2
REMARK    2  A    between atoms: C_2  and  C_3
REMARK    3  A    between atoms: C_2  and  C_4
REMARK    4  A    between atoms: C_2  and  C_11
REMARK    5  A    between atoms: C_11  and  N_13
REMARK    6  A    between atoms: C_11  and  O_24
REMARK    7  A    between atoms: N_13  and  C_14
REMARK                            x       y       z     vdW  Elec       q    Type
REMARK                         _______ _______ _______ _____ _____    ______ ____
ROOT
ATOM      1  C   UNL     1      -1.256  -0.754   0.010  0.00  0.00    +0.210 C 
ENDROOT
BRANCH   1   3
ATOM      2  C   UNL     1       0.007  -2.870   0.420  0.00  0.00    +0.020 C 
ATOM      3  C   UNL     1      -1.120  -1.969   0.929  0.00  0.00    +0.033 C 
ATOM      4  C   UNL     1      -0.797  -1.500   2.350  0.00  0.00    +0.020 C 
BRANCH   3   5
ATOM      5  C   UNL     1      -2.415  -2.740   0.938  0.00  0.00    -0.038 A 
ATOM      6  C   UNL     1      -3.487  -2.299   0.185  0.00  0.00    +0.005 A 
ATOM      7  C   UNL     1      -4.673  -3.008   0.189  0.00  0.00    +0.015 A 
ATOM      8  C   UNL     1      -4.791  -4.155   0.954  0.00  0.00    +0.018 A 
ATOM      9  C   UNL     1      -3.720  -4.593   1.710  0.00  0.00    +0.015 A 
ATOM     10  C   UNL     1      -2.532  -3.886   1.702  0.00  0.00    +0.005 A 
ATOM     11 BR   UNL     1      -6.415  -5.122   0.964  0.00  0.00    -0.050 Br
ENDBRANCH   3   5
ENDBRANCH   1   3
BRANCH   1  12
ATOM     12  N   UNL     1       0.002  -0.004   0.002  0.00  0.00    -0.318 N 
ATOM     13  H   UNL     1       0.962  -0.541  -0.010  0.00  0.00    +0.149 HD
BRANCH  12  14
ATOM     14  C   UNL     1      -0.017   1.382   0.010  0.00  0.00    +0.040 A 
ATOM     15  C   UNL     1      -1.214   2.081   0.019  0.00  0.00    +0.041 A 
ATOM     16  C   UNL     1      -1.200   3.469   0.033  0.00  0.00    +0.085 A 
ATOM     17  N   UNL     1      -0.077   4.151   0.025  0.00  0.00    -0.361 N 
ATOM     18  C   UNL     1       1.114   3.542   0.011  0.00  0.00    +0.048 A 
ATOM     19  C   UNL     1       1.186   2.129   0.002  0.00  0.00    +0.019 A 
ATOM     20  C   UNL     1       2.437   1.497  -0.013  0.00  0.00    +0.012 A 
ATOM     21  C   UNL     1       3.572   2.250  -0.020  0.00  0.00    +0.001 A 
ATOM     22  C   UNL     1       3.505   3.641  -0.012  0.00  0.00    +0.002 A 
ATOM     23  C   UNL     1       2.306   4.286   0.003  0.00  0.00    +0.026 A 
ATOM     24  H   UNL     1      -0.102   5.250   0.032  0.00  0.00    +0.165 HD
ENDBRANCH  12  14
ENDBRANCH   1  12
BRANCH   1  25
ATOM     25  O   UNL     1      -1.559  -1.191  -1.316  0.00  0.00    -0.374 OA
ATOM     26  H   UNL     1      -1.694  -0.454  -2.121  0.00  0.00    +0.212 HD
ENDBRANCH   1  25
TORSDOF 5
