REMARK  Name = ZINC08768943
REMARK  11 active torsions:
REMARK  status: ('A' for Active; 'I' for Inactive)
REMARK    1  A    between atoms: C_1  and  C_2
REMARK    2  A    between atoms: C_2  and  C_3
REMARK    3  A    between atoms: C_2  and  C_4
REMARK    4  A    between atoms: C_7  and  N_10
REMARK    5  A    between atoms: C_11  and  C_13
REMARK    6  A    between atoms: C_13  and  C_15
REMARK    7  A    between atoms: C_13  and  N_19
REMARK    8  A    between atoms: C_15  and  C_16
REMARK    9  A    between atoms: C_16  and  S_17
REMARK   10  A    between atoms: S_17  and  C_18
REMARK   11  A    between atoms: C_20  and  C_22
REMARK                            x       y       z     vdW  Elec       q    Type
REMARK                         _______ _______ _______ _____ _____    ______ ____
ROOT
ATOM      1  C   UNL     1       3.342   4.187  -0.011  0.00  0.00    +0.160 C 
ENDROOT
BRANCH   1   3
ATOM      2  N   UNL     1       2.946   6.322  -1.195  0.00  0.00    -0.284 N 
ATOM      3  C   UNL     1       3.458   5.685  -0.123  0.00  0.00    +0.238 C 
ATOM      4  O   UNL     1       4.012   6.318   0.750  0.00  0.00    -0.273 OA
ATOM      5  H   UNL     1       2.563   5.811  -1.925  0.00  0.00    +0.155 HD
BRANCH   2   9
ATOM      6  C   UNL     1       3.010  10.484  -1.372  0.00  0.00    -0.045 A 
ATOM      7  C   UNL     1       4.054   9.803  -0.774  0.00  0.00    +0.006 A 
ATOM      8  C   UNL     1       4.036   8.423  -0.714  0.00  0.00    +0.023 A 
ATOM      9  C   UNL     1       2.967   7.720  -1.255  0.00  0.00    +0.033 A 
ATOM     10  C   UNL     1       1.923   8.407  -1.860  0.00  0.00    +0.023 A 
ATOM     11  C   UNL     1       1.945   9.787  -1.912  0.00  0.00    +0.006 A 
BRANCH   6  13
ATOM     12  C   UNL     1       2.998  12.438  -2.898  0.00  0.00    +0.012 C 
ATOM     13  C   UNL     1       3.033  11.989  -1.436  0.00  0.00    +0.013 C 
ATOM     14  C   UNL     1       1.813  12.550  -0.702  0.00  0.00    +0.012 C 
ENDBRANCH   6  13
ENDBRANCH   2   9
ENDBRANCH   1   3
BRANCH   1  15
ATOM     15  N   UNL     1       3.971   3.740   1.234  0.00  0.00    -0.305 N 
ATOM     16  C   UNL     1       4.444   2.482   1.337  0.00  0.00    +0.200 C 
ATOM     17  O   UNL     1       4.348   1.720   0.399  0.00  0.00    -0.278 OA
ATOM     18  H   UNL     1       4.048   4.350   1.985  0.00  0.00    +0.149 HD
BRANCH  16  19
ATOM     19  C   UNL     1       5.091   2.023   2.619  0.00  0.00    +0.021 C 
ATOM     20  C   UNL     1       4.012   1.635   3.629  0.00  0.00    +0.028 C 
ATOM     21  C   UNL     1       4.641   0.951   4.816  0.00  0.00    -0.047 A 
ATOM     22  C   UNL     1       3.901   0.838   5.983  0.00  0.00    +0.004 A 
ATOM     23  C   UNL     1       4.436   0.211   7.090  0.00  0.00    +0.000 A 
ATOM     24  C   UNL     1       5.717  -0.307   7.036  0.00  0.00    +0.000 A 
ATOM     25  C   UNL     1       6.455  -0.192   5.875  0.00  0.00    +0.002 A 
ATOM     26  C   UNL     1       5.919   0.438   4.762  0.00  0.00    -0.061 A 
ATOM     27  C   UNL     1       6.765   0.541   3.520  0.00  0.00    -0.045 C 
ATOM     28  N   UNL     1       5.929   0.840   2.349  0.00  0.00    +0.389 N 
ATOM     29  H   UNL     1       6.533   1.028   1.539  0.00  0.00    -0.084 HD
ATOM     30  H   UNL     1       5.326   0.035   2.147  0.00  0.00    -0.084 HD
ENDBRANCH  16  19
ENDBRANCH   1  15
BRANCH   1  31
ATOM     31  C   UNL     1       1.864   3.789  -0.006  0.00  0.00    +0.042 C 
BRANCH  31  32
ATOM     32  C   UNL     1       1.747   2.263  -0.017  0.00  0.00    +0.071 C 
BRANCH  32  33
ATOM     33  S   UNL     1      -0.005   1.792  -0.012  0.00  0.00    -0.164 S 
ATOM     34  C   UNL     1       0.029  -0.022  -0.026  0.00  0.00    +0.084 C 
ENDBRANCH  32  33
ENDBRANCH  31  32
ENDBRANCH   1  31
TORSDOF 8
