REMARK  Name = ZINC11255330
REMARK  5 active torsions:
REMARK  status: ('A' for Active; 'I' for Inactive)
REMARK    1  A    between atoms: C_3  and  C_6
REMARK    2  A    between atoms: C_15  and  C_17
REMARK    3  A    between atoms: C_17  and  S_18
REMARK    4  A    between atoms: S_18  and  C_19
REMARK    5  A    between atoms: N_21  and  C_22
REMARK                            x       y       z     vdW  Elec       q    Type
REMARK                         _______ _______ _______ _____ _____    ______ ____
ROOT
ATOM      1  C   UNL     1       3.740   1.823  -0.024  0.00  0.00    +0.010 A 
ATOM      2  C   UNL     1       4.131   2.771  -0.913  0.00  0.00    +0.057 A 
ATOM      3  S   UNL     1       5.853   3.017  -0.524  0.00  0.00    -0.076 S 
ATOM      4  C   UNL     1       6.008   1.855   0.808  0.00  0.00    +0.116 A 
ATOM      5  C   UNL     1       4.720   1.307   0.925  0.00  0.00    +0.080 A 
ATOM      6  C   UNL     1       4.556   0.323   1.951  0.00  0.00    +0.260 A 
ATOM      7  O   UNL     1       3.476  -0.213   2.127  0.00  0.00    -0.267 OA
ATOM      8  N   UNL     1       5.613  -0.002   2.718  0.00  0.00    -0.310 N 
ATOM      9  H   UNL     1       5.508  -0.669   3.415  0.00  0.00    +0.170 HD
ATOM     10  C   UNL     1       6.824   0.584   2.536  0.00  0.00    +0.121 A 
ATOM     11  N   UNL     1       7.008   1.479   1.602  0.00  0.00    -0.226 NA
ENDROOT
BRANCH   1  14
ATOM     12  C   UNL     1      -0.016   1.353   0.009  0.00  0.00    +0.008 A 
ATOM     13  C   UNL     1       1.179   2.041   0.002  0.00  0.00    +0.016 A 
ATOM     14  C   UNL     1       2.348   1.328  -0.013  0.00  0.00    +0.021 A 
ATOM     15  S   UNL     1       1.752  -0.355  -0.017  0.00  0.00    -0.097 S 
ATOM     16  C   UNL     1       0.002  -0.004   0.002  0.00  0.00    +0.046 A 
ENDBRANCH   1  14
BRANCH  10  17
ATOM     17  C   UNL     1       7.979   0.188   3.419  0.00  0.00    +0.151 C 
BRANCH  17  18
ATOM     18  S   UNL     1       9.455   1.131   2.944  0.00  0.00    -0.085 S 
BRANCH  18  19
ATOM     19  C   UNL     1      10.700   0.562   4.053  0.00  0.00    +0.126 C 
ATOM     20  N   UNL     1      10.413  -0.344   4.946  0.00  0.00    -0.382 N 
ATOM     21  N   UNL     1      11.974   1.074   3.978  0.00  0.00    -0.323 N 
ATOM     22  H   UNL     1      11.098  -0.657   5.557  0.00  0.00    +0.158 HD
ATOM     23  H   UNL     1      12.188   1.748   3.314  0.00  0.00    +0.148 HD
ATOM     24  H   UNL     1       9.514  -0.705   4.999  0.00  0.00    +0.158 HD
BRANCH  21  25
ATOM     25  C   UNL     1      13.009   0.601   4.901  0.00  0.00    +0.072 C 
ATOM     26  C   UNL     1      13.925   1.651   5.534  0.00  0.00    +0.024 C 
ATOM     27  C   UNL     1      14.466   0.719   4.448  0.00  0.00    +0.024 C 
ENDBRANCH  21  25
ENDBRANCH  18  19
ENDBRANCH  17  18
ENDBRANCH  10  17
TORSDOF 5
