REMARK  Name = ZINC27519851
REMARK  4 active torsions:
REMARK  status: ('A' for Active; 'I' for Inactive)
REMARK    1  A    between atoms: C_3  and  C_10
REMARK    2  A    between atoms: C_5  and  N_7
REMARK    3  A    between atoms: N_12  and  N_13
REMARK    4  A    between atoms: C_14  and  C_15
REMARK                            x       y       z     vdW  Elec       q    Type
REMARK                         _______ _______ _______ _____ _____    ______ ____
ROOT
ATOM      1  N   UNL     1       1.069   7.413   0.028  0.00  0.00    -0.291 N 
ATOM      2  C   UNL     1       2.190   8.081   0.020  0.00  0.00    +0.121 C 
ATOM      3  N   UNL     1       3.403   7.403   0.005  0.00  0.00    -0.343 N 
ATOM      4  H   UNL     1       4.348   7.966  -0.002  0.00  0.00    +0.144 HD
ATOM      5  H   UNL     1       3.418   6.303  -0.000  0.00  0.00    +0.144 HD
ATOM      6  H   UNL     1       0.109   7.950   0.041  0.00  0.00    +0.186 HD
ENDROOT
BRANCH   2   7
ATOM      7  C   UNL     1       2.170   9.556   0.028  0.00  0.00    +0.099 A 
ATOM      8  C   UNL     1       3.350  10.276   0.019  0.00  0.00    +0.030 A 
ATOM      9  C   UNL     1       3.267  11.736   0.026  0.00  0.00    +0.019 A 
ATOM     10  C   UNL     1       4.433  12.514   0.018  0.00  0.00    +0.026 A 
ATOM     11  C   UNL     1       4.337  13.887   0.025  0.00  0.00    +0.019 A 
ATOM     12  C   UNL     1       3.091  14.502   0.040  0.00  0.00    +0.019 A 
ATOM     13  C   UNL     1       1.936  13.749   0.048  0.00  0.00    +0.048 A 
ATOM     14  C   UNL     1       2.008  12.361   0.041  0.00  0.00    +0.139 A 
ATOM     15  O   UNL     1       0.875  11.627   0.049  0.00  0.00    -0.422 OA
ATOM     16  C   UNL     1       0.897  10.286   0.037  0.00  0.00    +0.348 A 
ATOM     17  O   UNL     1      -0.150   9.667   0.040  0.00  0.00    -0.244 OA
ATOM     18 BR   UNL     1       5.907  14.941   0.015  0.00  0.00    -0.050 Br
ENDBRANCH   2   7
BRANCH   1  21
ATOM     19  C   UNL     1      -0.070   5.323   0.030  0.00  0.00    +0.262 C 
ATOM     20  O   UNL     1      -1.132   5.917   0.043  0.00  0.00    -0.269 OA
ATOM     21  N   UNL     1       1.088   6.012   0.022  0.00  0.00    -0.224 N 
ATOM     22  H   UNL     1       2.048   5.475   0.009  0.00  0.00    +0.175 HD
BRANCH  19  25
ATOM     23  C   UNL     1       1.178   1.781   0.000  0.00  0.00    +0.003 A 
ATOM     24  C   UNL     1       1.166   3.160   0.007  0.00  0.00    +0.013 A 
ATOM     25  C   UNL     1      -0.050   3.845   0.023  0.00  0.00    +0.040 A 
ATOM     26  C   UNL     1      -1.248   3.127   0.031  0.00  0.00    +0.045 A 
ATOM     27  C   UNL     1      -1.222   1.748   0.017  0.00  0.00    +0.127 A 
ATOM     28  C   UNL     1      -0.013   1.076   0.008  0.00  0.00    +0.033 A 
BRANCH  27  29
ATOM     29  N   UNL     1      -2.491   0.986   0.019  0.00  0.00    +0.056 N 
ATOM     30  O   UNL     1      -2.470  -0.232   0.013  0.00  0.00    -0.126 OA
ATOM     31  O   UNL     1      -3.556   1.576   0.028  0.00  0.00    -0.126 OA
ENDBRANCH  27  29
ENDBRANCH  19  25
ENDBRANCH   1  21
TORSDOF 4
