REMARK  Name = ZINC35210320
REMARK  17 active torsions:
REMARK  status: ('A' for Active; 'I' for Inactive)
REMARK    1  A    between atoms: C_1  and  C_2
REMARK    2  A    between atoms: C_2  and  N_3
REMARK    3  A    between atoms: N_3  and  C_4
REMARK    4  A    between atoms: N_3  and  C_6
REMARK    5  A    between atoms: C_4  and  C_5
REMARK    6  A    between atoms: C_6  and  C_7
REMARK    7  A    between atoms: C_7  and  N_8
REMARK    8  A    between atoms: C_9  and  C_11
REMARK    9  A    between atoms: C_13  and  N_20
REMARK   10  A    between atoms: C_16  and  N_17
REMARK   11  A    between atoms: N_17  and  C_18
REMARK   12  A    between atoms: N_17  and  C_19
REMARK   13  A    between atoms: N_23  and  C_24
REMARK   14  A    between atoms: C_27  and  O_32
REMARK   15  A    between atoms: C_29  and  O_30
REMARK   16  A    between atoms: O_30  and  C_31
REMARK   17  A    between atoms: O_32  and  C_33
REMARK                            x       y       z     vdW  Elec       q    Type
REMARK                         _______ _______ _______ _____ _____    ______ ____
ROOT
ATOM      1  C   UNL     1       0.064  -5.771   3.696  0.00  0.00    +0.059 A 
ATOM      2  C   UNL     1      -0.440  -6.744   2.829  0.00  0.00    +0.038 A 
ATOM      3  C   UNL     1      -0.381  -8.080   3.185  0.00  0.00    +0.036 A 
ATOM      4  C   UNL     1       0.178  -8.456   4.402  0.00  0.00    +0.025 A 
ATOM      5  C   UNL     1       0.678  -7.503   5.264  0.00  0.00    +0.025 A 
ATOM      6  C   UNL     1       0.632  -6.157   4.919  0.00  0.00    +0.042 A 
ENDROOT
BRANCH   3   7
ATOM      7  N   UNL     1      -0.886  -9.057   2.316  0.00  0.00    -0.269 N 
ATOM      8  C   UNL     1      -1.471 -10.164   2.814  0.00  0.00    +0.308 C 
ATOM      9  O   UNL     1      -1.640 -10.275   4.013  0.00  0.00    -0.252 OA
ATOM     10  N   UNL     1      -1.869 -11.148   1.984  0.00  0.00    -0.266 N 
ATOM     11  H   UNL     1      -0.815  -8.936   1.356  0.00  0.00    +0.156 HD
ATOM     12  H   UNL     1      -1.672 -11.092   1.036  0.00  0.00    +0.156 HD
BRANCH  10  13
ATOM     13  C   UNL     1      -2.570 -12.253   2.490  0.00  0.00    +0.077 A 
ATOM     14  C   UNL     1      -3.430 -12.096   3.567  0.00  0.00    +0.030 A 
ATOM     15  C   UNL     1      -4.120 -13.185   4.066  0.00  0.00    +0.047 A 
ATOM     16  C   UNL     1      -3.954 -14.437   3.492  0.00  0.00    +0.124 A 
ATOM     17  C   UNL     1      -3.095 -14.599   2.415  0.00  0.00    +0.093 A 
ATOM     18  C   UNL     1      -2.407 -13.508   1.909  0.00  0.00    +0.145 A 
BRANCH  18  19
ATOM     19  O   UNL     1      -1.568 -13.664   0.850  0.00  0.00    -0.493 OA
ATOM     20  C   UNL     1      -1.450 -14.980   0.304  0.00  0.00    +0.277 C 
ENDBRANCH  18  19
BRANCH  16  21
ATOM     21  O   UNL     1      -4.634 -15.506   3.985  0.00  0.00    -0.495 OA
ATOM     22  C   UNL     1      -5.500 -15.267   5.096  0.00  0.00    +0.277 C 
ENDBRANCH  16  21
ENDBRANCH  10  13
ENDBRANCH   3   7
BRANCH   1  24
ATOM     23  N   UNL     1      -0.541  -3.978   2.148  0.00  0.00    -0.313 N 
ATOM     24  C   UNL     1       0.005  -4.345   3.324  0.00  0.00    +0.246 C 
ATOM     25  O   UNL     1       0.449  -3.501   4.079  0.00  0.00    -0.270 OA
ATOM     26  H   UNL     1      -0.895  -4.651   1.546  0.00  0.00    +0.149 HD
BRANCH  23  27
ATOM     27  C   UNL     1      -0.599  -2.561   1.779  0.00  0.00    +0.086 C 
BRANCH  27  28
ATOM     28  C   UNL     1      -1.261  -2.419   0.407  0.00  0.00    -0.060 C 
BRANCH  28  29
ATOM     29  N   UNL     1      -1.320  -0.999   0.036  0.00  0.00    +0.380 N 
ATOM     30  H   UNL     1      -1.788  -0.480   0.764  0.00  0.00    -0.082 HD
BRANCH  29  32
ATOM     31  C   UNL     1      -0.011   1.028  -0.385  0.00  0.00    -0.017 C 
ATOM     32  C   UNL     1       0.044  -0.480  -0.135  0.00  0.00    -0.082 C 
ENDBRANCH  29  32
BRANCH  29  33
ATOM     33  C   UNL     1      -2.061  -0.851  -1.224  0.00  0.00    -0.082 C 
ATOM     34  C   UNL     1      -3.520  -1.261  -1.008  0.00  0.00    -0.017 C 
ENDBRANCH  29  33
ENDBRANCH  28  29
ENDBRANCH  27  28
ENDBRANCH  23  27
ENDBRANCH   1  24
BRANCH   6  35
ATOM     35  N   UNL     1       1.141  -5.197   5.787  0.00  0.00    -0.335 N 
ATOM     36  C   UNL     1       2.545  -4.790   5.686  0.00  0.00    +0.129 C 
ATOM     37  C   UNL     1       0.275  -4.593   6.801  0.00  0.00    +0.129 C 
ENDBRANCH   6  35
TORSDOF 11
