REMARK  Name = ZINC41163986
REMARK  7 active torsions:
REMARK  status: ('A' for Active; 'I' for Inactive)
REMARK    1  A    between atoms: C_1  and  C_2
REMARK    2  A    between atoms: C_2  and  C_3
REMARK    3  A    between atoms: C_3  and  C_4
REMARK    4  A    between atoms: C_3  and  C_6
REMARK    5  A    between atoms: C_3  and  N_21
REMARK    6  A    between atoms: C_4  and  C_5
REMARK    7  A    between atoms: C_8  and  C_11
REMARK                            x       y       z     vdW  Elec       q    Type
REMARK                         _______ _______ _______ _____ _____    ______ ____
ROOT
ATOM      1  C   UNL     1      -2.090   0.067  -1.327  0.00  0.00    +0.068 A 
ATOM      2  N   UNL     1      -3.341  -0.006  -1.698  0.00  0.00    -0.242 NA
ATOM      3  C   UNL     1      -3.745   0.480  -2.865  0.00  0.00    +0.113 A 
ATOM      4  C   UNL     1      -2.780   1.058  -3.651  0.00  0.00    +0.078 A 
ATOM      5  S   UNL     1      -1.342   0.853  -2.613  0.00  0.00    -0.081 S 
ENDROOT
BRANCH   3   6
ATOM      6  C   UNL     1      -5.156   0.402  -3.295  0.00  0.00    +0.155 A 
ATOM      7  C   UNL     1      -5.623   0.783  -4.509  0.00  0.00    +0.060 A 
ATOM      8  C   UNL     1      -7.065   0.528  -4.487  0.00  0.00    +0.022 A 
ATOM      9  C   UNL     1      -8.098   0.702  -5.410  0.00  0.00    +0.027 A 
ATOM     10  C   UNL     1      -9.385   0.352  -5.066  0.00  0.00    +0.019 A 
ATOM     11  C   UNL     1      -9.655  -0.170  -3.808  0.00  0.00    +0.019 A 
ATOM     12  C   UNL     1      -8.643  -0.346  -2.887  0.00  0.00    +0.048 A 
ATOM     13  C   UNL     1      -7.339  -0.001  -3.213  0.00  0.00    +0.136 A 
ATOM     14  O   UNL     1      -6.171  -0.063  -2.541  0.00  0.00    -0.453 OA
ATOM     15 BR   UNL     1     -10.790   0.584  -6.310  0.00  0.00    -0.050 Br
ENDBRANCH   3   6
BRANCH   1  16
ATOM     16  C   UNL     1      -1.467  -0.428  -0.048  0.00  0.00    -0.022 C 
BRANCH  16  17
ATOM     17  N   UNL     1      -1.800  -1.847   0.142  0.00  0.00    +0.386 N 
ATOM     18  H   UNL     1      -1.383  -2.179   0.998  0.00  0.00    -0.089 HD
ATOM     19  H   UNL     1      -2.802  -1.953   0.193  0.00  0.00    -0.089 HD
ATOM     20  H   UNL     1      -1.444  -2.382  -0.636  0.00  0.00    -0.089 HD
ENDBRANCH  16  17
BRANCH  16  22
ATOM     21  C   UNL     1       0.604  -1.154  -1.243  0.00  0.00    +0.003 C 
ATOM     22  C   UNL     1       0.052  -0.267  -0.124  0.00  0.00    -0.010 C 
ENDBRANCH  16  22
BRANCH  16  23
ATOM     23  C   UNL     1      -2.007   0.384   1.131  0.00  0.00    -0.010 C 
ATOM     24  C   UNL     1      -1.374  -0.120   2.430  0.00  0.00    +0.003 C 
ENDBRANCH  16  23
ENDBRANCH   1  16
TORSDOF 5
