REMARK  Name = ZINC52892407
REMARK  9 active torsions:
REMARK  status: ('A' for Active; 'I' for Inactive)
REMARK    1  A    between atoms: C_1  and  O_2
REMARK    2  A    between atoms: O_2  and  C_3
REMARK    3  A    between atoms: C_6  and  C_9
REMARK    4  A    between atoms: C_9  and  C_11
REMARK    5  A    between atoms: C_9  and  N_25
REMARK    6  A    between atoms: C_11  and  N_12
REMARK    7  A    between atoms: C_13  and  C_15
REMARK    8  A    between atoms: C_15  and  N_16
REMARK    9  A    between atoms: C_20  and  C_22
REMARK                            x       y       z     vdW  Elec       q    Type
REMARK                         _______ _______ _______ _____ _____    ______ ____
ROOT
ATOM      1  C   UNL     1       2.413  -2.501  -6.111  0.00  0.00    +0.093 C 
ENDROOT
BRANCH   1   2
ATOM      2  N   UNL     1       1.420  -1.465  -6.404  0.00  0.00    -0.318 N 
ATOM      3  C   UNL     1       0.326  -1.766  -7.130  0.00  0.00    +0.196 C 
ATOM      4  O   UNL     1       0.163  -2.895  -7.542  0.00  0.00    -0.278 OA
ATOM      5  H   UNL     1       1.550  -0.562  -6.075  0.00  0.00    +0.149 HD
BRANCH   3   6
ATOM      6  C   UNL     1      -0.696  -0.700  -7.431  0.00  0.00    +0.020 C 
BRANCH   6   7
ATOM      7  N   UNL     1      -1.784  -1.276  -8.231  0.00  0.00    +0.393 N 
ATOM      8  C   UNL     1      -1.279  -1.637  -9.573  0.00  0.00    -0.077 C 
ATOM      9  C   UNL     1      -2.453  -1.328 -10.535  0.00  0.00    -0.020 C 
ATOM     10  C   UNL     1      -3.047  -0.043  -9.901  0.00  0.00    -0.008 C 
ATOM     11  C   UNL     1      -2.864  -0.285  -8.388  0.00  0.00    +0.020 C 
ATOM     12  H   UNL     1      -2.144  -2.100  -7.773  0.00  0.00    -0.080 HD
BRANCH  11  13
ATOM     13  C   UNL     1      -2.481   1.003  -7.705  0.00  0.00    +0.197 C 
ATOM     14  O   UNL     1      -1.448   1.563  -8.004  0.00  0.00    -0.278 OA
ATOM     15  N   UNL     1      -3.286   1.532  -6.763  0.00  0.00    -0.331 N 
ATOM     16  H   UNL     1      -4.112   1.083  -6.524  0.00  0.00    +0.145 HD
ATOM     17  H   UNL     1      -3.039   2.360  -6.323  0.00  0.00    +0.145 HD
ENDBRANCH  11  13
ENDBRANCH   6   7
ENDBRANCH   3   6
ENDBRANCH   1   2
BRANCH   1  18
ATOM     18  C   UNL     1       3.479  -1.936  -5.170  0.00  0.00    -0.020 C 
BRANCH  18  19
ATOM     19  N   UNL     1       4.527  -2.942  -4.957  0.00  0.00    +0.385 N 
ATOM     20  C   UNL     1       5.514  -2.423  -4.001  0.00  0.00    -0.078 C 
ATOM     21  C   UNL     1       6.565  -3.498  -3.713  0.00  0.00    -0.019 C 
ATOM     22  C   UNL     1       7.268  -3.879  -5.019  0.00  0.00    -0.004 C 
ATOM     23  C   UNL     1       6.221  -4.348  -6.033  0.00  0.00    -0.019 C 
ATOM     24  C   UNL     1       5.183  -3.242  -6.235  0.00  0.00    -0.078 C 
ATOM     25  H   UNL     1       4.114  -3.784  -4.586  0.00  0.00    -0.081 HD
ENDBRANCH  18  19
BRANCH  18  29
ATOM     26  C   UNL     1       1.682  -0.934  -1.424  0.00  0.00    +0.120 A 
ATOM     27  C   UNL     1       1.934   0.058  -2.361  0.00  0.00    +0.046 A 
ATOM     28  C   UNL     1       2.515  -0.269  -3.571  0.00  0.00    +0.005 A 
ATOM     29  C   UNL     1       2.845  -1.583  -3.849  0.00  0.00    -0.059 A 
ATOM     30  C   UNL     1       2.595  -2.572  -2.917  0.00  0.00    +0.005 A 
ATOM     31  C   UNL     1       2.020  -2.250  -1.702  0.00  0.00    +0.046 A 
BRANCH  26  33
ATOM     32  C   UNL     1       0.790   0.760  -0.014  0.00  0.00    +0.277 C 
ATOM     33  O   UNL     1       1.111  -0.615  -0.233  0.00  0.00    -0.495 OA
ENDBRANCH  26  33
ENDBRANCH  18  29
ENDBRANCH   1  18
TORSDOF 8
