REMARK  Name = ZINC63122461
REMARK  7 active torsions:
REMARK  status: ('A' for Active; 'I' for Inactive)
REMARK    1  A    between atoms: C_1  and  O_2
REMARK    2  A    between atoms: O_2  and  C_3
REMARK    3  A    between atoms: C_3  and  C_5
REMARK    4  A    between atoms: C_8  and  N_12
REMARK    5  A    between atoms: C_13  and  C_15
REMARK    6  A    between atoms: C_15  and  N_16
REMARK    7  A    between atoms: C_19  and  C_22
REMARK                            x       y       z     vdW  Elec       q    Type
REMARK                         _______ _______ _______ _____ _____    ______ ____
ROOT
ATOM      1  N   UNL     1       4.957  -2.418   8.339  0.00  0.00    +0.385 N 
ATOM      2  C   UNL     1       5.083  -3.881   8.349  0.00  0.00    -0.078 C 
ATOM      3  C   UNL     1       5.040  -4.390   9.792  0.00  0.00    -0.011 C 
ATOM      4  C   UNL     1       6.198  -3.770  10.580  0.00  0.00    +0.014 C 
ATOM      5  C   UNL     1       6.097  -2.244  10.500  0.00  0.00    -0.011 C 
ATOM      6  C   UNL     1       6.101  -1.814   9.031  0.00  0.00    -0.078 C 
ATOM      7  H   UNL     1       4.103  -2.153   8.807  0.00  0.00    -0.081 HD
ENDROOT
BRANCH   4   8
ATOM      8  C   UNL     1       6.116  -4.205  12.021  0.00  0.00    -0.039 C 
ATOM      9  C   UNL     1       7.050  -4.893  12.717  0.00  0.00    -0.001 A 
ATOM     10  C   UNL     1       8.370  -5.422  12.354  0.00  0.00    +0.010 A 
ATOM     11  C   UNL     1       9.090  -6.084  13.288  0.00  0.00    +0.001 A 
ATOM     12  C   UNL     1       8.608  -6.277  14.590  0.00  0.00    +0.002 A 
ATOM     13  C   UNL     1       7.405  -5.821  14.998  0.00  0.00    +0.026 A 
ATOM     14  C   UNL     1       6.564  -5.110  14.098  0.00  0.00    +0.043 A 
ATOM     15  N   UNL     1       5.376  -4.577  14.250  0.00  0.00    -0.380 N 
ATOM     16  C   UNL     1       4.976  -3.956  12.983  0.00  0.00    +0.145 C 
ATOM     17  H   UNL     1       4.851  -4.588  15.066  0.00  0.00    +0.160 HD
ENDBRANCH   4   8
BRANCH   1  18
ATOM     18  C   UNL     1       4.920  -1.942   6.950  0.00  0.00    +0.019 C 
BRANCH  18  20
ATOM     19  N   UNL     1       3.432  -2.151   4.984  0.00  0.00    -0.290 N 
ATOM     20  C   UNL     1       3.678  -2.463   6.272  0.00  0.00    +0.198 C 
ATOM     21  O   UNL     1       2.901  -3.163   6.886  0.00  0.00    -0.278 OA
ATOM     22  H   UNL     1       4.054  -1.592   4.493  0.00  0.00    +0.151 HD
BRANCH  19  26
ATOM     23  C   UNL     1       0.678  -2.024   1.090  0.00  0.00    +0.110 C 
ATOM     24  C   UNL     1       1.383  -2.633   2.067  0.00  0.00    +0.023 C 
ATOM     25  N   UNL     1       1.958  -1.931   3.065  0.00  0.00    -0.320 N 
ATOM     26  C   UNL     1       2.226  -2.658   4.326  0.00  0.00    +0.219 C 
ATOM     27  S   UNL     1       2.484  -4.366   3.677  0.00  0.00    -0.114 S 
ATOM     28  C   UNL     1       1.562  -4.143   2.097  0.00  0.00    +0.123 C 
ATOM     29  H   UNL     1       2.185  -0.994   2.961  0.00  0.00    +0.148 HD
BRANCH  23  30
ATOM     30  C   UNL     1       0.411  -0.640   1.170  0.00  0.00    +0.333 C 
ATOM     31  O   UNL     1       0.722  -0.017   2.169  0.00  0.00    -0.246 OA
BRANCH  30  33
ATOM     32  C   UNL     1      -0.429   1.393   0.289  0.00  0.00    +0.280 C 
ATOM     33  O   UNL     1      -0.189  -0.008   0.140  0.00  0.00    -0.465 OA
ENDBRANCH  30  33
ENDBRANCH  23  30
ENDBRANCH  19  26
ENDBRANCH  18  20
ENDBRANCH   1  18
TORSDOF 6
