REMARK  Name = ZINC61359888
REMARK  6 active torsions:
REMARK  status: ('A' for Active; 'I' for Inactive)
REMARK    1  A    between atoms: C_1  and  O_2
REMARK    2  A    between atoms: O_2  and  C_3
REMARK    3  A    between atoms: C_5  and  C_11
REMARK    4  A    between atoms: C_8  and  O_9
REMARK    5  A    between atoms: C_11  and  N_12
REMARK    6  A    between atoms: N_12  and  C_13
REMARK                            x       y       z     vdW  Elec       q    Type
REMARK                         _______ _______ _______ _____ _____    ______ ____
ROOT
ATOM      1  C   UNL     1       2.377   0.471  -4.187  0.00  0.00    -0.046 C 
ENDROOT
BRANCH   1   4
ATOM      2  C   UNL     1       0.643  -0.529  -0.982  0.00  0.00    +0.163 A 
ATOM      3  C   UNL     1       1.216   0.240  -1.982  0.00  0.00    +0.051 A 
ATOM      4  C   UNL     1       1.755  -0.368  -3.101  0.00  0.00    -0.060 A 
ATOM      5  C   UNL     1       1.723  -1.744  -3.225  0.00  0.00    +0.021 A 
ATOM      6  C   UNL     1       1.153  -2.519  -2.232  0.00  0.00    +0.063 A 
ATOM      7  C   UNL     1       0.617  -1.915  -1.105  0.00  0.00    +0.173 A 
ATOM      8 BR   UNL     1       1.110  -4.401  -2.407  0.00  0.00    -0.046 Br
BRANCH   2  10
ATOM      9  C   UNL     1       0.175   1.494   0.176  0.00  0.00    +0.277 C 
ATOM     10  O   UNL     1       0.113   0.068   0.118  0.00  0.00    -0.491 OA
ENDBRANCH   2  10
BRANCH   7  11
ATOM     11  O   UNL     1       0.060  -2.675  -0.123  0.00  0.00    -0.503 OA
ATOM     12  H   UNL     1      -0.884  -2.844  -0.245  0.00  0.00    +0.292 HD
ENDBRANCH   7  11
ENDBRANCH   1   4
BRANCH   1  13
ATOM     13  N   UNL     1       3.806   0.659  -3.903  0.00  0.00    +0.386 N 
ATOM     14  H   UNL     1       3.913   1.199  -3.057  0.00  0.00    -0.085 HD
ATOM     15  H   UNL     1       4.246  -0.242  -3.785  0.00  0.00    -0.085 HD
BRANCH  13  16
ATOM     16  C   UNL     1       4.438   1.370  -5.021  0.00  0.00    -0.040 C 
ATOM     17  C   UNL     1       3.882   2.792  -5.105  0.00  0.00    -0.011 C 
ATOM     18  C   UNL     1       4.661   3.600  -6.146  0.00  0.00    +0.004 C 
ATOM     19  C   UNL     1       6.073   3.872  -5.604  0.00  0.00    +0.042 C 
ATOM     20  C   UNL     1       6.625   2.590  -5.071  0.00  0.00    -0.009 A 
ATOM     21  C   UNL     1       5.946   1.441  -4.795  0.00  0.00    -0.051 A 
ATOM     22  C   UNL     1       6.696   0.372  -4.306  0.00  0.00    +0.010 A 
ATOM     23  C   UNL     1       8.030   0.505  -4.128  0.00  0.00    +0.045 A 
ATOM     24  S   UNL     1       8.303   2.198  -4.651  0.00  0.00    -0.101 S 
ENDBRANCH  13  16
ENDBRANCH   1  13
TORSDOF 5
