REMARK  Name = ZINC67389744
REMARK  12 active torsions:
REMARK  status: ('A' for Active; 'I' for Inactive)
REMARK    1  A    between atoms: C_1  and  C_2
REMARK    2  A    between atoms: C_2  and  C_3
REMARK    3  A    between atoms: C_2  and  N_4
REMARK    4  A    between atoms: C_5  and  C_7
REMARK    5  A    between atoms: C_11  and  C_13
REMARK    6  A    between atoms: C_13  and  N_14
REMARK    7  A    between atoms: N_17  and  C_18
REMARK    8  A    between atoms: C_18  and  C_19
REMARK    9  A    between atoms: C_19  and  C_20
REMARK   10  A    between atoms: C_20  and  N_21
REMARK   11  A    between atoms: N_21  and  C_22
REMARK   12  A    between atoms: N_21  and  C_23
REMARK                            x       y       z     vdW  Elec       q    Type
REMARK                         _______ _______ _______ _____ _____    ______ ____
ROOT
ATOM      1  N   UNL     1      -5.229  -5.251  -2.947  0.00  0.00    -0.295 N 
ATOM      2  C   UNL     1      -5.537  -6.357  -3.652  0.00  0.00    +0.300 C 
ATOM      3  O   UNL     1      -5.556  -7.442  -3.104  0.00  0.00    -0.253 OA
ATOM      4  N   UNL     1      -5.824  -6.261  -4.966  0.00  0.00    -0.299 N 
ATOM      5  H   UNL     1      -5.214  -4.385  -3.385  0.00  0.00    +0.151 HD
ATOM      6  H   UNL     1      -5.809  -5.395  -5.403  0.00  0.00    +0.150 HD
ENDROOT
BRANCH   1   7
ATOM      7  C   UNL     1      -4.917  -5.355  -1.520  0.00  0.00    +0.141 C 
BRANCH   7  12
ATOM      8  C   UNL     1      -3.030  -2.246  -0.474  0.00  0.00    +0.037 A 
ATOM      9  C   UNL     1      -4.062  -1.462   0.045  0.00  0.00    +0.013 A 
ATOM     10  C   UNL     1      -5.354  -1.946   0.051  0.00  0.00    +0.001 A 
ATOM     11  C   UNL     1      -5.628  -3.204  -0.455  0.00  0.00    +0.005 A 
ATOM     12  C   UNL     1      -4.610  -3.986  -0.971  0.00  0.00    -0.030 A 
ATOM     13  C   UNL     1      -3.314  -3.512  -0.989  0.00  0.00    +0.018 A 
BRANCH   8  15
ATOM     14  N   UNL     1      -1.372  -0.511   0.012  0.00  0.00    -0.309 N 
ATOM     15  C   UNL     1      -1.643  -1.734  -0.485  0.00  0.00    +0.244 C 
ATOM     16  O   UNL     1      -0.747  -2.417  -0.942  0.00  0.00    -0.270 OA
ATOM     17  H   UNL     1      -2.087   0.033   0.377  0.00  0.00    +0.149 HD
BRANCH  14  19
ATOM     18  C   UNL     1      -0.019   1.526   0.010  0.00  0.00    +0.027 C 
ATOM     19  C   UNL     1       0.002  -0.004   0.002  0.00  0.00    +0.067 C 
ATOM     20  C   UNL     1       0.742  -0.511   1.242  0.00  0.00    +0.027 C 
ENDBRANCH  14  19
ENDBRANCH   8  15
ENDBRANCH   7  12
ENDBRANCH   1   7
BRANCH   4  21
ATOM     21  C   UNL     1      -6.159  -7.463  -5.732  0.00  0.00    +0.104 C 
BRANCH  21  22
ATOM     22  C   UNL     1      -6.440  -7.080  -7.187  0.00  0.00    +0.000 C 
BRANCH  22  23
ATOM     23  C   UNL     1      -6.789  -8.336  -7.987  0.00  0.00    -0.077 C 
BRANCH  23  24
ATOM     24  N   UNL     1      -7.059  -7.967  -9.383  0.00  0.00    +0.380 N 
ATOM     25  C   UNL     1      -5.831  -7.444  -9.998  0.00  0.00    -0.096 C 
ATOM     26  H   UNL     1      -7.777  -7.259  -9.412  0.00  0.00    -0.082 HD
BRANCH  24  27
ATOM     27  C   UNL     1      -7.511  -9.152 -10.124  0.00  0.00    -0.069 C 
ATOM     28  C   UNL     1      -8.789  -9.697  -9.485  0.00  0.00    -0.015 C 
ATOM     29  C   UNL     1      -9.259 -10.932 -10.256  0.00  0.00    -0.002 C 
ATOM     30  C   UNL     1      -9.540 -10.548 -11.711  0.00  0.00    -0.000 C 
ATOM     31  C   UNL     1      -8.262 -10.003 -12.350  0.00  0.00    -0.002 C 
ATOM     32  C   UNL     1      -7.791  -8.769 -11.579  0.00  0.00    -0.015 C 
ENDBRANCH  24  27
ENDBRANCH  23  24
ENDBRANCH  22  23
ENDBRANCH  21  22
ENDBRANCH   4  21
TORSDOF 9
