REMARK  Name = ZINC57712713
REMARK  8 active torsions:
REMARK  status: ('A' for Active; 'I' for Inactive)
REMARK    1  A    between atoms: C_1  and  C_2
REMARK    2  A    between atoms: C_2  and  O_3
REMARK    3  A    between atoms: O_3  and  C_4
REMARK    4  A    between atoms: C_9  and  C_16
REMARK    5  A    between atoms: C_16  and  N_17
REMARK    6  A    between atoms: N_17  and  C_18
REMARK    7  A    between atoms: C_21  and  N_24
REMARK    8  A    between atoms: C_28  and  C_31
REMARK                            x       y       z     vdW  Elec       q    Type
REMARK                         _______ _______ _______ _____ _____    ______ ____
ROOT
ATOM      1  C   UNL     1       1.873  -7.943  -3.161  0.00  0.00    +0.142 C 
ENDROOT
BRANCH   1   7
ATOM      2  C   UNL     1       0.777  -1.809  -1.336  0.00  0.00    +0.122 A 
ATOM      3  C   UNL     1       0.237  -2.665  -0.377  0.00  0.00    +0.046 A 
ATOM      4  C   UNL     1       0.334  -4.018  -0.524  0.00  0.00    +0.013 A 
ATOM      5  C   UNL     1       0.979  -4.552  -1.646  0.00  0.00    -0.001 A 
ATOM      6  C   UNL     1       1.098  -5.997  -1.832  0.00  0.00    +0.020 A 
ATOM      7  C   UNL     1       1.734  -6.459  -2.939  0.00  0.00    +0.034 A 
ATOM      8  C   UNL     1       2.264  -5.555  -3.882  0.00  0.00    +0.254 A 
ATOM      9  O   UNL     1       2.832  -5.991  -4.869  0.00  0.00    -0.268 OA
ATOM     10  N   UNL     1       2.160  -4.224  -3.721  0.00  0.00    -0.322 N 
ATOM     11  H   UNL     1       2.536  -3.631  -4.389  0.00  0.00    +0.169 HD
ATOM     12  C   UNL     1       1.526  -3.691  -2.618  0.00  0.00    +0.053 A 
ATOM     13  C   UNL     1       1.414  -2.317  -2.455  0.00  0.00    +0.072 A 
BRANCH   2  14
ATOM     14  O   UNL     1       0.671  -0.465  -1.174  0.00  0.00    -0.492 OA
BRANCH  14  16
ATOM     15  C   UNL     1      -0.019   1.526   0.010  0.00  0.00    +0.048 C 
ATOM     16  C   UNL     1       0.002  -0.004   0.002  0.00  0.00    +0.225 C 
ENDBRANCH  14  16
ENDBRANCH   2  14
ENDBRANCH   1   7
BRANCH   1  17
ATOM     17  N   UNL     1       0.782  -8.413  -4.017  0.00  0.00    -0.340 N 
ATOM     18  H   UNL     1       0.117  -7.787  -4.344  0.00  0.00    +0.146 HD
BRANCH  17  19
ATOM     19  C   UNL     1       0.699  -9.764  -4.364  0.00  0.00    +0.027 A 
ATOM     20  C   UNL     1       1.648 -10.663  -3.893  0.00  0.00    +0.025 A 
ATOM     21  C   UNL     1       1.562 -11.998  -4.238  0.00  0.00    +0.023 A 
ATOM     22  C   UNL     1       0.535 -12.439  -5.051  0.00  0.00    +0.014 A 
ATOM     23  C   UNL     1      -0.411 -11.547  -5.522  0.00  0.00    +0.023 A 
ATOM     24  C   UNL     1      -0.335 -10.212  -5.176  0.00  0.00    +0.025 A 
BRANCH  22  25
ATOM     25  N   UNL     1       0.453 -13.791  -5.399  0.00  0.00    -0.393 NA
ATOM     26  C   UNL     1      -0.819 -14.342  -4.915  0.00  0.00    +0.085 C 
ATOM     27  C   UNL     1      -0.879 -15.840  -5.222  0.00  0.00    +0.018 C 
ATOM     28  C   UNL     1      -0.772 -16.051  -6.735  0.00  0.00    +0.006 C 
ATOM     29  C   UNL     1       0.522 -15.407  -7.240  0.00  0.00    +0.002 C 
ATOM     30  C   UNL     1       0.531 -13.925  -6.858  0.00  0.00    +0.088 C 
ATOM     31  C   UNL     1       0.602 -15.544  -8.761  0.00  0.00    +0.009 C 
ATOM     32  H   UNL     1       1.218 -14.293  -4.974  0.00  0.00    +0.126 HD
ENDBRANCH  22  25
ENDBRANCH  17  19
ENDBRANCH   1  17
TORSDOF 6
