REMARK  Name = ZINC36298718
REMARK  13 active torsions:
REMARK  status: ('A' for Active; 'I' for Inactive)
REMARK    1  A    between atoms: C_1  and  C_2
REMARK    2  A    between atoms: C_4  and  C_22
REMARK    3  A    between atoms: C_5  and  C_21
REMARK    4  A    between atoms: C_6  and  S_9
REMARK    5  A    between atoms: C_7  and  C_8
REMARK    6  A    between atoms: S_9  and  N_12
REMARK    7  A    between atoms: N_12  and  C_13
REMARK    8  A    between atoms: C_13  and  C_14
REMARK    9  A    between atoms: C_14  and  C_16
REMARK   10  A    between atoms: C_14  and  N_20
REMARK   11  A    between atoms: C_16  and  C_17
REMARK   12  A    between atoms: C_17  and  C_18
REMARK   13  A    between atoms: C_17  and  C_19
REMARK                            x       y       z     vdW  Elec       q    Type
REMARK                         _______ _______ _______ _____ _____    ______ ____
ROOT
ATOM      1  S   UNL     1       0.024  -2.492   2.938  0.00  0.00    +0.059 S 
ATOM      2  O   UNL     1      -0.425  -1.431   3.771  0.00  0.00    -0.153 OA
ATOM      3  O   UNL     1      -0.626  -3.755   2.898  0.00  0.00    -0.153 OA
ENDROOT
BRANCH   1   9
ATOM      4  C   UNL     1      -0.192  -3.212  -2.234  0.00  0.00    +0.044 C 
ATOM      5  C   UNL     1      -0.079  -2.260  -1.072  0.00  0.00    -0.045 A 
ATOM      6  C   UNL     1       0.023  -0.900  -1.300  0.00  0.00    +0.007 A 
ATOM      7  C   UNL     1       0.126  -0.027  -0.233  0.00  0.00    -0.045 A 
ATOM      8  C   UNL     1       0.126  -0.513   1.061  0.00  0.00    -0.021 A 
ATOM      9  C   UNL     1       0.023  -1.872   1.289  0.00  0.00    +0.112 A 
ATOM     10  C   UNL     1      -0.085  -2.745   0.223  0.00  0.00    -0.021 A 
ATOM     11  C   UNL     1      -0.202  -4.227   0.471  0.00  0.00    +0.046 C 
ATOM     12  C   UNL     1       0.240   0.440   2.223  0.00  0.00    +0.046 C 
ATOM     13  C   UNL     1       0.239   1.455  -0.482  0.00  0.00    +0.044 C 
ENDBRANCH   1   9
BRANCH   1  14
ATOM     14  N   UNL     1       1.601  -2.783   3.351  0.00  0.00    -0.192 NA
ATOM     15  H   UNL     1       1.897  -3.690   3.526  0.00  0.00    +0.148 HD
BRANCH  14  16
ATOM     16  C   UNL     1       2.549  -1.671   3.453  0.00  0.00    +0.090 C 
BRANCH  16  17
ATOM     17  C   UNL     1       3.804  -2.136   4.194  0.00  0.00    -0.059 C 
BRANCH  17  18
ATOM     18  N   UNL     1       3.422  -2.701   5.495  0.00  0.00    +0.381 N 
ATOM     19  H   UNL     1       2.805  -3.487   5.353  0.00  0.00    -0.090 HD
ATOM     20  H   UNL     1       4.250  -3.008   5.984  0.00  0.00    -0.090 HD
ATOM     21  H   UNL     1       2.950  -1.997   6.042  0.00  0.00    -0.090 HD
ENDBRANCH  17  18
BRANCH  17  22
ATOM     22  C   UNL     1       4.740  -0.946   4.410  0.00  0.00    -0.012 C 
BRANCH  22  23
ATOM     23  C   UNL     1       6.047  -1.432   5.039  0.00  0.00    -0.019 C 
ATOM     24  C   UNL     1       6.777  -2.348   4.054  0.00  0.00    +0.007 C 
ATOM     25  C   UNL     1       6.933  -0.229   5.369  0.00  0.00    +0.007 C 
ENDBRANCH  22  23
ENDBRANCH  17  22
ENDBRANCH  16  17
ENDBRANCH  14  16
ENDBRANCH   1  14
TORSDOF 7
