REMARK  Name = ZINC67577398
REMARK  10 active torsions:
REMARK  status: ('A' for Active; 'I' for Inactive)
REMARK    1  A    between atoms: C_1  and  C_2
REMARK    2  A    between atoms: C_3  and  N_14
REMARK    3  A    between atoms: C_7  and  O_8
REMARK    4  A    between atoms: O_8  and  C_9
REMARK    5  A    between atoms: N_17  and  C_18
REMARK    6  A    between atoms: C_18  and  C_19
REMARK    7  A    between atoms: C_19  and  C_21
REMARK    8  A    between atoms: C_19  and  O_29
REMARK    9  A    between atoms: C_21  and  N_22
REMARK   10  A    between atoms: C_25  and  C_28
REMARK                            x       y       z     vdW  Elec       q    Type
REMARK                         _______ _______ _______ _____ _____    ______ ____
ROOT
ATOM      1  N   UNL     1      -0.008  -0.006  -2.375  0.00  0.00    -0.269 N 
ATOM      2  C   UNL     1       0.101  -0.600  -3.580  0.00  0.00    +0.304 C 
ATOM      3  O   UNL     1       0.308  -1.796  -3.651  0.00  0.00    -0.253 OA
ATOM      4  N   UNL     1      -0.019   0.132  -4.705  0.00  0.00    -0.297 N 
ATOM      5  H   UNL     1      -0.117   0.956  -2.316  0.00  0.00    +0.156 HD
ATOM      6  H   UNL     1      -0.184   1.086  -4.648  0.00  0.00    +0.150 HD
ENDROOT
BRANCH   1   9
ATOM      7  C   UNL     1      -1.296   1.004  -0.048  0.00  0.00    +0.049 C 
ATOM      8  C   UNL     1      -0.581  -0.322  -0.051  0.00  0.00    +0.012 A 
ATOM      9  C   UNL     1       0.035  -0.778  -1.208  0.00  0.00    +0.041 A 
ATOM     10  C   UNL     1       0.694  -2.001  -1.207  0.00  0.00    +0.024 A 
ATOM     11  C   UNL     1       0.736  -2.762  -0.055  0.00  0.00    +0.005 A 
ATOM     12  C   UNL     1       0.123  -2.311   1.098  0.00  0.00    +0.046 A 
ATOM     13  C   UNL     1      -0.531  -1.086   1.105  0.00  0.00    +0.126 A 
BRANCH  13  14
ATOM     14  O   UNL     1      -1.129  -0.640   2.241  0.00  0.00    -0.489 OA
BRANCH  14  15
ATOM     15  C   UNL     1      -0.944  -1.425   3.421  0.00  0.00    +0.173 C 
ATOM     16  C   UNL     1      -2.029  -2.518   3.503  0.00  0.00    +0.044 C 
ATOM     17  C   UNL     1      -2.361  -2.611   5.013  0.00  0.00    +0.004 C 
ATOM     18  C   UNL     1      -2.294  -1.133   5.470  0.00  0.00    +0.004 C 
ATOM     19  C   UNL     1      -1.113  -0.543   4.671  0.00  0.00    +0.044 C 
ENDBRANCH  14  15
ENDBRANCH  13  14
ENDBRANCH   1   9
BRANCH   4  20
ATOM     20  C   UNL     1       0.100  -0.514  -6.015  0.00  0.00    +0.135 C 
BRANCH  20  21
ATOM     21  C   UNL     1      -0.075   0.533  -7.117  0.00  0.00    +0.115 C 
BRANCH  21  22
ATOM     22  O   UNL     1      -1.364   1.137  -6.999  0.00  0.00    -0.392 OA
ATOM     23  H   UNL     1      -2.100   0.514  -7.078  0.00  0.00    +0.210 HD
ENDBRANCH  21  22
BRANCH  21  24
ATOM     24  C   UNL     1       0.049  -0.141  -8.485  0.00  0.00    -0.046 C 
BRANCH  24  25
ATOM     25  N   UNL     1       0.001   0.880  -9.540  0.00  0.00    +0.381 N 
ATOM     26  C   UNL     1       1.171   1.758  -9.423  0.00  0.00    -0.078 C 
ATOM     27  C   UNL     1       1.085   2.872 -10.469  0.00  0.00    -0.016 C 
ATOM     28  C   UNL     1       1.049   2.249 -11.867  0.00  0.00    -0.018 C 
ATOM     29  C   UNL     1      -0.132   1.279 -11.954  0.00  0.00    -0.016 C 
ATOM     30  C   UNL     1      -0.000   0.224 -10.853  0.00  0.00    -0.078 C 
ATOM     31  C   UNL     1       0.883   3.353 -12.914  0.00  0.00    +0.007 C 
ATOM     32  H   UNL     1      -0.840   1.428  -9.438  0.00  0.00    -0.082 HD
ENDBRANCH  24  25
ENDBRANCH  21  24
ENDBRANCH  20  21
ENDBRANCH   4  20
TORSDOF 8
