REMARK  Name = ZINC20573708
REMARK  8 active torsions:
REMARK  status: ('A' for Active; 'I' for Inactive)
REMARK    1  A    between atoms: C_1  and  O_2
REMARK    2  A    between atoms: O_2  and  C_3
REMARK    3  A    between atoms: C_6  and  C_9
REMARK    4  A    between atoms: C_9  and  C_10
REMARK    5  A    between atoms: C_10  and  C_11
REMARK    6  A    between atoms: N_13  and  C_14
REMARK    7  A    between atoms: C_14  and  C_15
REMARK    8  A    between atoms: C_15  and  C_16
REMARK                            x       y       z     vdW  Elec       q    Type
REMARK                         _______ _______ _______ _____ _____    ______ ____
ROOT
ATOM      1  C   UNL     1       8.771  -5.223  -7.186  0.00  0.00    +0.217 C 
ATOM      2  O   UNL     1       8.127  -5.497  -8.176  0.00  0.00    -0.276 OA
ATOM      3  N   UNL     1      10.085  -5.516  -7.134  0.00  0.00    -0.301 N 
ATOM      4  C   UNL     1      10.877  -5.196  -5.938  0.00  0.00    +0.110 C 
ATOM      5  C   UNL     1      12.094  -4.367  -6.362  0.00  0.00    +0.047 C 
ATOM      6  C   UNL     1      12.866  -5.118  -7.447  0.00  0.00    +0.064 C 
ATOM      7  C   UNL     1      11.972  -5.324  -8.670  0.00  0.00    +0.047 C 
ATOM      8  C   UNL     1      10.752  -6.168  -8.269  0.00  0.00    +0.110 C 
ATOM      9  C   UNL     1      14.089  -4.332  -7.837  0.00  0.00    +0.057 A 
ATOM     10  C   UNL     1      15.342  -4.644  -7.431  0.00  0.00    +0.039 A 
ATOM     11  N   UNL     1      16.180  -3.751  -7.956  0.00  0.00    -0.349 N 
ATOM     12  C   UNL     1      15.499  -2.893  -8.672  0.00  0.00    +0.171 A 
ATOM     13  N   UNL     1      14.188  -3.226  -8.620  0.00  0.00    -0.348 N 
ATOM     14  H   UNL     1      13.457  -2.762  -9.058  0.00  0.00    +0.166 HD
ATOM     15  C   UNL     1      15.647  -5.819  -6.535  0.00  0.00    +0.070 C 
ATOM     16  C   UNL     1      14.331  -6.277  -5.891  0.00  0.00    +0.088 C 
ATOM     17  N   UNL     1      13.299  -6.426  -6.927  0.00  0.00    -0.305 NA
ATOM     18  H   UNL     1      12.512  -6.955  -6.580  0.00  0.00    +0.123 HD
ATOM     19  H   UNL     1      17.142  -3.738  -7.828  0.00  0.00    +0.166 HD
ENDROOT
BRANCH   1  20
ATOM     20  C   UNL     1       8.101  -4.554  -6.013  0.00  0.00    +0.114 C 
BRANCH  20  21
ATOM     21  C   UNL     1       6.620  -4.335  -6.328  0.00  0.00    +0.113 C 
BRANCH  21  24
ATOM     22  C   UNL     1       4.655  -3.391  -5.239  0.00  0.00    +0.213 C 
ATOM     23  O   UNL     1       4.011  -3.666  -6.230  0.00  0.00    -0.276 OA
ATOM     24  N   UNL     1       5.970  -3.685  -5.188  0.00  0.00    -0.315 N 
ATOM     25  H   UNL     1       6.485  -3.466  -4.395  0.00  0.00    +0.149 HD
BRANCH  22  26
ATOM     26  C   UNL     1       3.986  -2.723  -4.066  0.00  0.00    +0.100 C 
BRANCH  26  27
ATOM     27  C   UNL     1       2.505  -2.503  -4.381  0.00  0.00    +0.044 C 
BRANCH  27  31
ATOM     28  C   UNL     1       0.606  -0.607  -1.056  0.00  0.00    +0.120 A 
ATOM     29  C   UNL     1       1.173   0.161  -2.062  0.00  0.00    +0.046 A 
ATOM     30  C   UNL     1       1.786  -0.455  -3.136  0.00  0.00    +0.007 A 
ATOM     31  C   UNL     1       1.835  -1.835  -3.209  0.00  0.00    -0.047 A 
ATOM     32  C   UNL     1       1.270  -2.602  -2.207  0.00  0.00    +0.007 A 
ATOM     33  C   UNL     1       0.661  -1.992  -1.128  0.00  0.00    +0.046 A 
BRANCH  28  35
ATOM     34  C   UNL     1      -0.017   1.425   0.010  0.00  0.00    +0.277 C 
ATOM     35  O   UNL     1       0.002  -0.004   0.002  0.00  0.00    -0.495 OA
ENDBRANCH  28  35
ENDBRANCH  27  31
ENDBRANCH  26  27
ENDBRANCH  22  26
ENDBRANCH  21  24
ENDBRANCH  20  21
ENDBRANCH   1  20
TORSDOF 7
