REMARK  Name = ZINC67433231
REMARK  10 active torsions:
REMARK  status: ('A' for Active; 'I' for Inactive)
REMARK    1  A    between atoms: C_1  and  C_2
REMARK    2  A    between atoms: C_2  and  C_3
REMARK    3  A    between atoms: C_2  and  C_4
REMARK    4  A    between atoms: C_7  and  C_10
REMARK    5  A    between atoms: C_10  and  N_11
REMARK    6  A    between atoms: C_15  and  C_18
REMARK    7  A    between atoms: C_15  and  O_28
REMARK    8  A    between atoms: C_18  and  N_19
REMARK    9  A    between atoms: N_19  and  C_20
REMARK   10  A    between atoms: C_20  and  C_21
REMARK                            x       y       z     vdW  Elec       q    Type
REMARK                         _______ _______ _______ _____ _____    ______ ____
ROOT
ATOM      1  N   UNL     1       3.717  -0.872  -5.158  0.00  0.00    -0.295 N 
ATOM      2  C   UNL     1       3.333   0.186  -6.084  0.00  0.00    +0.108 C 
ATOM      3  C   UNL     1       4.570   0.788  -6.752  0.00  0.00    +0.022 C 
ATOM      4  C   UNL     1       5.584   1.159  -5.664  0.00  0.00    +0.044 C 
ATOM      5  C   UNL     1       6.100  -0.131  -5.023  0.00  0.00    +0.127 C 
ATOM      6  C   UNL     1       4.943  -1.014  -4.652  0.00  0.00    +0.246 C 
ATOM      7  O   UNL     1       5.134  -1.907  -3.854  0.00  0.00    -0.273 OA
ENDROOT
BRANCH   5   8
ATOM      8  O   UNL     1       6.948  -0.815  -5.948  0.00  0.00    -0.381 OA
ATOM      9  H   UNL     1       7.312  -1.644  -5.609  0.00  0.00    +0.211 HD
ENDBRANCH   5   8
BRANCH   1  10
ATOM     10  C   UNL     1       2.691  -1.836  -4.754  0.00  0.00    +0.143 C 
BRANCH  10  14
ATOM     11  C   UNL     1       0.689  -0.406  -1.262  0.00  0.00    -0.045 A 
ATOM     12  C   UNL     1       0.213  -0.074  -2.516  0.00  0.00    +0.004 A 
ATOM     13  C   UNL     1       0.861  -0.537  -3.646  0.00  0.00    +0.005 A 
ATOM     14  C   UNL     1       1.985  -1.331  -3.522  0.00  0.00    -0.030 A 
ATOM     15  C   UNL     1       2.462  -1.663  -2.267  0.00  0.00    +0.005 A 
ATOM     16  C   UNL     1       1.817  -1.196  -1.137  0.00  0.00    +0.004 A 
BRANCH  11  18
ATOM     17  C   UNL     1      -0.024   1.628  -0.036  0.00  0.00    +0.012 C 
ATOM     18  C   UNL     1      -0.018   0.098  -0.030  0.00  0.00    +0.013 C 
ATOM     19  C   UNL     1      -1.458  -0.418  -0.021  0.00  0.00    +0.012 C 
ENDBRANCH  11  18
ENDBRANCH  10  14
ENDBRANCH   1  10
BRANCH   5  20
ATOM     20  C   UNL     1       6.897   0.211  -3.763  0.00  0.00    -0.037 C 
BRANCH  20  21
ATOM     21  N   UNL     1       8.024   1.084  -4.118  0.00  0.00    +0.384 N 
ATOM     22  H   UNL     1       8.576   0.643  -4.839  0.00  0.00    -0.085 HD
ATOM     23  H   UNL     1       7.672   1.967  -4.456  0.00  0.00    -0.085 HD
BRANCH  21  24
ATOM     24  C   UNL     1       8.861   1.311  -2.932  0.00  0.00    -0.041 C 
BRANCH  24  25
ATOM     25  C   UNL     1      10.017   2.207  -3.297  0.00  0.00    -0.000 A 
ATOM     26  C   UNL     1       9.936   3.553  -3.094  0.00  0.00    +0.008 A 
ATOM     27  C   UNL     1      11.025   4.364  -3.441  0.00  0.00    +0.018 A 
ATOM     28  C   UNL     1      12.140   3.809  -3.971  0.00  0.00    +0.086 A 
ATOM     29  N   UNL     1      12.218   2.469  -4.172  0.00  0.00    -0.329 N 
ATOM     30  C   UNL     1      11.191   1.662  -3.844  0.00  0.00    +0.250 A 
ATOM     31  O   UNL     1      11.278   0.458  -4.026  0.00  0.00    -0.268 OA
ATOM     32  H   UNL     1      13.024   2.087  -4.553  0.00  0.00    +0.168 HD
ENDBRANCH  24  25
ENDBRANCH  21  24
ENDBRANCH  20  21
ENDBRANCH   5  20
TORSDOF 8
