REMARK  Name = ZINC39969697
REMARK  10 active torsions:
REMARK  status: ('A' for Active; 'I' for Inactive)
REMARK    1  A    between atoms: C_1  and  C_2
REMARK    2  A    between atoms: C_2  and  N_3
REMARK    3  A    between atoms: C_4  and  C_24
REMARK    4  A    between atoms: C_8  and  S_10
REMARK    5  A    between atoms: S_10  and  C_11
REMARK    6  A    between atoms: C_11  and  C_12
REMARK    7  A    between atoms: C_24  and  C_25
REMARK    8  A    between atoms: N_27  and  C_28
REMARK    9  A    between atoms: C_31  and  C_35
REMARK   10  A    between atoms: C_33  and  C_34
REMARK                            x       y       z     vdW  Elec       q    Type
REMARK                         _______ _______ _______ _____ _____    ______ ____
ROOT
ATOM      1  N   UNL     1       0.692  -0.476  -1.179  0.00  0.00    -0.261 NA
ATOM      2  C   UNL     1       0.898  -1.939  -1.143  0.00  0.00    +0.149 C 
ATOM      3  N   UNL     1       0.205  -2.491  -2.329  0.00  0.00    -0.237 NA
ATOM      4  N   UNL     1       0.139  -1.365  -3.274  0.00  0.00    -0.229 NA
ATOM      5  C   UNL     1      -0.117  -0.199  -2.388  0.00  0.00    +0.200 C 
ATOM      6  H   UNL     1       0.721  -3.263  -2.723  0.00  0.00    +0.142 HD
ATOM      7  H   UNL     1       1.010  -1.257  -3.770  0.00  0.00    +0.143 HD
ENDROOT
BRANCH   1   9
ATOM      8  C   UNL     1      -0.016   1.518   0.054  0.00  0.00    +0.020 C 
ATOM      9  C   UNL     1       0.004  -0.012   0.033  0.00  0.00    +0.085 C 
ENDBRANCH   1   9
BRANCH   5  10
ATOM     10  S   UNL     1       0.435   1.336  -3.183  0.00  0.00    -0.117 S 
BRANCH  10  11
ATOM     11  C   UNL     1       2.172   1.015  -3.597  0.00  0.00    +0.146 C 
BRANCH  11  12
ATOM     12  C   UNL     1       2.760   2.227  -4.272  0.00  0.00    +0.120 A 
ATOM     13  N   UNL     1       4.059   2.179  -4.666  0.00  0.00    -0.310 N 
ATOM     14  H   UNL     1       4.580   1.376  -4.508  0.00  0.00    +0.170 HD
ATOM     15  C   UNL     1       4.633   3.241  -5.277  0.00  0.00    +0.259 A 
ATOM     16  O   UNL     1       5.796   3.212  -5.636  0.00  0.00    -0.267 OA
ATOM     17  C   UNL     1       3.798   4.432  -5.492  0.00  0.00    +0.065 A 
ATOM     18  C   UNL     1       4.293   5.578  -6.111  0.00  0.00    +0.015 A 
ATOM     19  C   UNL     1       3.466   6.666  -6.286  0.00  0.00    +0.001 A 
ATOM     20  C   UNL     1       2.148   6.628  -5.851  0.00  0.00    +0.002 A 
ATOM     21  C   UNL     1       1.639   5.506  -5.237  0.00  0.00    +0.028 A 
ATOM     22  C   UNL     1       2.458   4.390  -5.048  0.00  0.00    +0.078 A 
ATOM     23  N   UNL     1       1.997   3.262  -4.453  0.00  0.00    -0.233 NA
ENDBRANCH  11  12
ENDBRANCH  10  11
ENDBRANCH   5  10
BRANCH   2  24
ATOM     24  C   UNL     1       2.392  -2.260  -1.211  0.00  0.00    +0.132 C 
BRANCH  24  25
ATOM     25  C   UNL     1       2.587  -3.754  -1.173  0.00  0.00    +0.220 C 
ATOM     26  O   UNL     1       1.625  -4.489  -1.100  0.00  0.00    -0.275 OA
ATOM     27  N   UNL     1       3.830  -4.273  -1.222  0.00  0.00    -0.285 N 
ATOM     28  H   UNL     1       4.593  -3.691  -1.361  0.00  0.00    +0.155 HD
BRANCH  27  29
ATOM     29  C   UNL     1       4.019  -5.651  -1.071  0.00  0.00    +0.036 A 
ATOM     30  C   UNL     1       3.082  -6.411  -0.384  0.00  0.00    +0.024 A 
ATOM     31  C   UNL     1       3.271  -7.771  -0.237  0.00  0.00    +0.005 A 
ATOM     32  C   UNL     1       4.393  -8.376  -0.773  0.00  0.00    -0.050 A 
ATOM     33  C   UNL     1       5.329  -7.622  -1.457  0.00  0.00    +0.008 A 
ATOM     34  C   UNL     1       5.142  -6.263  -1.613  0.00  0.00    -0.029 A 
ATOM     35  C   UNL     1       6.158  -5.443  -2.365  0.00  0.00    +0.045 C 
ATOM     36  C   UNL     1       4.597  -9.861  -0.610  0.00  0.00    +0.044 C 
ENDBRANCH  27  29
ENDBRANCH  24  25
ENDBRANCH   2  24
TORSDOF 7
