REMARK  Name = ZINC59170634
REMARK  10 active torsions:
REMARK  status: ('A' for Active; 'I' for Inactive)
REMARK    1  A    between atoms: C_1  and  C_2
REMARK    2  A    between atoms: C_2  and  C_3
REMARK    3  A    between atoms: C_6  and  N_9
REMARK    4  A    between atoms: C_10  and  C_12
REMARK    5  A    between atoms: C_18  and  O_34
REMARK    6  A    between atoms: N_22  and  N_23
REMARK    7  A    between atoms: N_23  and  S_24
REMARK    8  A    between atoms: S_24  and  C_27
REMARK    9  A    between atoms: C_30  and  C_33
REMARK   10  A    between atoms: O_34  and  C_35
REMARK                            x       y       z     vdW  Elec       q    Type
REMARK                         _______ _______ _______ _____ _____    ______ ____
ROOT
ATOM      1  C   UNL     1       4.669  -1.965  -6.226  0.00  0.00    +0.099 A 
ATOM      2  C   UNL     1       6.017  -2.217  -6.135  0.00  0.00    +0.030 A 
ATOM      3  C   UNL     1       6.613  -3.104  -7.141  0.00  0.00    +0.022 A 
ATOM      4  C   UNL     1       7.902  -3.619  -6.965  0.00  0.00    +0.012 A 
ATOM      5  C   UNL     1       8.442  -4.452  -7.921  0.00  0.00    +0.004 A 
ATOM      6  C   UNL     1       7.717  -4.782  -9.055  0.00  0.00    +0.049 A 
ATOM      7  C   UNL     1       6.440  -4.279  -9.244  0.00  0.00    +0.163 A 
ATOM      8  C   UNL     1       5.879  -3.437  -8.291  0.00  0.00    +0.179 A 
ATOM      9  O   UNL     1       4.631  -2.930  -8.466  0.00  0.00    -0.434 OA
ATOM     10  C   UNL     1       3.932  -2.617  -7.333  0.00  0.00    +0.225 A 
ATOM     11  N   UNL     1       2.659  -2.879  -7.231  0.00  0.00    -0.260 N 
ATOM     12  H   UNL     1       2.209  -2.773  -6.378  0.00  0.00    +0.189 HD
ENDROOT
BRANCH   1  14
ATOM     13  N   UNL     1       4.638  -0.658  -4.163  0.00  0.00    -0.281 N 
ATOM     14  C   UNL     1       3.985  -1.089  -5.260  0.00  0.00    +0.253 C 
ATOM     15  O   UNL     1       2.832  -0.755  -5.453  0.00  0.00    -0.270 OA
ATOM     16  H   UNL     1       5.585  -0.838  -4.059  0.00  0.00    +0.155 HD
BRANCH  13  20
ATOM     17  C   UNL     1       2.586   1.451  -1.214  0.00  0.00    -0.048 A 
ATOM     18  C   UNL     1       3.704   0.708  -0.880  0.00  0.00    +0.005 A 
ATOM     19  C   UNL     1       4.386   0.008  -1.855  0.00  0.00    +0.023 A 
ATOM     20  C   UNL     1       3.949   0.050  -3.173  0.00  0.00    +0.034 A 
ATOM     21  C   UNL     1       2.826   0.797  -3.505  0.00  0.00    +0.023 A 
ATOM     22  C   UNL     1       2.145   1.491  -2.524  0.00  0.00    +0.005 A 
BRANCH  17  24
ATOM     23  C   UNL     1       0.761   1.321   0.459  0.00  0.00    +0.009 C 
ATOM     24  C   UNL     1       1.844   2.215  -0.148  0.00  0.00    +0.032 C 
ENDBRANCH  17  24
ENDBRANCH  13  20
ENDBRANCH   1  14
BRANCH  11  25
ATOM     25  N   UNL     1       1.941  -3.312  -8.353  0.00  0.00    -0.157 N 
ATOM     26  H   UNL     1       2.405  -3.496  -9.185  0.00  0.00    +0.194 HD
BRANCH  25  27
ATOM     27  S   UNL     1       0.299  -3.509  -8.260  0.00  0.00    +0.085 S 
ATOM     28  O   UNL     1      -0.170  -3.646  -9.594  0.00  0.00    -0.149 OA
ATOM     29  O   UNL     1       0.065  -4.496  -7.265  0.00  0.00    -0.149 OA
BRANCH  27  30
ATOM     30  C   UNL     1      -0.372  -2.002  -7.642  0.00  0.00    +0.110 A 
ATOM     31  C   UNL     1      -0.494  -1.806  -6.279  0.00  0.00    +0.029 A 
ATOM     32  C   UNL     1      -1.021  -0.624  -5.795  0.00  0.00    +0.005 A 
ATOM     33  C   UNL     1      -1.426   0.363  -6.673  0.00  0.00    -0.050 A 
ATOM     34  C   UNL     1      -1.304   0.168  -8.037  0.00  0.00    +0.005 A 
ATOM     35  C   UNL     1      -0.773  -1.013  -8.521  0.00  0.00    +0.029 A 
ATOM     36  C   UNL     1      -2.002   1.652  -6.145  0.00  0.00    +0.044 C 
ENDBRANCH  27  30
ENDBRANCH  25  27
ENDBRANCH  11  25
BRANCH   7  37
ATOM     37  O   UNL     1       5.736  -4.609 -10.360  0.00  0.00    -0.491 OA
ATOM     38  C   UNL     1       6.375  -5.479 -11.297  0.00  0.00    +0.277 C 
ENDBRANCH   7  37
TORSDOF 7
