REMARK  Name = ZINC55211198
REMARK  7 active torsions:
REMARK  status: ('A' for Active; 'I' for Inactive)
REMARK    1  A    between atoms: C_1  and  C_2
REMARK    2  A    between atoms: C_6  and  C_23
REMARK    3  A    between atoms: C_9  and  C_12
REMARK    4  A    between atoms: N_14  and  C_15
REMARK    5  A    between atoms: C_15  and  C_16
REMARK    6  A    between atoms: C_16  and  C_17
REMARK    7  A    between atoms: C_17  and  C_18
REMARK                            x       y       z     vdW  Elec       q    Type
REMARK                         _______ _______ _______ _____ _____    ______ ____
ROOT
ATOM      1  C   UNL     1      -0.019   1.526   0.010  0.00  0.00    +0.011 C 
ATOM      2  C   UNL     1       0.002  -0.004   0.002  0.00  0.00    -0.030 C 
ATOM      3  C   UNL     1       0.718  -0.497  -1.257  0.00  0.00    +0.010 C 
ATOM      4  C   UNL     1       0.739  -2.027  -1.265  0.00  0.00    -0.009 C 
ATOM      5  C   UNL     1       1.479  -2.534  -0.026  0.00  0.00    +0.010 C 
ATOM      6  C   UNL     1       0.763  -2.041   1.233  0.00  0.00    -0.030 C 
ATOM      7  C   UNL     1       0.742  -0.511   1.242  0.00  0.00    +0.013 C 
ATOM      8  C   UNL     1      -0.673  -2.570   1.244  0.00  0.00    +0.023 C 
ATOM      9  C   UNL     1      -1.413  -2.063   0.004  0.00  0.00    +0.048 C 
ATOM     10  C   UNL     1      -0.696  -2.557  -1.254  0.00  0.00    +0.019 C 
ATOM     11  C   UNL     1      -1.433  -0.534   0.013  0.00  0.00    +0.023 C 
ATOM     12  C   UNL     1       1.503  -2.548   2.473  0.00  0.00    +0.011 C 
ENDROOT
BRANCH   9  13
ATOM     13  C   UNL     1      -2.826  -2.585   0.015  0.00  0.00    +0.219 C 
ATOM     14  O   UNL     1      -3.205  -3.293   0.925  0.00  0.00    -0.275 OA
ATOM     15  N   UNL     1      -3.670  -2.265  -0.986  0.00  0.00    -0.315 N 
ATOM     16  H   UNL     1      -3.368  -1.700  -1.713  0.00  0.00    +0.149 HD
BRANCH  15  17
ATOM     17  C   UNL     1      -5.045  -2.772  -0.976  0.00  0.00    +0.104 C 
BRANCH  17  18
ATOM     18  C   UNL     1      -5.785  -2.266  -2.215  0.00  0.00    +0.026 C 
BRANCH  18  19
ATOM     19  C   UNL     1      -7.220  -2.795  -2.204  0.00  0.00    +0.081 C 
BRANCH  19  20
ATOM     20  C   UNL     1      -7.949  -2.296  -3.425  0.00  0.00    +0.177 A 
ATOM     21  N   UNL     1      -8.640  -1.170  -3.527  0.00  0.00    -0.111 NA
ATOM     22  N   UNL     1      -9.107  -1.107  -4.727  0.00  0.00    -0.021 NA
ATOM     23  N   UNL     1      -8.733  -2.153  -5.378  0.00  0.00    -0.021 NA
ATOM     24  N   UNL     1      -8.017  -2.896  -4.605  0.00  0.00    -0.111 NA
ENDBRANCH  19  20
ENDBRANCH  18  19
ENDBRANCH  17  18
ENDBRANCH  15  17
ENDBRANCH   9  13
TORSDOF 5
