REMARK  Name = ZINC20465583
REMARK  11 active torsions:
REMARK  status: ('A' for Active; 'I' for Inactive)
REMARK    1  A    between atoms: C_1  and  O_2
REMARK    2  A    between atoms: O_2  and  C_3
REMARK    3  A    between atoms: C_8  and  N_9
REMARK    4  A    between atoms: N_12  and  C_15
REMARK    5  A    between atoms: C_17  and  C_27
REMARK    6  A    between atoms: C_20  and  C_25
REMARK    7  A    between atoms: C_22  and  O_24
REMARK    8  A    between atoms: C_25  and  O_26
REMARK    9  A    between atoms: C_27  and  N_28
REMARK   10  A    between atoms: N_28  and  C_29
REMARK   11  A    between atoms: C_29  and  C_30
REMARK                            x       y       z     vdW  Elec       q    Type
REMARK                         _______ _______ _______ _____ _____    ______ ____
ROOT
ATOM      1  C   UNL     1      -1.389  -0.453  -0.193  0.00  0.00    +0.115 C 
ATOM      2  C   UNL     1      -1.586  -1.488  -1.323  0.00  0.00    +0.122 C 
ATOM      3  O   UNL     1      -0.613  -1.128  -2.327  0.00  0.00    -0.369 OA
ATOM      4  C   UNL     1       0.579  -0.774  -1.592  0.00  0.00    +0.174 C 
ATOM      5  C   UNL     1       0.068   0.028  -0.374  0.00  0.00    +0.165 C 
ENDROOT
BRANCH   1   9
ATOM      6  N   UNL     1      -3.043   3.401  -0.701  0.00  0.00    -0.325 N 
ATOM      7  C   UNL     1      -3.238   2.733   0.593  0.00  0.00    +0.120 C 
ATOM      8  C   UNL     1      -2.195   1.625   0.755  0.00  0.00    +0.104 C 
ATOM      9  N   UNL     1      -2.325   0.668  -0.353  0.00  0.00    -0.292 NA
ATOM     10  C   UNL     1      -2.130   1.335  -1.648  0.00  0.00    +0.104 C 
ATOM     11  C   UNL     1      -3.174   2.444  -1.809  0.00  0.00    +0.120 C 
BRANCH   6  17
ATOM     12  C   UNL     1      -3.450   5.762  -1.037  0.00  0.00    +0.141 A 
ATOM     13  C   UNL     1      -4.337   6.815  -1.187  0.00  0.00    +0.047 A 
ATOM     14  C   UNL     1      -5.700   6.582  -1.156  0.00  0.00    +0.004 A 
ATOM     15  C   UNL     1      -6.181   5.299  -0.975  0.00  0.00    +0.002 A 
ATOM     16  C   UNL     1      -5.303   4.242  -0.829  0.00  0.00    +0.027 A 
ATOM     17  C   UNL     1      -3.935   4.469  -0.854  0.00  0.00    +0.072 A 
BRANCH  12  19
ATOM     18  C   UNL     1      -1.686   7.341  -1.259  0.00  0.00    +0.277 C 
ATOM     19  O   UNL     1      -2.110   5.990  -1.068  0.00  0.00    -0.493 OA
ENDBRANCH  12  19
ENDBRANCH   6  17
ENDBRANCH   1   9
BRANCH   5  20
ATOM     20  O   UNL     1       0.102   1.430  -0.647  0.00  0.00    -0.388 OA
ATOM     21  H   UNL     1       1.066   1.936  -0.803  0.00  0.00    +0.210 HD
ENDBRANCH   5  20
BRANCH   4  22
ATOM     22  C   UNL     1       1.500   0.094  -2.452  0.00  0.00    +0.190 C 
BRANCH  22  23
ATOM     23  O   UNL     1       2.053  -0.697  -3.506  0.00  0.00    -0.392 OA
ATOM     24  H   UNL     1       2.744  -0.242  -4.231  0.00  0.00    +0.210 HD
ENDBRANCH  22  23
ENDBRANCH   4  22
BRANCH   2  25
ATOM     25  C   UNL     1      -3.002  -1.390  -1.894  0.00  0.00    -0.049 C 
BRANCH  25  26
ATOM     26  N   UNL     1      -3.100  -2.215  -3.106  0.00  0.00    +0.383 N 
ATOM     27  H   UNL     1      -2.377  -1.857  -3.853  0.00  0.00    -0.085 HD
ATOM     28  H   UNL     1      -2.877  -3.263  -2.854  0.00  0.00    -0.085 HD
BRANCH  26  29
ATOM     29  C   UNL     1      -4.449  -2.145  -3.683  0.00  0.00    -0.047 C 
BRANCH  29  30
ATOM     30  C   UNL     1      -4.510  -3.003  -4.921  0.00  0.00    -0.063 A 
ATOM     31  C   UNL     1      -4.872  -4.333  -4.823  0.00  0.00    +0.002 A 
ATOM     32  C   UNL     1      -4.929  -5.120  -5.958  0.00  0.00    +0.002 A 
ATOM     33  C   UNL     1      -4.623  -4.577  -7.192  0.00  0.00    +0.020 A 
ATOM     34  C   UNL     1      -4.261  -3.246  -7.291  0.00  0.00    +0.041 A 
ATOM     35  C   UNL     1      -4.210  -2.457  -6.155  0.00  0.00    +0.021 A 
ATOM     36 CL   UNL     1      -3.877  -2.563  -8.840  0.00  0.00    -0.084 Cl
ENDBRANCH  29  30
ENDBRANCH  26  29
ENDBRANCH  25  26
ENDBRANCH   2  25
TORSDOF 10
