REMARK  Name = ZINC31579197
REMARK  5 active torsions:
REMARK  status: ('A' for Active; 'I' for Inactive)
REMARK    1  A    between atoms: C_6  and  N_7
REMARK    2  A    between atoms: C_8  and  C_10
REMARK    3  A    between atoms: C_10  and  N_11
REMARK    4  A    between atoms: N_14  and  S_17
REMARK    5  A    between atoms: S_17  and  C_20
REMARK                            x       y       z     vdW  Elec       q    Type
REMARK                         _______ _______ _______ _____ _____    ______ ____
ROOT
ATOM      1  N   UNL     1       2.390   1.020   0.344  0.00  0.00    +0.387 N 
ATOM      2  C   UNL     1       2.348   0.406   1.678  0.00  0.00    -0.061 C 
ATOM      3  C   UNL     1       3.410  -0.695   1.764  0.00  0.00    +0.091 C 
ATOM      4  N   UNL     1       4.710  -0.121   1.384  0.00  0.00    -0.180 NA
ATOM      5  C   UNL     1       4.798   0.629   0.122  0.00  0.00    +0.091 C 
ATOM      6  C   UNL     1       3.681   1.678   0.101  0.00  0.00    -0.061 C 
ATOM      7  H   UNL     1       2.280   0.216  -0.399  0.00  0.00    -0.081 HD
ENDROOT
BRANCH   4   8
ATOM      8  S   UNL     1       6.039  -0.314   2.353  0.00  0.00    +0.067 S 
ATOM      9  O   UNL     1       5.808  -1.479   3.133  0.00  0.00    -0.152 OA
ATOM     10  O   UNL     1       7.177  -0.172   1.514  0.00  0.00    -0.152 OA
BRANCH   8  11
ATOM     11  C   UNL     1       6.068   1.045   3.474  0.00  0.00    +0.144 A 
ATOM     12  C   UNL     1       5.504   1.151   4.702  0.00  0.00    +0.037 A 
ATOM     13  C   UNL     1       5.658   2.327   5.412  0.00  0.00    +0.025 A 
ATOM     14  C   UNL     1       6.371   3.340   4.859  0.00  0.00    +0.057 A 
ATOM     15  S   UNL     1       6.856   2.636   3.291  0.00  0.00    -0.062 S 
ATOM     16 BR   UNL     1       6.757   5.050   5.567  0.00  0.00    -0.043 Br
ENDBRANCH   8  11
ENDBRANCH   4   8
BRANCH   1  17
ATOM     17  C   UNL     1       1.277   1.961   0.161  0.00  0.00    +0.019 C 
BRANCH  17  19
ATOM     18  N   UNL     1      -1.191   1.867   0.018  0.00  0.00    -0.287 N 
ATOM     19  C   UNL     1      -0.027   1.205   0.175  0.00  0.00    +0.201 C 
ATOM     20  O   UNL     1      -0.028   0.001   0.322  0.00  0.00    -0.278 OA
ATOM     21  H   UNL     1      -1.197   2.966  -0.029  0.00  0.00    +0.155 HD
BRANCH  18  27
ATOM     22  C   UNL     1      -2.412  -0.088  -0.704  0.00  0.00    +0.026 A 
ATOM     23  C   UNL     1      -3.597  -0.792  -0.800  0.00  0.00    +0.041 A 
ATOM     24  C   UNL     1      -4.766  -0.254  -0.293  0.00  0.00    +0.142 A 
ATOM     25  C   UNL     1      -4.750   0.990   0.320  0.00  0.00    +0.078 A 
ATOM     26  C   UNL     1      -3.566   1.694   0.424  0.00  0.00    +0.046 A 
ATOM     27  C   UNL     1      -2.392   1.155  -0.086  0.00  0.00    +0.035 A 
ATOM     28 CL   UNL     1      -6.218   1.663   0.956  0.00  0.00    -0.081 Cl
ATOM     29  F   UNL     1      -5.925  -0.941  -0.393  0.00  0.00    -0.204 F 
ENDBRANCH  18  27
ENDBRANCH  17  19
ENDBRANCH   1  17
TORSDOF 5
