REMARK  Name = ZINC12210185
REMARK  6 active torsions:
REMARK  status: ('A' for Active; 'I' for Inactive)
REMARK    1  A    between atoms: C_1  and  C_2
REMARK    2  A    between atoms: C_4  and  N_23
REMARK    3  A    between atoms: C_6  and  C_22
REMARK    4  A    between atoms: C_7  and  S_8
REMARK    5  A    between atoms: S_8  and  N_11
REMARK    6  A    between atoms: C_19  and  C_21
REMARK                            x       y       z     vdW  Elec       q    Type
REMARK                         _______ _______ _______ _____ _____    ______ ____
ROOT
ATOM      1  C   UNL     1      -6.590  -1.240  -2.322  0.00  0.00    +0.046 C 
ATOM      2  C   UNL     1      -5.288  -0.570  -2.678  0.00  0.00    -0.022 A 
ATOM      3  C   UNL     1      -4.213  -0.652  -1.815  0.00  0.00    +0.030 A 
ATOM      4  C   UNL     1      -3.013  -0.033  -2.144  0.00  0.00    +0.051 A 
ATOM      5  C   UNL     1      -2.901   0.670  -3.336  0.00  0.00    +0.030 A 
ATOM      6  C   UNL     1      -3.979   0.744  -4.196  0.00  0.00    -0.022 A 
ATOM      7  C   UNL     1      -5.172   0.127  -3.866  0.00  0.00    +0.115 A 
ATOM      8  C   UNL     1      -3.858   1.502  -5.493  0.00  0.00    +0.046 C 
ENDROOT
BRANCH   4   9
ATOM      9  N   UNL     1      -1.923  -0.114  -1.274  0.00  0.00    -0.207 N 
ATOM     10  C   UNL     1      -2.117  -0.339   0.166  0.00  0.00    +0.131 C 
ATOM     11  C   UNL     1      -1.357  -1.594   0.592  0.00  0.00    +0.022 C 
ATOM     12  C   UNL     1       0.148  -1.399   0.420  0.00  0.00    +0.026 C 
ATOM     13  C   UNL     1       0.497  -1.368  -1.073  0.00  0.00    +0.189 C 
ATOM     14  S   UNL     1      -0.364   0.042  -1.835  0.00  0.00    +0.045 S 
ATOM     15  O   UNL     1       0.106   1.265  -1.284  0.00  0.00    -0.155 OA
ATOM     16  O   UNL     1      -0.458  -0.136  -3.241  0.00  0.00    -0.155 OA
ENDBRANCH   4   9
BRANCH   7  17
ATOM     17  S   UNL     1      -6.547   0.229  -4.964  0.00  0.00    +0.075 S 
ATOM     18  O   UNL     1      -6.019   0.182  -6.282  0.00  0.00    -0.150 OA
ATOM     19  O   UNL     1      -7.510  -0.706  -4.496  0.00  0.00    -0.150 OA
BRANCH  17  20
ATOM     20  N   UNL     1      -7.215   1.732  -4.774  0.00  0.00    -0.200 N 
ATOM     21  C   UNL     1      -8.226   2.049  -3.867  0.00  0.00    +0.055 A 
ATOM     22  C   UNL     1      -8.883   1.225  -2.950  0.00  0.00    +0.025 A 
ATOM     23  C   UNL     1      -9.867   1.740  -2.133  0.00  0.00    +0.002 A 
ATOM     24  C   UNL     1     -10.210   3.077  -2.214  0.00  0.00    +0.000 A 
ATOM     25  C   UNL     1      -9.559   3.901  -3.113  0.00  0.00    +0.005 A 
ATOM     26  C   UNL     1      -8.576   3.389  -3.938  0.00  0.00    -0.023 A 
ATOM     27  C   UNL     1      -7.730   4.050  -5.002  0.00  0.00    +0.061 C 
ATOM     28  C   UNL     1      -6.834   2.922  -5.540  0.00  0.00    +0.099 C 
ATOM     29  C   UNL     1      -7.097   2.701  -7.031  0.00  0.00    +0.030 C 
ENDBRANCH  17  20
ENDBRANCH   7  17
TORSDOF 3
