REMARK  Name = ZINC37675660
REMARK  5 active torsions:
REMARK  status: ('A' for Active; 'I' for Inactive)
REMARK    1  A    between atoms: C_1  and  C_2
REMARK    2  A    between atoms: C_3  and  C_18
REMARK    3  A    between atoms: C_4  and  N_7
REMARK    4  A    between atoms: C_8  and  C_10
REMARK    5  A    between atoms: N_14  and  C_15
REMARK                            x       y       z     vdW  Elec       q    Type
REMARK                         _______ _______ _______ _____ _____    ______ ____
ROOT
ATOM      1  N   UNL     1       0.004  -3.094  -2.002  0.00  0.00    -0.273 N 
ATOM      2  C   UNL     1       0.031  -4.394  -1.645  0.00  0.00    +0.265 C 
ATOM      3  O   UNL     1       0.130  -4.700  -0.471  0.00  0.00    -0.268 OA
ATOM      4  H   UNL     1       0.002  -2.849  -2.940  0.00  0.00    +0.156 HD
ENDROOT
BRANCH   2   5
ATOM      5  C   UNL     1      -0.058  -5.436  -2.669  0.00  0.00    +0.107 A 
ATOM      6  C   UNL     1      -0.077  -5.239  -4.035  0.00  0.00    +0.054 A 
ATOM      7  C   UNL     1      -0.170  -6.499  -4.632  0.00  0.00    +0.078 A 
ATOM      8  C   UNL     1      -0.205  -7.428  -3.642  0.00  0.00    +0.128 A 
ATOM      9  N   UNL     1      -0.132  -6.794  -2.445  0.00  0.00    -0.329 N 
ATOM     10  C   UNL     1      -0.136  -7.445  -1.132  0.00  0.00    +0.150 C 
ATOM     11 CL   UNL     1      -0.318  -9.145  -3.872  0.00  0.00    -0.062 Cl
ATOM     12 CL   UNL     1      -0.229  -6.821  -6.337  0.00  0.00    -0.080 Cl
ENDBRANCH   2   5
BRANCH   1  16
ATOM     13  C   UNL     1      -0.107   1.503   0.010  0.00  0.00    +0.067 C 
ATOM     14  C   UNL     1      -0.073  -0.003   0.002  0.00  0.00    +0.063 A 
ATOM     15  C   UNL     1      -0.053  -0.722  -1.196  0.00  0.00    +0.114 A 
ATOM     16  C   UNL     1      -0.022  -2.111  -1.031  0.00  0.00    +0.106 A 
ATOM     17  S   UNL     1      -0.025  -2.288   0.638  0.00  0.00    +0.028 S 
ATOM     18  N   UNL     1      -0.057  -0.685   1.111  0.00  0.00    -0.213 NA
BRANCH  15  19
ATOM     19  C   UNL     1      -0.063  -0.078  -2.509  0.00  0.00    +0.391 C 
ATOM     20  O   UNL     1      -0.090   1.144  -2.592  0.00  0.00    -0.240 OA
ATOM     21  O   UNL     1      -0.044  -0.760  -3.526  0.00  0.00    -0.240 OA
ENDBRANCH  15  19
ENDBRANCH   1  16
TORSDOF 3
