REMARK  Name = ZINC23349135
REMARK  9 active torsions:
REMARK  status: ('A' for Active; 'I' for Inactive)
REMARK    1  A    between atoms: C_1  and  C_2
REMARK    2  A    between atoms: C_2  and  C_4
REMARK    3  A    between atoms: C_2  and  S_20
REMARK    4  A    between atoms: N_6  and  C_7
REMARK    5  A    between atoms: C_12  and  C_13
REMARK    6  A    between atoms: C_13  and  C_14
REMARK    7  A    between atoms: S_20  and  C_21
REMARK    8  A    between atoms: N_31  and  C_32
REMARK    9  A    between atoms: C_32  and  C_33
REMARK                            x       y       z     vdW  Elec       q    Type
REMARK                         _______ _______ _______ _____ _____    ______ ____
ROOT
ATOM      1  C   UNL     1      -0.742   2.695  -5.105  0.00  0.00    +0.029 C 
ATOM      2  C   UNL     1      -1.219   3.824  -4.189  0.00  0.00    +0.137 C 
ENDROOT
BRANCH   2   3
ATOM      3  C   UNL     1      -0.452   5.083  -4.502  0.00  0.00    +0.230 C 
ATOM      4  O   UNL     1       0.535   5.368  -3.857  0.00  0.00    -0.274 OA
ATOM      5  N   UNL     1      -0.862   5.892  -5.498  0.00  0.00    -0.284 N 
ATOM      6  H   UNL     1      -1.712   5.598  -6.131  0.00  0.00    +0.155 HD
BRANCH   5   7
ATOM      7  C   UNL     1      -0.207   7.107  -5.728  0.00  0.00    +0.037 A 
ATOM      8  C   UNL     1       1.163   7.208  -5.524  0.00  0.00    +0.023 A 
ATOM      9  C   UNL     1       1.808   8.407  -5.756  0.00  0.00    +0.002 A 
ATOM     10  C   UNL     1       1.090   9.509  -6.183  0.00  0.00    +0.000 A 
ATOM     11  C   UNL     1      -0.275   9.413  -6.381  0.00  0.00    +0.006 A 
ATOM     12  C   UNL     1      -0.925   8.216  -6.155  0.00  0.00    -0.022 A 
BRANCH  12  13
ATOM     13  C   UNL     1      -2.413   8.112  -6.372  0.00  0.00    +0.072 C 
BRANCH  13  14
ATOM     14  C   UNL     1      -3.128   8.334  -5.064  0.00  0.00    -0.043 A 
ATOM     15  C   UNL     1      -3.412   7.260  -4.241  0.00  0.00    +0.004 A 
ATOM     16  C   UNL     1      -4.064   7.464  -3.039  0.00  0.00    +0.000 A 
ATOM     17  C   UNL     1      -4.440   8.740  -2.664  0.00  0.00    +0.000 A 
ATOM     18  C   UNL     1      -4.160   9.813  -3.490  0.00  0.00    +0.000 A 
ATOM     19  C   UNL     1      -3.505   9.610  -4.690  0.00  0.00    +0.004 A 
ENDBRANCH  13  14
ENDBRANCH  12  13
ENDBRANCH   5   7
ENDBRANCH   2   3
BRANCH   2  20
ATOM     20  S   UNL     1      -0.939   3.360  -2.463  0.00  0.00    -0.075 S 
BRANCH  20  21
ATOM     21  C   UNL     1      -2.039   1.990  -2.332  0.00  0.00    +0.173 A 
ATOM     22  N   UNL     1      -2.733   1.643  -3.388  0.00  0.00    -0.223 NA
ATOM     23  C   UNL     1      -3.597   0.609  -3.357  0.00  0.00    +0.079 A 
ATOM     24  C   UNL     1      -4.342   0.242  -4.482  0.00  0.00    +0.028 A 
ATOM     25  C   UNL     1      -5.207  -0.813  -4.406  0.00  0.00    +0.002 A 
ATOM     26  C   UNL     1      -5.359  -1.529  -3.225  0.00  0.00    +0.001 A 
ATOM     27  C   UNL     1      -4.644  -1.195  -2.108  0.00  0.00    +0.015 A 
ATOM     28  C   UNL     1      -3.754  -0.123  -2.158  0.00  0.00    +0.065 A 
ATOM     29  C   UNL     1      -2.960   0.281  -0.989  0.00  0.00    +0.263 A 
ATOM     30  O   UNL     1      -3.052  -0.309   0.071  0.00  0.00    -0.267 OA
ATOM     31  N   UNL     1      -2.124   1.335  -1.136  0.00  0.00    -0.283 N 
BRANCH  31  32
ATOM     32  C   UNL     1      -1.310   1.781  -0.003  0.00  0.00    +0.154 C 
BRANCH  32  33
ATOM     33  C   UNL     1       0.010   1.053  -0.015  0.00  0.00    -0.013 C 
ATOM     34  C   UNL     1       1.131   1.730  -0.018  0.00  0.00    +0.005 C 
ENDBRANCH  32  33
ENDBRANCH  31  32
ENDBRANCH  20  21
ENDBRANCH   2  20
TORSDOF 8
