REMARK  Name = ZINC08926499
REMARK  7 active torsions:
REMARK  status: ('A' for Active; 'I' for Inactive)
REMARK    1  A    between atoms: C_1  and  O_2
REMARK    2  A    between atoms: O_2  and  C_3
REMARK    3  A    between atoms: C_6  and  C_9
REMARK    4  A    between atoms: C_12  and  C_33
REMARK    5  A    between atoms: C_17  and  C_19
REMARK    6  A    between atoms: N_21  and  C_22
REMARK    7  A    between atoms: C_25  and  N_29
REMARK                            x       y       z     vdW  Elec       q    Type
REMARK                         _______ _______ _______ _____ _____    ______ ____
ROOT
ATOM      1  C   UNL     1      -5.029  -2.651   0.027  0.00  0.00    +0.104 C 
ATOM      2  C   UNL     1      -5.370  -3.124  -1.390  0.00  0.00    +0.063 C 
ATOM      3  C   UNL     1      -4.247  -4.018  -1.927  0.00  0.00    +0.215 C 
ATOM      4  N   UNL     1      -3.938  -5.044  -0.926  0.00  0.00    -0.238 N 
ATOM      5  C   UNL     1      -4.277  -4.941   0.393  0.00  0.00    +0.119 A 
ATOM      6  C   UNL     1      -3.848  -6.052   1.024  0.00  0.00    +0.078 A 
ATOM      7  C   UNL     1      -3.219  -6.874   0.062  0.00  0.00    +0.149 A 
ATOM      8  N   UNL     1      -3.277  -6.258  -1.106  0.00  0.00    -0.164 NA
ATOM      9  N   UNL     1      -4.953  -3.829   0.914  0.00  0.00    -0.322 N 
ATOM     10  H   UNL     1      -5.348  -3.832   1.799  0.00  0.00    +0.148 HD
ENDROOT
BRANCH   1  14
ATOM     11  C   UNL     1      -1.263  -0.630  -0.000  0.00  0.00    +0.120 A 
ATOM     12  C   UNL     1      -2.443   0.099   0.008  0.00  0.00    +0.046 A 
ATOM     13  C   UNL     1      -3.659  -0.556   0.017  0.00  0.00    +0.009 A 
ATOM     14  C   UNL     1      -3.701  -1.938   0.017  0.00  0.00    -0.027 A 
ATOM     15  C   UNL     1      -2.526  -2.668   0.009  0.00  0.00    +0.009 A 
ATOM     16  C   UNL     1      -1.308  -2.017  -0.005  0.00  0.00    +0.046 A 
BRANCH  11  18
ATOM     17  C   UNL     1      -0.096   1.441  -0.003  0.00  0.00    +0.277 C 
ATOM     18  O   UNL     1      -0.066   0.012  -0.009  0.00  0.00    -0.495 OA
ENDBRANCH  11  18
ENDBRANCH   1  14
BRANCH   7  19
ATOM     19  C   UNL     1      -2.601  -8.191   0.317  0.00  0.00    +0.268 C 
ATOM     20  O   UNL     1      -2.608  -8.658   1.440  0.00  0.00    -0.268 OA
ATOM     21  N   UNL     1      -2.031  -8.876  -0.694  0.00  0.00    -0.279 N 
ATOM     22  H   UNL     1      -2.083  -8.534  -1.601  0.00  0.00    +0.155 HD
BRANCH  21  23
ATOM     23  C   UNL     1      -1.364 -10.078  -0.437  0.00  0.00    +0.052 A 
ATOM     24  C   UNL     1      -1.827 -10.932   0.556  0.00  0.00    +0.027 A 
ATOM     25  C   UNL     1      -1.167 -12.118   0.808  0.00  0.00    +0.034 A 
ATOM     26  C   UNL     1      -0.045 -12.457   0.073  0.00  0.00    +0.128 A 
ATOM     27  C   UNL     1       0.419 -11.610  -0.916  0.00  0.00    +0.054 A 
ATOM     28  C   UNL     1      -0.241 -10.424  -1.178  0.00  0.00    +0.064 A 
ATOM     29 CL   UNL     1       0.338  -9.365  -2.425  0.00  0.00    -0.082 Cl
BRANCH  26  30
ATOM     30  N   UNL     1       0.660 -13.730   0.347  0.00  0.00    +0.056 N 
ATOM     31  O   UNL     1       0.255 -14.471   1.212  0.00  0.00    -0.126 OA
ATOM     32  O   UNL     1       1.640 -14.027  -0.295  0.00  0.00    -0.126 OA
ENDBRANCH  26  30
ENDBRANCH  21  23
ENDBRANCH   7  19
BRANCH   3  33
ATOM     33  C   UNL     1      -4.700  -4.687  -3.226  0.00  0.00    +0.412 C 
ATOM     34  F   UNL     1      -5.005  -3.704  -4.174  0.00  0.00    -0.168 F 
ATOM     35  F   UNL     1      -3.673  -5.502  -3.714  0.00  0.00    -0.168 F 
ATOM     36  F   UNL     1      -5.836  -5.465  -2.979  0.00  0.00    -0.168 F 
ENDBRANCH   3  33
TORSDOF 6
