REMARK  Name = ZINC39695812
REMARK  8 active torsions:
REMARK  status: ('A' for Active; 'I' for Inactive)
REMARK    1  A    between atoms: C_1  and  C_2
REMARK    2  A    between atoms: C_9  and  C_11
REMARK    3  A    between atoms: C_11  and  C_13
REMARK    4  A    between atoms: C_11  and  N_14
REMARK    5  A    between atoms: C_15  and  C_17
REMARK    6  A    between atoms: C_28  and  C_30
REMARK    7  A    between atoms: C_33  and  C_37
REMARK    8  A    between atoms: C_34  and  C_36
REMARK                            x       y       z     vdW  Elec       q    Type
REMARK                         _______ _______ _______ _____ _____    ______ ____
ROOT
ATOM      1  C   UNL     1       1.254  -8.856   1.284  0.00  0.00    +0.100 C 
ATOM      2  C   UNL     1       0.401  -9.570   0.211  0.00  0.00    +0.121 C 
ATOM      3  N   UNL     1       0.950 -10.945   0.150  0.00  0.00    -0.296 N 
ATOM      4  C   UNL     1       1.240 -11.289   1.562  0.00  0.00    +0.115 C 
ATOM      5  C   UNL     1       1.802  -9.988   2.169  0.00  0.00    -0.004 C 
ATOM      6  C   UNL     1       1.311  -9.821   3.604  0.00  0.00    -0.010 C 
ATOM      7  C   UNL     1       1.916 -10.924   4.478  0.00  0.00    -0.082 C 
ATOM      8  N   UNL     1       3.381 -10.842   4.427  0.00  0.00    +0.379 N 
ATOM      9  C   UNL     1       3.850 -11.096   3.060  0.00  0.00    -0.082 C 
ATOM     10  C   UNL     1       3.327 -10.001   2.127  0.00  0.00    -0.010 C 
ATOM     11  C   UNL     1       1.142 -11.710  -0.943  0.00  0.00    +0.247 C 
ATOM     12  O   UNL     1       0.975 -11.239  -2.051  0.00  0.00    -0.270 OA
ATOM     13  H   UNL     1       3.675  -9.921   4.717  0.00  0.00    -0.086 HD
ATOM     14  H   UNL     1       3.776 -11.530   5.051  0.00  0.00    -0.086 HD
ENDROOT
BRANCH  11  15
ATOM     15  C   UNL     1       1.556 -13.121  -0.794  0.00  0.00    +0.037 A 
ATOM     16  C   UNL     1       1.341 -13.791   0.411  0.00  0.00    +0.013 A 
ATOM     17  C   UNL     1       1.729 -15.108   0.544  0.00  0.00    +0.004 A 
ATOM     18  C   UNL     1       2.332 -15.765  -0.514  0.00  0.00    -0.047 A 
ATOM     19  C   UNL     1       2.549 -15.107  -1.712  0.00  0.00    -0.047 A 
ATOM     20  C   UNL     1       2.160 -13.791  -1.859  0.00  0.00    +0.016 A 
ATOM     21  C   UNL     1       3.206 -15.829  -2.859  0.00  0.00    +0.044 C 
ATOM     22  C   UNL     1       2.755 -17.203  -0.362  0.00  0.00    +0.044 C 
ENDBRANCH  11  15
BRANCH   1  24
ATOM     23  N   UNL     1       0.936  -6.806   2.631  0.00  0.00    -0.305 N 
ATOM     24  C   UNL     1       0.397  -7.921   2.098  0.00  0.00    +0.219 C 
ATOM     25  O   UNL     1      -0.776  -8.171   2.273  0.00  0.00    -0.275 OA
ATOM     26  H   UNL     1       1.874  -6.606   2.491  0.00  0.00    +0.149 HD
BRANCH  23  27
ATOM     27  C   UNL     1       0.103  -5.897   3.422  0.00  0.00    +0.136 C 
ATOM     28  C   UNL     1      -0.620  -4.924   2.488  0.00  0.00    +0.036 C 
BRANCH  27  37
ATOM     29  C   UNL     1       3.291  -1.961   8.875  0.00  0.00    +0.044 C 
ATOM     30  C   UNL     1       3.079  -2.736   7.600  0.00  0.00    -0.048 A 
ATOM     31  C   UNL     1       4.143  -2.939   6.732  0.00  0.00    +0.005 A 
ATOM     32  C   UNL     1       3.972  -3.639   5.572  0.00  0.00    +0.030 A 
ATOM     33  C   UNL     1       2.716  -4.159   5.251  0.00  0.00    +0.089 A 
ATOM     34  C   UNL     1       1.638  -3.955   6.130  0.00  0.00    +0.067 A 
ATOM     35  C   UNL     1       1.832  -3.245   7.307  0.00  0.00    +0.031 A 
ATOM     36  N   UNL     1       0.550  -4.576   5.550  0.00  0.00    -0.340 N 
ATOM     37  C   UNL     1       0.974  -5.122   4.378  0.00  0.00    +0.128 A 
ATOM     38  N   UNL     1       2.240  -4.879   4.203  0.00  0.00    -0.231 NA
ATOM     39  H   UNL     1      -0.349  -4.616   5.911  0.00  0.00    +0.167 HD
ENDBRANCH  27  37
ENDBRANCH  23  27
ENDBRANCH   1  24
TORSDOF 4
