REMARK  Name = ZINC03117465
REMARK  10 active torsions:
REMARK  status: ('A' for Active; 'I' for Inactive)
REMARK    1  A    between atoms: C_1  and  C_2
REMARK    2  A    between atoms: C_2  and  O_3
REMARK    3  A    between atoms: O_3  and  C_4
REMARK    4  A    between atoms: C_4  and  C_6
REMARK    5  A    between atoms: C_7  and  N_34
REMARK    6  A    between atoms: C_12  and  C_13
REMARK    7  A    between atoms: C_16  and  O_19
REMARK    8  A    between atoms: C_22  and  C_32
REMARK    9  A    between atoms: C_23  and  C_25
REMARK   10  A    between atoms: C_28  and  O_31
REMARK                            x       y       z     vdW  Elec       q    Type
REMARK                         _______ _______ _______ _____ _____    ______ ____
ROOT
ATOM      1  C   UNL     1       5.588   7.899   0.641  0.00  0.00    +0.087 C 
ATOM      2  C   UNL     1       4.329   7.647   0.211  0.00  0.00    +0.115 C 
ATOM      3  N   UNL     1       3.845   6.365  -0.061  0.00  0.00    -0.257 N 
ATOM      4  C   UNL     1       2.591   6.125  -0.494  0.00  0.00    +0.271 A 
ATOM      5  O   UNL     1       1.808   7.040  -0.671  0.00  0.00    -0.266 OA
ATOM      6  C   UNL     1       2.191   4.737  -0.743  0.00  0.00    +0.080 A 
ATOM      7  C   UNL     1       1.000   4.246  -1.173  0.00  0.00    +0.028 C 
ATOM      8  S   UNL     1       3.695   3.865  -0.336  0.00  0.00    -0.065 S 
ATOM      9  C   UNL     1       4.682   5.279   0.111  0.00  0.00    +0.104 A 
ATOM     10  C   UNL     1       5.968   5.363   0.535  0.00  0.00    +0.072 C 
ATOM     11  C   UNL     1       6.536   6.734   0.843  0.00  0.00    +0.102 C 
ENDROOT
BRANCH   7  12
ATOM     12  C   UNL     1       0.769   2.796  -1.198  0.00  0.00    -0.024 A 
ATOM     13  C   UNL     1       1.627   1.936  -0.503  0.00  0.00    +0.011 A 
ATOM     14  C   UNL     1       1.406   0.577  -0.530  0.00  0.00    +0.046 A 
ATOM     15  C   UNL     1       0.332   0.060  -1.245  0.00  0.00    +0.117 A 
ATOM     16  C   UNL     1      -0.524   0.909  -1.936  0.00  0.00    +0.046 A 
ATOM     17  C   UNL     1      -0.311   2.269  -1.917  0.00  0.00    +0.011 A 
BRANCH  15  18
ATOM     18  O   UNL     1       0.118  -1.281  -1.268  0.00  0.00    -0.507 OA
ATOM     19  H   UNL     1      -0.455  -1.601  -0.557  0.00  0.00    +0.292 HD
ENDBRANCH  15  18
ENDBRANCH   7  12
BRANCH  11  20
ATOM     20  C   UNL     1       6.992   6.740   2.279  0.00  0.00    -0.034 A 
ATOM     21  C   UNL     1       6.065   6.626   3.298  0.00  0.00    +0.008 A 
ATOM     22  C   UNL     1       6.481   6.626   4.615  0.00  0.00    +0.046 A 
ATOM     23  C   UNL     1       7.829   6.751   4.916  0.00  0.00    +0.117 A 
ATOM     24  C   UNL     1       8.757   6.870   3.892  0.00  0.00    +0.046 A 
ATOM     25  C   UNL     1       8.337   6.865   2.576  0.00  0.00    +0.008 A 
BRANCH  23  26
ATOM     26  O   UNL     1       8.240   6.755   6.211  0.00  0.00    -0.507 OA
ATOM     27  H   UNL     1       8.273   7.636   6.610  0.00  0.00    +0.292 HD
ENDBRANCH  23  26
ENDBRANCH  11  20
BRANCH   2  28
ATOM     28  N   UNL     1       3.482   8.710   0.034  0.00  0.00    -0.344 N 
ATOM     29  H   UNL     1       2.556   8.644   0.316  0.00  0.00    +0.144 HD
ATOM     30  H   UNL     1       3.808   9.528  -0.373  0.00  0.00    +0.144 HD
ENDBRANCH   2  28
BRANCH   1  31
ATOM     31  C   UNL     1       6.007   9.214   0.895  0.00  0.00    +0.339 C 
ATOM     32  O   UNL     1       5.207  10.130   0.838  0.00  0.00    -0.245 OA
BRANCH  31  33
ATOM     33  O   UNL     1       7.298   9.464   1.203  0.00  0.00    -0.462 OA
BRANCH  33  35
ATOM     34  C   UNL     1       9.147  10.910   1.780  0.00  0.00    +0.048 C 
ATOM     35  C   UNL     1       7.655  10.825   1.450  0.00  0.00    +0.229 C 
ENDBRANCH  33  35
ENDBRANCH  31  33
ENDBRANCH   1  31
BRANCH  10  36
ATOM     36  C   UNL     1       6.769   4.186   0.688  0.00  0.00    +0.098 C 
ATOM     37  N   UNL     1       7.404   3.252   0.809  0.00  0.00    -0.191 NA
ENDBRANCH  10  36
TORSDOF 9
