REMARK  Name = ZINC14275538
REMARK  14 active torsions:
REMARK  status: ('A' for Active; 'I' for Inactive)
REMARK    1  A    between atoms: C_1  and  C_2
REMARK    2  A    between atoms: C_2  and  C_3
REMARK    3  A    between atoms: C_2  and  C_4
REMARK    4  A    between atoms: C_11  and  C_13
REMARK    5  A    between atoms: C_16  and  O_35
REMARK    6  A    between atoms: C_17  and  N_19
REMARK    7  A    between atoms: N_19  and  C_20
REMARK    8  A    between atoms: C_20  and  N_22
REMARK    9  A    between atoms: C_23  and  C_25
REMARK   10  A    between atoms: C_28  and  O_33
REMARK   11  A    between atoms: C_29  and  O_31
REMARK   12  A    between atoms: O_31  and  C_32
REMARK   13  A    between atoms: O_33  and  C_34
REMARK   14  A    between atoms: O_35  and  C_36
REMARK                            x       y       z     vdW  Elec       q    Type
REMARK                         _______ _______ _______ _____ _____    ______ ____
ROOT
ATOM      1  C   UNL     1      -8.580   5.785   0.289  0.00  0.00    +0.039 A 
ATOM      2  C   UNL     1      -9.741   5.016   0.392  0.00  0.00    +0.017 A 
ATOM      3  C   UNL     1      -9.659   3.639   0.389  0.00  0.00    +0.048 A 
ATOM      4  C   UNL     1      -8.426   3.014   0.280  0.00  0.00    +0.141 A 
ATOM      5  C   UNL     1      -7.261   3.776   0.182  0.00  0.00    +0.076 A 
ATOM      6  C   UNL     1      -7.337   5.158   0.184  0.00  0.00    +0.040 A 
ENDROOT
BRANCH   1  14
ATOM      7  C   UNL     1      -9.626  11.664   0.361  0.00  0.00    -0.043 A 
ATOM      8  C   UNL     1      -8.247  11.752   0.242  0.00  0.00    +0.007 A 
ATOM      9  C   UNL     1      -7.476  10.610   0.179  0.00  0.00    +0.049 A 
ATOM     10  C   UNL     1      -8.081   9.364   0.235  0.00  0.00    +0.156 A 
ATOM     11  C   UNL     1      -9.476   9.270   0.355  0.00  0.00    +0.110 A 
ATOM     12  C   UNL     1     -10.244  10.436   0.418  0.00  0.00    +0.035 A 
ATOM     13  N   UNL     1      -9.778   7.946   0.385  0.00  0.00    -0.209 NA
ATOM     14  C   UNL     1      -8.667   7.260   0.292  0.00  0.00    +0.228 A 
ATOM     15  O   UNL     1      -7.614   8.095   0.204  0.00  0.00    -0.435 OA
BRANCH   7  17
ATOM     16  C   UNL     1     -10.025  13.749   1.643  0.00  0.00    +0.012 C 
ATOM     17  C   UNL     1     -10.453  12.922   0.429  0.00  0.00    +0.013 C 
ATOM     18  C   UNL     1     -10.241  13.742  -0.846  0.00  0.00    +0.012 C 
ENDBRANCH   7  17
ENDBRANCH   1  14
BRANCH   5  19
ATOM     19  N   UNL     1      -6.016   3.143   0.076  0.00  0.00    -0.294 N 
ATOM     20  H   UNL     1      -5.895   2.413  -0.552  0.00  0.00    +0.154 HD
BRANCH  19  21
ATOM     21  C   UNL     1      -4.987   3.546   0.848  0.00  0.00    +0.141 C 
ATOM     22  S   UNL     1      -5.168   4.903   1.876  0.00  0.00    -0.018 S 
BRANCH  21  23
ATOM     23  N   UNL     1      -3.815   2.882   0.809  0.00  0.00    -0.264 N 
ATOM     24  C   UNL     1      -2.786   3.285   1.580  0.00  0.00    +0.250 C 
ATOM     25  O   UNL     1      -2.915   4.248   2.311  0.00  0.00    -0.270 OA
ATOM     26  H   UNL     1      -3.712   2.113   0.226  0.00  0.00    +0.157 HD
BRANCH  24  27
ATOM     27  C   UNL     1      -1.503   2.558   1.538  0.00  0.00    +0.041 A 
ATOM     28  C   UNL     1      -1.351   1.454   0.695  0.00  0.00    +0.017 A 
ATOM     29  C   UNL     1      -0.155   0.772   0.661  0.00  0.00    +0.050 A 
ATOM     30  C   UNL     1       0.907   1.186   1.455  0.00  0.00    +0.162 A 
ATOM     31  C   UNL     1       0.764   2.290   2.294  0.00  0.00    +0.162 A 
ATOM     32  C   UNL     1      -0.435   2.975   2.337  0.00  0.00    +0.062 A 
BRANCH  31  33
ATOM     33  O   UNL     1       1.805   2.693   3.071  0.00  0.00    -0.491 OA
ATOM     34  C   UNL     1       1.589   3.832   3.906  0.00  0.00    +0.277 C 
ENDBRANCH  31  33
BRANCH  30  35
ATOM     35  O   UNL     1       2.086   0.515   1.413  0.00  0.00    -0.491 OA
ATOM     36  C   UNL     1       2.163  -0.607   0.531  0.00  0.00    +0.277 C 
ENDBRANCH  30  35
ENDBRANCH  24  27
ENDBRANCH  21  23
ENDBRANCH  19  21
ENDBRANCH   5  19
BRANCH   4  37
ATOM     37  O   UNL     1      -8.351   1.658   0.272  0.00  0.00    -0.493 OA
ATOM     38  C   UNL     1      -9.582   0.940   0.375  0.00  0.00    +0.277 C 
ENDBRANCH   4  37
TORSDOF 9
