REMARK  Name = ZINC04809629
REMARK  6 active torsions:
REMARK  status: ('A' for Active; 'I' for Inactive)
REMARK    1  A    between atoms: C_15  and  C_17
REMARK    2  A    between atoms: C_20  and  N_26
REMARK    3  A    between atoms: C_21  and  N_23
REMARK    4  A    between atoms: N_26  and  C_27
REMARK    5  A    between atoms: C_27  and  C_28
REMARK    6  A    between atoms: C_28  and  N_29
REMARK                            x       y       z     vdW  Elec       q    Type
REMARK                         _______ _______ _______ _____ _____    ______ ____
ROOT
ATOM      1  C   UNL     1       0.084  -4.117  -0.203  0.00  0.00    +0.040 A 
ATOM      2  C   UNL     1       1.186  -4.976  -0.117  0.00  0.00    +0.015 A 
ATOM      3  C   UNL     1       1.001  -6.328  -0.158  0.00  0.00    +0.026 A 
ATOM      4  C   UNL     1      -0.284  -6.854  -0.284  0.00  0.00    +0.058 A 
ATOM      5  C   UNL     1      -1.383  -6.002  -0.370  0.00  0.00    +0.148 A 
ATOM      6  C   UNL     1      -1.205  -4.649  -0.324  0.00  0.00    +0.047 A 
ENDROOT
BRANCH   1  21
ATOM      7  C   UNL     1       2.122   0.613  -1.548  0.00  0.00    +0.002 A 
ATOM      8  C   UNL     1       3.118   1.269  -0.817  0.00  0.00    +0.001 A 
ATOM      9  C   UNL     1       3.503   0.813   0.409  0.00  0.00    +0.017 A 
ATOM     10  C   UNL     1       2.886  -0.325   0.930  0.00  0.00    +0.035 A 
ATOM     11  C   UNL     1       1.835  -1.026   0.172  0.00  0.00    +0.055 A 
ATOM     12  C   UNL     1       1.491  -0.499  -1.083  0.00  0.00    +0.025 A 
ATOM     13  N   UNL     1       1.220  -2.128   0.647  0.00  0.00    -0.234 N 
ATOM     14  C   UNL     1       1.411  -2.775   1.815  0.00  0.00    +0.055 A 
ATOM     15  C   UNL     1       0.661  -3.920   2.130  0.00  0.00    +0.025 A 
ATOM     16  C   UNL     1       0.867  -4.562   3.312  0.00  0.00    +0.002 A 
ATOM     17  C   UNL     1       1.810  -4.123   4.247  0.00  0.00    +0.001 A 
ATOM     18  C   UNL     1       2.573  -3.019   4.008  0.00  0.00    +0.017 A 
ATOM     19  C   UNL     1       2.401  -2.326   2.809  0.00  0.00    +0.035 A 
ATOM     20  S   UNL     1       3.287  -0.962   2.423  0.00  0.00    -0.086 S 
ATOM     21  C   UNL     1       0.280  -2.658  -0.160  0.00  0.00    +0.255 C 
ATOM     22  O   UNL     1      -0.406  -1.932  -0.852  0.00  0.00    -0.269 OA
ENDBRANCH   1  21
BRANCH   5  23
ATOM     23  N   UNL     1      -2.745  -6.565  -0.505  0.00  0.00    +0.058 N 
ATOM     24  O   UNL     1      -2.947  -7.627  -1.258  0.00  0.00    -0.126 OA
ATOM     25  O   UNL     1      -3.755  -6.004   0.127  0.00  0.00    -0.126 OA
ENDBRANCH   5  23
BRANCH   4  26
ATOM     26  N   UNL     1      -0.468  -8.230  -0.325  0.00  0.00    -0.344 N 
ATOM     27  H   UNL     1      -1.355  -8.596  -0.465  0.00  0.00    +0.146 HD
BRANCH  26  28
ATOM     28  C   UNL     1       0.677  -9.128  -0.157  0.00  0.00    +0.082 C 
BRANCH  28  29
ATOM     29  C   UNL     1       0.203 -10.580  -0.243  0.00  0.00    -0.068 C 
BRANCH  29  30
ATOM     30  N   UNL     1       1.351 -11.481  -0.074  0.00  0.00    +0.379 N 
ATOM     31  H   UNL     1       2.027 -11.304  -0.802  0.00  0.00    -0.090 HD
ATOM     32  H   UNL     1       1.776 -11.319   0.826  0.00  0.00    -0.090 HD
ATOM     33  H   UNL     1       1.039 -12.438  -0.131  0.00  0.00    -0.090 HD
ENDBRANCH  29  30
ENDBRANCH  28  29
ENDBRANCH  26  28
ENDBRANCH   4  26
TORSDOF 6
