REMARK  Name = ZINC20812611
REMARK  9 active torsions:
REMARK  status: ('A' for Active; 'I' for Inactive)
REMARK    1  A    between atoms: C_1  and  C_2
REMARK    2  A    between atoms: C_2  and  C_3
REMARK    3  A    between atoms: C_8  and  N_9
REMARK    4  A    between atoms: C_10  and  C_12
REMARK    5  A    between atoms: C_12  and  N_13
REMARK    6  A    between atoms: N_16  and  C_19
REMARK    7  A    between atoms: C_19  and  C_21
REMARK    8  A    between atoms: C_19  and  C_22
REMARK    9  A    between atoms: N_27  and  C_28
REMARK                            x       y       z     vdW  Elec       q    Type
REMARK                         _______ _______ _______ _____ _____    ______ ____
ROOT
ATOM      1  N   UNL     1       3.318   1.327  -0.084  0.00  0.00    +0.387 N 
ATOM      2  C   UNL     1       3.157   0.336   0.990  0.00  0.00    -0.063 C 
ATOM      3  C   UNL     1       4.217  -0.757   0.835  0.00  0.00    +0.066 C 
ATOM      4  N   UNL     1       5.554  -0.148   0.879  0.00  0.00    -0.295 NA
ATOM      5  C   UNL     1       5.715   0.842  -0.195  0.00  0.00    +0.066 C 
ATOM      6  C   UNL     1       4.655   1.935  -0.040  0.00  0.00    -0.063 C 
ATOM      7  H   UNL     1       3.214   0.804  -1.046  0.00  0.00    -0.081 HD
ENDROOT
BRANCH   4   8
ATOM      8  C   UNL     1       6.602  -1.175   0.809  0.00  0.00    +0.140 C 
ATOM      9  C   UNL     1       6.455  -2.136   1.991  0.00  0.00    +0.034 C 
BRANCH   8  10
ATOM     10  C   UNL     1       6.468  -1.943  -0.481  0.00  0.00    +0.237 C 
ATOM     11  O   UNL     1       5.584  -1.665  -1.263  0.00  0.00    -0.274 OA
ATOM     12  N   UNL     1       7.332  -2.938  -0.766  0.00  0.00    -0.239 N 
ATOM     13  C   UNL     1       7.212  -3.624  -1.920  0.00  0.00    +0.306 C 
ATOM     14  O   UNL     1       6.326  -3.345  -2.703  0.00  0.00    -0.252 OA
ATOM     15  N   UNL     1       8.075  -4.619  -2.204  0.00  0.00    -0.302 N 
ATOM     16  C   UNL     1       7.945  -5.365  -3.459  0.00  0.00    +0.129 C 
ATOM     17  H   UNL     1       8.133  -3.190  -0.057  0.00  0.00    +0.159 HD
ATOM     18  H   UNL     1       8.877  -4.871  -1.495  0.00  0.00    +0.150 HD
ENDBRANCH   8  10
ENDBRANCH   4   8
BRANCH   1  19
ATOM     19  C   UNL     1       2.269   2.353  -0.014  0.00  0.00    +0.019 C 
BRANCH  19  21
ATOM     20  N   UNL     1      -0.184   2.484  -0.304  0.00  0.00    -0.287 N 
ATOM     21  C   UNL     1       0.931   1.726  -0.307  0.00  0.00    +0.201 C 
ATOM     22  O   UNL     1       0.857   0.540  -0.550  0.00  0.00    -0.278 OA
ATOM     23  H   UNL     1      -0.129   3.542  -0.008  0.00  0.00    +0.155 HD
BRANCH  20  29
ATOM     24  C   UNL     1      -2.585   2.363  -0.082  0.00  0.00    -0.026 A 
ATOM     25  C   UNL     1      -3.795   1.809  -0.454  0.00  0.00    +0.005 A 
ATOM     26  C   UNL     1      -3.837   0.820  -1.419  0.00  0.00    +0.000 A 
ATOM     27  C   UNL     1      -2.668   0.381  -2.015  0.00  0.00    +0.002 A 
ATOM     28  C   UNL     1      -1.456   0.934  -1.651  0.00  0.00    +0.023 A 
ATOM     29  C   UNL     1      -1.411   1.925  -0.678  0.00  0.00    +0.036 A 
BRANCH  24  31
ATOM     30  C   UNL     1      -2.546   4.814   0.293  0.00  0.00    +0.009 C 
ATOM     31  C   UNL     1      -2.541   3.442   0.969  0.00  0.00    +0.033 C 
ENDBRANCH  24  31
ENDBRANCH  20  29
ENDBRANCH  19  21
ENDBRANCH   1  19
TORSDOF 6
