REMARK  Name = ZINC26496661
REMARK  7 active torsions:
REMARK  status: ('A' for Active; 'I' for Inactive)
REMARK    1  A    between atoms: C_3  and  C_9
REMARK    2  A    between atoms: C_9  and  C_10
REMARK    3  A    between atoms: C_16  and  C_18
REMARK    4  A    between atoms: C_18  and  S_19
REMARK    5  A    between atoms: S_19  and  C_20
REMARK    6  A    between atoms: C_23  and  C_29
REMARK    7  A    between atoms: C_25  and  N_26
REMARK                            x       y       z     vdW  Elec       q    Type
REMARK                         _______ _______ _______ _____ _____    ______ ____
ROOT
ATOM      1  C   UNL     1      -2.885   1.266   1.438  0.00  0.00    +0.015 A 
ATOM      2  C   UNL     1      -3.624   1.946   2.349  0.00  0.00    +0.124 A 
ATOM      3  N   UNL     1      -3.805   1.408   3.539  0.00  0.00    -0.233 NA
ATOM      4  C   UNL     1      -3.283   0.236   3.846  0.00  0.00    +0.165 A 
ATOM      5  S   UNL     1      -2.465  -0.196   2.376  0.00  0.00    -0.057 S 
ATOM      6  N   UNL     1      -3.371  -0.473   5.038  0.00  0.00    -0.264 N 
ATOM      7  C   UNL     1      -4.066   0.035   6.075  0.00  0.00    +0.229 C 
ATOM      8  O   UNL     1      -4.615   1.111   5.968  0.00  0.00    -0.275 OA
ATOM      9  H   UNL     1      -2.873  -1.449   5.135  0.00  0.00    +0.157 HD
ENDROOT
BRANCH   1  10
ATOM     10  C   UNL     1      -2.524   1.637   0.023  0.00  0.00    +0.080 C 
BRANCH  10  13
ATOM     11  C   UNL     1      -0.059   4.497   0.027  0.00  0.00    +0.002 A 
ATOM     12  C   UNL     1      -1.247   3.789   0.034  0.00  0.00    +0.005 A 
ATOM     13  C   UNL     1      -1.229   2.408   0.021  0.00  0.00    -0.023 A 
ATOM     14  C   UNL     1      -0.021   1.732   0.012  0.00  0.00    +0.063 A 
ATOM     15  C   UNL     1       1.168   2.441   0.004  0.00  0.00    +0.060 A 
ATOM     16  C   UNL     1       1.148   3.824   0.012  0.00  0.00    +0.021 A 
ATOM     17 CL   UNL     1       2.683   1.594  -0.015  0.00  0.00    -0.082 Cl
ATOM     18 CL   UNL     1       0.002  -0.004   0.002  0.00  0.00    -0.082 Cl
ENDBRANCH  10  13
ENDBRANCH   1  10
BRANCH   7  19
ATOM     19  C   UNL     1      -4.161  -0.735   7.367  0.00  0.00    +0.170 C 
BRANCH  19  20
ATOM     20  S   UNL     1      -5.155   0.204   8.559  0.00  0.00    -0.114 S 
BRANCH  20  21
ATOM     21  C   UNL     1      -5.171  -0.814   9.997  0.00  0.00    +0.039 A 
ATOM     22  C   UNL     1      -4.499  -2.034   9.992  0.00  0.00    +0.018 A 
ATOM     23  C   UNL     1      -4.508  -2.827  11.104  0.00  0.00    +0.014 A 
ATOM     24  C   UNL     1      -5.194  -2.416  12.252  0.00  0.00    +0.039 A 
ATOM     25  C   UNL     1      -5.870  -1.192  12.259  0.00  0.00    +0.047 A 
ATOM     26  C   UNL     1      -5.852  -0.395  11.137  0.00  0.00    +0.140 A 
BRANCH  24  27
ATOM     27  C   UNL     1      -5.205  -3.273  13.452  0.00  0.00    +0.242 C 
ATOM     28  O   UNL     1      -5.801  -2.915  14.449  0.00  0.00    -0.270 OA
ATOM     29  N   UNL     1      -4.553  -4.453  13.444  0.00  0.00    -0.325 N 
ATOM     30  H   UNL     1      -4.561  -5.092  14.339  0.00  0.00    +0.145 HD
ATOM     31  H   UNL     1      -4.013  -4.777  12.541  0.00  0.00    +0.145 HD
ENDBRANCH  24  27
BRANCH  26  32
ATOM     32  N   UNL     1      -6.561   0.905  11.142  0.00  0.00    +0.058 N 
ATOM     33  O   UNL     1      -7.157   1.271  12.139  0.00  0.00    -0.126 OA
ATOM     34  O   UNL     1      -6.550   1.608  10.147  0.00  0.00    -0.126 OA
ENDBRANCH  26  32
ENDBRANCH  20  21
ENDBRANCH  19  20
ENDBRANCH   7  19
TORSDOF 7
