REMARK  Name = ZINC33928148
REMARK  9 active torsions:
REMARK  status: ('A' for Active; 'I' for Inactive)
REMARK    1  A    between atoms: C_5  and  C_7
REMARK    2  A    between atoms: C_9  and  C_27
REMARK    3  A    between atoms: C_11  and  C_22
REMARK    4  A    between atoms: C_11  and  O_26
REMARK    5  A    between atoms: C_13  and  S_17
REMARK    6  A    between atoms: C_14  and  C_15
REMARK    7  A    between atoms: S_17  and  C_18
REMARK    8  A    between atoms: C_18  and  C_19
REMARK    9  A    between atoms: C_27  and  C_29
REMARK                            x       y       z     vdW  Elec       q    Type
REMARK                         _______ _______ _______ _____ _____    ______ ____
ROOT
ATOM      1  C   UNL     1       1.505  -1.637  -1.170  0.00  0.00    +0.078 C 
ATOM      2  C   UNL     1       0.401  -2.697  -1.203  0.00  0.00    +0.132 C 
ATOM      3  C   UNL     1       0.534  -3.586   0.041  0.00  0.00    +0.239 C 
ATOM      4  N   UNL     1       0.343  -2.737   1.225  0.00  0.00    -0.303 N 
ATOM      5  C   UNL     1       0.974  -1.516   1.278  0.00  0.00    +0.078 C 
ATOM      6  C   UNL     1       1.527  -0.959   0.171  0.00  0.00    +0.065 C 
ATOM      7  H   UNL     1      -0.219  -3.032   1.958  0.00  0.00    +0.150 HD
ENDROOT
BRANCH   1  12
ATOM      8  C   UNL     1       0.024   1.282  -3.051  0.00  0.00    +0.000 A 
ATOM      9  C   UNL     1       0.769   1.268  -4.215  0.00  0.00    +0.001 A 
ATOM     10  C   UNL     1       1.753   0.314  -4.394  0.00  0.00    +0.020 A 
ATOM     11  C   UNL     1       1.992  -0.627  -3.408  0.00  0.00    +0.045 A 
ATOM     12  C   UNL     1       1.246  -0.613  -2.244  0.00  0.00    -0.020 A 
ATOM     13  C   UNL     1       0.262   0.342  -2.066  0.00  0.00    +0.006 A 
ATOM     14 CL   UNL     1       3.227  -1.827  -3.633  0.00  0.00    -0.083 Cl
ENDBRANCH   1  12
BRANCH   3  15
ATOM     15  C   UNL     1      -0.534  -4.681   0.012  0.00  0.00    +0.436 C 
ATOM     16  F   UNL     1      -0.368  -5.464  -1.136  0.00  0.00    -0.166 F 
ATOM     17  F   UNL     1      -0.407  -5.487   1.148  0.00  0.00    -0.166 F 
ATOM     18  F   UNL     1      -1.804  -4.093  -0.004  0.00  0.00    -0.166 F 
ENDBRANCH   3  15
BRANCH   6  19
ATOM     19  C   UNL     1       2.158   0.321   0.287  0.00  0.00    +0.098 C 
ATOM     20  N   UNL     1       2.659   1.337   0.380  0.00  0.00    -0.191 NA
ENDBRANCH   6  19
BRANCH   3  21
ATOM     21  O   UNL     1       1.834  -4.178   0.075  0.00  0.00    -0.364 OA
ATOM     22  H   UNL     1       1.984  -4.753   0.838  0.00  0.00    +0.212 HD
ENDBRANCH   3  21
BRANCH   2  23
ATOM     23  C   UNL     1      -0.947  -2.024  -1.206  0.00  0.00    +0.178 C 
ATOM     24  O   UNL     1      -1.370  -1.508  -0.191  0.00  0.00    -0.291 OA
BRANCH  23  25
ATOM     25  C   UNL     1      -1.718  -1.993  -2.388  0.00  0.00    +0.055 A 
ATOM     26  C   UNL     1      -2.970  -1.425  -2.604  0.00  0.00    +0.019 A 
ATOM     27  C   UNL     1      -3.472  -1.556  -3.874  0.00  0.00    +0.008 A 
ATOM     28  C   UNL     1      -2.738  -2.212  -4.810  0.00  0.00    +0.046 A 
ATOM     29  S   UNL     1      -1.339  -2.664  -3.996  0.00  0.00    -0.094 S 
ENDBRANCH  23  25
ENDBRANCH   2  23
BRANCH   5  30
ATOM     30  S   UNL     1       1.062  -0.656   2.813  0.00  0.00    -0.100 S 
BRANCH  30  31
ATOM     31  C   UNL     1       0.207  -1.752   3.979  0.00  0.00    +0.171 C 
BRANCH  31  32
ATOM     32  C   UNL     1       0.210  -1.127   5.350  0.00  0.00    +0.221 C 
ATOM     33  O   UNL     1       0.737  -0.048   5.524  0.00  0.00    -0.275 OA
ATOM     34  N   UNL     1      -0.373  -1.766   6.384  0.00  0.00    -0.329 N 
ATOM     35  H   UNL     1      -0.794  -2.628   6.245  0.00  0.00    +0.145 HD
ATOM     36  H   UNL     1      -0.371  -1.364   7.266  0.00  0.00    +0.145 HD
ENDBRANCH  31  32
ENDBRANCH  30  31
ENDBRANCH   5  30
TORSDOF 9
