REMARK  Name = ZINC10141030
REMARK  11 active torsions:
REMARK  status: ('A' for Active; 'I' for Inactive)
REMARK    1  A    between atoms: C_1  and  C_2
REMARK    2  A    between atoms: C_2  and  N_53
REMARK    3  A    between atoms: C_3  and  C_4
REMARK    4  A    between atoms: C_3  and  N_53
REMARK    5  A    between atoms: N_6  and  C_7
REMARK    6  A    between atoms: C_7  and  C_8
REMARK    7  A    between atoms: C_8  and  C_9
REMARK    8  A    between atoms: C_16  and  C_17
REMARK    9  A    between atoms: C_16  and  N_53
REMARK   10  A    between atoms: N_19  and  C_20
REMARK   11  A    between atoms: C_25  and  C_26
REMARK                            x       y       z     vdW  Elec       q    Type
REMARK                         _______ _______ _______ _____ _____    ______ ____
ROOT
ATOM      1  N   UNL     1       2.302   0.661  -0.066  0.00  0.00    +0.391 N 
ATOM      2  H   UNL     1       2.142  -0.176   0.508  0.00  0.00    -0.080 HD
ENDROOT
BRANCH   1   4
ATOM      3  C   UNL     1       2.734   1.469  -2.362  0.00  0.00    -0.017 C 
ATOM      4  C   UNL     1       2.419   0.257  -1.482  0.00  0.00    -0.081 C 
ENDBRANCH   1   4
BRANCH   1   5
ATOM      5  C   UNL     1       3.552   1.315   0.378  0.00  0.00    +0.019 C 
BRANCH   5   6
ATOM      6  C   UNL     1       4.612   0.259   0.560  0.00  0.00    +0.196 C 
ATOM      7  O   UNL     1       4.358  -0.903   0.321  0.00  0.00    -0.278 OA
ATOM      8  N   UNL     1       5.842   0.606   0.988  0.00  0.00    -0.317 N 
ATOM      9  H   UNL     1       6.045   1.535   1.178  0.00  0.00    +0.149 HD
BRANCH   8  10
ATOM     10  C   UNL     1       6.872  -0.421   1.164  0.00  0.00    +0.109 C 
BRANCH  10  11
ATOM     11  C   UNL     1       8.166   0.234   1.654  0.00  0.00    +0.054 C 
BRANCH  11  12
ATOM     12  C   UNL     1       9.226  -0.822   1.835  0.00  0.00    -0.045 A 
ATOM     13  C   UNL     1       9.365  -1.458   3.054  0.00  0.00    +0.004 A 
ATOM     14  C   UNL     1      10.334  -2.430   3.220  0.00  0.00    +0.002 A 
ATOM     15  C   UNL     1      11.171  -2.758   2.170  0.00  0.00    +0.020 A 
ATOM     16  C   UNL     1      11.035  -2.118   0.952  0.00  0.00    +0.041 A 
ATOM     17  C   UNL     1      10.062  -1.149   0.784  0.00  0.00    +0.023 A 
ATOM     18 CL   UNL     1      12.086  -2.530  -0.368  0.00  0.00    -0.084 Cl
ENDBRANCH  11  12
ENDBRANCH  10  11
ENDBRANCH   8  10
ENDBRANCH   5   6
ENDBRANCH   1   5
BRANCH   1  19
ATOM     19  C   UNL     1       1.161   1.585   0.104  0.00  0.00    +0.020 C 
BRANCH  19  20
ATOM     20  C   UNL     1      -0.118   0.828  -0.144  0.00  0.00    +0.201 C 
ATOM     21  O   UNL     1      -0.079  -0.346  -0.446  0.00  0.00    -0.278 OA
ATOM     22  N   UNL     1      -1.305   1.458  -0.036  0.00  0.00    -0.287 N 
ATOM     23  H   UNL     1      -1.340   2.377   0.270  0.00  0.00    +0.155 HD
BRANCH  22  24
ATOM     24  C   UNL     1      -2.486   0.784  -0.367  0.00  0.00    +0.045 A 
ATOM     25  C   UNL     1      -2.600  -0.579  -0.129  0.00  0.00    +0.024 A 
ATOM     26  C   UNL     1      -3.769  -1.240  -0.452  0.00  0.00    +0.002 A 
ATOM     27  C   UNL     1      -4.822  -0.547  -1.021  0.00  0.00    +0.001 A 
ATOM     28  C   UNL     1      -4.710   0.809  -1.263  0.00  0.00    +0.014 A 
ATOM     29  C   UNL     1      -3.546   1.477  -0.938  0.00  0.00    +0.076 A 
BRANCH  29  30
ATOM     30  C   UNL     1      -3.425   2.956  -1.203  0.00  0.00    +0.419 C 
ATOM     31  F   UNL     1      -4.611   3.425  -1.778  0.00  0.00    -0.166 F 
ATOM     32  F   UNL     1      -3.192   3.628   0.002  0.00  0.00    -0.166 F 
ATOM     33  F   UNL     1      -2.359   3.186  -2.079  0.00  0.00    -0.166 F 
ENDBRANCH  29  30
ENDBRANCH  22  24
ENDBRANCH  19  20
ENDBRANCH   1  19
TORSDOF 10
