REMARK  Name = ZINC67527807
REMARK  7 active torsions:
REMARK  status: ('A' for Active; 'I' for Inactive)
REMARK    1  A    between atoms: C_3  and  C_10
REMARK    2  A    between atoms: C_5  and  N_7
REMARK    3  A    between atoms: C_10  and  N_11
REMARK    4  A    between atoms: N_14  and  C_15
REMARK    5  A    between atoms: C_19  and  C_21
REMARK    6  A    between atoms: C_21  and  N_22
REMARK    7  A    between atoms: C_26  and  C_28
REMARK                            x       y       z     vdW  Elec       q    Type
REMARK                         _______ _______ _______ _____ _____    ______ ____
ROOT
ATOM      1  C   UNL     1       6.864   3.944   3.162  0.00  0.00    +0.035 A 
ATOM      2  C   UNL     1       7.661   4.443   2.139  0.00  0.00    +0.023 A 
ATOM      3  C   UNL     1       8.863   5.053   2.439  0.00  0.00    +0.002 A 
ATOM      4  C   UNL     1       9.274   5.166   3.754  0.00  0.00    +0.002 A 
ATOM      5  C   UNL     1       8.484   4.670   4.774  0.00  0.00    -0.062 A 
ATOM      6  C   UNL     1       7.277   4.065   4.482  0.00  0.00    +0.025 A 
ENDROOT
BRANCH   1  10
ATOM      7  N   UNL     1       4.378   1.913   1.502  0.00  0.00    -0.295 N 
ATOM      8  C   UNL     1       5.522   2.584   1.743  0.00  0.00    +0.304 C 
ATOM      9  O   UNL     1       6.443   2.521   0.952  0.00  0.00    -0.252 OA
ATOM     10  N   UNL     1       5.645   3.326   2.862  0.00  0.00    -0.269 N 
ATOM     11  H   UNL     1       3.644   1.964   2.133  0.00  0.00    +0.151 HD
ATOM     12  H   UNL     1       4.888   3.432   3.459  0.00  0.00    +0.156 HD
BRANCH   7  13
ATOM     13  C   UNL     1       4.245   1.107   0.286  0.00  0.00    +0.141 C 
BRANCH  13  16
ATOM     14  C   UNL     1       0.572   0.533  -0.370  0.00  0.00    +0.003 A 
ATOM     15  C   UNL     1       1.822   1.122  -0.341  0.00  0.00    +0.005 A 
ATOM     16  C   UNL     1       2.882   0.465   0.256  0.00  0.00    -0.028 A 
ATOM     17  C   UNL     1       2.692  -0.780   0.824  0.00  0.00    +0.038 A 
ATOM     18  C   UNL     1       1.441  -1.369   0.796  0.00  0.00    +0.127 A 
ATOM     19  C   UNL     1       0.382  -0.713   0.198  0.00  0.00    +0.033 A 
BRANCH  18  20
ATOM     20  N   UNL     1       1.238  -2.703   1.405  0.00  0.00    +0.056 N 
ATOM     21  O   UNL     1       2.165  -3.278   1.926  0.00  0.00    -0.126 OA
ATOM     22  O   UNL     1       0.144  -3.218   1.380  0.00  0.00    -0.126 OA
ENDBRANCH  18  20
ENDBRANCH  13  16
ENDBRANCH   7  13
ENDBRANCH   1  10
BRANCH   5  23
ATOM     23  C   UNL     1       8.936   4.795   6.206  0.00  0.00    -0.042 C 
BRANCH  23  24
ATOM     24  N   UNL     1       8.440   6.059   6.768  0.00  0.00    +0.390 N 
ATOM     25  C   UNL     1       6.963   6.009   6.914  0.00  0.00    -0.077 C 
ATOM     26  C   UNL     1       6.676   7.092   7.984  0.00  0.00    -0.020 C 
ATOM     27  C   UNL     1       7.869   6.942   8.956  0.00  0.00    -0.008 C 
ATOM     28  C   UNL     1       8.974   6.254   8.133  0.00  0.00    +0.019 C 
ATOM     29  H   UNL     1       8.706   6.831   6.176  0.00  0.00    -0.080 HD
BRANCH  28  30
ATOM     30  C   UNL     1      10.199   7.130   8.085  0.00  0.00    +0.197 C 
ATOM     31  O   UNL     1      10.598   7.557   7.022  0.00  0.00    -0.278 OA
ATOM     32  N   UNL     1      10.851   7.441   9.223  0.00  0.00    -0.331 N 
ATOM     33  H   UNL     1      10.532   7.100  10.073  0.00  0.00    +0.145 HD
ATOM     34  H   UNL     1      11.639   8.005   9.191  0.00  0.00    +0.145 HD
ENDBRANCH  28  30
ENDBRANCH  23  24
ENDBRANCH   5  23
TORSDOF 7
