REMARK  Name = ZINC40661942
REMARK  11 active torsions:
REMARK  status: ('A' for Active; 'I' for Inactive)
REMARK    1  A    between atoms: C_1  and  C_2
REMARK    2  A    between atoms: C_2  and  N_3
REMARK    3  A    between atoms: N_3  and  C_4
REMARK    4  A    between atoms: C_8  and  C_10
REMARK    5  A    between atoms: C_12  and  N_29
REMARK    6  A    between atoms: C_13  and  N_17
REMARK    7  A    between atoms: N_17  and  C_18
REMARK    8  A    between atoms: C_21  and  O_26
REMARK    9  A    between atoms: C_23  and  O_24
REMARK   10  A    between atoms: O_24  and  C_25
REMARK   11  A    between atoms: O_26  and  C_27
REMARK                            x       y       z     vdW  Elec       q    Type
REMARK                         _______ _______ _______ _____ _____    ______ ____
ROOT
ATOM      1  N   UNL     1      -1.334  -0.585  -0.012  0.00  0.00    -0.284 N 
ATOM      2  C   UNL     1      -1.905  -0.783   1.241  0.00  0.00    +0.151 A 
ATOM      3  C   UNL     1      -1.206  -0.443   2.400  0.00  0.00    +0.104 A 
ATOM      4  C   UNL     1      -1.826  -0.662   3.632  0.00  0.00    +0.126 A 
ATOM      5  N   UNL     1      -3.050  -1.183   3.654  0.00  0.00    -0.333 N 
ATOM      6  C   UNL     1      -3.675  -1.490   2.535  0.00  0.00    +0.200 A 
ATOM      7  N   UNL     1      -3.128  -1.295   1.352  0.00  0.00    -0.220 NA
ATOM      8  H   UNL     1      -3.489  -1.339   4.505  0.00  0.00    +0.168 HD
ENDROOT
BRANCH   1   9
ATOM      9  C   UNL     1      -0.658  -1.631  -0.645  0.00  0.00    +0.035 A 
ATOM     10  C   UNL     1       0.005  -1.406  -1.845  0.00  0.00    +0.023 A 
ATOM     11  C   UNL     1       0.673  -2.442  -2.467  0.00  0.00    +0.002 A 
ATOM     12  C   UNL     1       0.682  -3.703  -1.898  0.00  0.00    +0.003 A 
ATOM     13  C   UNL     1       0.024  -3.930  -0.703  0.00  0.00    -0.049 A 
ATOM     14  C   UNL     1      -0.641  -2.897  -0.072  0.00  0.00    +0.026 A 
ATOM     15  C   UNL     1       0.037  -5.304  -0.086  0.00  0.00    +0.044 C 
ENDBRANCH   1   9
BRANCH   3  16
ATOM     16  N   UNL     1       0.085   0.105   2.330  0.00  0.00    -0.353 N 
ATOM     17  H   UNL     1       0.533   0.182   1.473  0.00  0.00    +0.143 HD
ATOM     18  H   UNL     1       0.529   0.405   3.138  0.00  0.00    +0.143 HD
ENDBRANCH   3  16
BRANCH   1  20
ATOM     19  C   UNL     1      -2.629   0.710  -1.633  0.00  0.00    +0.025 C 
ATOM     20  C   UNL     1      -1.442   0.721  -0.667  0.00  0.00    +0.109 C 
ENDBRANCH   1  20
BRANCH   4  21
ATOM     21  N   UNL     1      -1.174  -0.341   4.817  0.00  0.00    -0.296 N 
ATOM     22  H   UNL     1      -0.317   0.111   4.792  0.00  0.00    +0.154 HD
BRANCH  21  23
ATOM     23  C   UNL     1      -1.756  -0.672   6.049  0.00  0.00    +0.076 A 
ATOM     24  C   UNL     1      -2.316   0.319   6.841  0.00  0.00    +0.050 A 
ATOM     25  C   UNL     1      -2.890  -0.007   8.056  0.00  0.00    +0.084 A 
ATOM     26  C   UNL     1      -2.908  -1.327   8.485  0.00  0.00    +0.142 A 
ATOM     27  C   UNL     1      -2.349  -2.321   7.696  0.00  0.00    +0.094 A 
ATOM     28  C   UNL     1      -1.778  -1.998   6.476  0.00  0.00    +0.145 A 
ATOM     29 CL   UNL     1      -3.590   1.235   9.046  0.00  0.00    -0.080 Cl
BRANCH  28  30
ATOM     30  O   UNL     1      -1.235  -2.973   5.698  0.00  0.00    -0.493 OA
ATOM     31  C   UNL     1      -1.293  -4.310   6.199  0.00  0.00    +0.277 C 
ENDBRANCH  28  30
BRANCH  26  32
ATOM     32  O   UNL     1      -3.473  -1.646   9.680  0.00  0.00    -0.494 OA
ATOM     33  C   UNL     1      -3.455  -3.024  10.059  0.00  0.00    +0.277 C 
ENDBRANCH  26  32
ENDBRANCH  21  23
ENDBRANCH   4  21
TORSDOF 7
