REMARK  Name = ZINC35486651
REMARK  12 active torsions:
REMARK  status: ('A' for Active; 'I' for Inactive)
REMARK    1  A    between atoms: C_1  and  C_2
REMARK    2  A    between atoms: C_2  and  C_3
REMARK    3  A    between atoms: C_3  and  C_4
REMARK    4  A    between atoms: C_4  and  C_5
REMARK    5  A    between atoms: C_5  and  O_6
REMARK    6  A    between atoms: O_6  and  C_7
REMARK    7  A    between atoms: C_10  and  C_13
REMARK    8  A    between atoms: N_28  and  C_29
REMARK    9  A    between atoms: C_29  and  C_30
REMARK   10  A    between atoms: C_30  and  N_31
REMARK   11  A    between atoms: N_31  and  C_32
REMARK   12  A    between atoms: N_31  and  C_33
REMARK                            x       y       z     vdW  Elec       q    Type
REMARK                         _______ _______ _______ _____ _____    ______ ____
ROOT
ATOM      1  C   UNL     1       3.977  -6.449  -6.915  0.00  0.00    +0.144 C 
ATOM      2  C   UNL     1       5.331  -6.942  -6.523  0.00  0.00    +0.072 A 
ATOM      3  C   UNL     1       6.519  -6.227  -6.044  0.00  0.00    +0.199 A 
ATOM      4  O   UNL     1       6.505  -5.052  -5.723  0.00  0.00    -0.287 OA
ATOM      5  C   UNL     1       7.739  -7.072  -5.988  0.00  0.00    +0.065 A 
ATOM      6  C   UNL     1       8.985  -6.495  -5.746  0.00  0.00    +0.030 A 
ATOM      7  C   UNL     1      10.107  -7.293  -5.702  0.00  0.00    +0.019 A 
ATOM      8  C   UNL     1       9.994  -8.664  -5.899  0.00  0.00    +0.019 A 
ATOM      9  C   UNL     1       8.769  -9.243  -6.137  0.00  0.00    +0.048 A 
ATOM     10  C   UNL     1       7.618  -8.457  -6.183  0.00  0.00    +0.140 A 
ATOM     11  O   UNL     1       6.425  -9.053  -6.409  0.00  0.00    -0.450 OA
ATOM     12  C   UNL     1       5.343  -8.298  -6.685  0.00  0.00    +0.199 A 
ATOM     13  C   UNL     1       4.022  -8.716  -7.184  0.00  0.00    +0.283 C 
ATOM     14  O   UNL     1       3.703  -9.861  -7.436  0.00  0.00    -0.267 OA
ATOM     15  N   UNL     1       3.216  -7.641  -7.322  0.00  0.00    -0.285 N 
ATOM     16 BR   UNL     1      11.803  -6.523  -5.375  0.00  0.00    -0.050 Br
ENDROOT
BRANCH   1  20
ATOM     17  C   UNL     1       2.078  -4.553  -3.590  0.00  0.00    +0.121 A 
ATOM     18  C   UNL     1       2.645  -3.785  -4.596  0.00  0.00    +0.046 A 
ATOM     19  C   UNL     1       3.259  -4.400  -5.670  0.00  0.00    +0.009 A 
ATOM     20  C   UNL     1       3.308  -5.780  -5.742  0.00  0.00    -0.022 A 
ATOM     21  C   UNL     1       2.743  -6.548  -4.741  0.00  0.00    +0.009 A 
ATOM     22  C   UNL     1       2.133  -5.937  -3.662  0.00  0.00    +0.046 A 
BRANCH  17  23
ATOM     23  O   UNL     1       1.474  -3.950  -2.532  0.00  0.00    -0.492 OA
BRANCH  23  24
ATOM     24  C   UNL     1       1.455  -2.521  -2.524  0.00  0.00    +0.229 C 
BRANCH  24  25
ATOM     25  C   UNL     1       0.739  -2.027  -1.265  0.00  0.00    +0.041 C 
BRANCH  25  26
ATOM     26  C   UNL     1       0.718  -0.497  -1.257  0.00  0.00    +0.003 C 
BRANCH  26  28
ATOM     27  C   UNL     1      -0.019   1.526   0.010  0.00  0.00    +0.004 C 
ATOM     28  C   UNL     1       0.002  -0.004   0.002  0.00  0.00    -0.003 C 
ENDBRANCH  26  28
ENDBRANCH  25  26
ENDBRANCH  24  25
ENDBRANCH  23  24
ENDBRANCH  17  23
ENDBRANCH   1  20
BRANCH  15  29
ATOM     29  C   UNL     1       1.829  -7.658  -7.793  0.00  0.00    +0.090 C 
BRANCH  29  30
ATOM     30  C   UNL     1       1.804  -7.493  -9.314  0.00  0.00    -0.060 C 
BRANCH  30  31
ATOM     31  N   UNL     1       0.413  -7.510  -9.786  0.00  0.00    +0.377 N 
ATOM     32  C   UNL     1       0.382  -7.233 -11.228  0.00  0.00    -0.097 C 
ATOM     33  C   UNL     1      -0.175  -8.831  -9.528  0.00  0.00    -0.097 C 
ATOM     34  H   UNL     1      -0.117  -6.805  -9.296  0.00  0.00    -0.083 HD
ENDBRANCH  30  31
ENDBRANCH  29  30
ENDBRANCH  15  29
TORSDOF 9
