REMARK  Name = ZINC66994653
REMARK  14 active torsions:
REMARK  status: ('A' for Active; 'I' for Inactive)
REMARK    1  A    between atoms: C_1  and  C_2
REMARK    2  A    between atoms: C_2  and  C_3
REMARK    3  A    between atoms: C_2  and  C_4
REMARK    4  A    between atoms: C_7  and  C_13
REMARK    5  A    between atoms: C_9  and  N_10
REMARK    6  A    between atoms: C_13  and  N_14
REMARK    7  A    between atoms: N_14  and  C_15
REMARK    8  A    between atoms: C_15  and  C_16
REMARK    9  A    between atoms: C_20  and  C_22
REMARK   10  A    between atoms: N_24  and  C_25
REMARK   11  A    between atoms: C_25  and  C_26
REMARK   12  A    between atoms: C_26  and  N_27
REMARK   13  A    between atoms: N_27  and  C_28
REMARK   14  A    between atoms: N_27  and  C_29
REMARK                            x       y       z     vdW  Elec       q    Type
REMARK                         _______ _______ _______ _____ _____    ______ ____
ROOT
ATOM      1  C   UNL     1       3.214  -0.317   7.003  0.00  0.00    -0.046 C 
ENDROOT
BRANCH   1   2
ATOM      2  C   UNL     1       3.125   0.955   7.807  0.00  0.00    -0.064 A 
ATOM      3  C   UNL     1       4.128   1.903   7.713  0.00  0.00    +0.002 A 
ATOM      4  C   UNL     1       4.053   3.073   8.448  0.00  0.00    +0.001 A 
ATOM      5  C   UNL     1       2.977   3.301   9.280  0.00  0.00    +0.013 A 
ATOM      6  C   UNL     1       1.961   2.349   9.379  0.00  0.00    +0.037 A 
ATOM      7  C   UNL     1       2.040   1.173   8.631  0.00  0.00    +0.014 A 
BRANCH   6   8
ATOM      8  C   UNL     1       0.805   2.587  10.269  0.00  0.00    +0.244 C 
ATOM      9  O   UNL     1      -0.078   1.755  10.354  0.00  0.00    -0.270 OA
ATOM     10  N   UNL     1       0.730   3.725  10.987  0.00  0.00    -0.313 N 
ATOM     11  H   UNL     1       1.434   4.388  10.919  0.00  0.00    +0.149 HD
BRANCH  10  12
ATOM     12  C   UNL     1      -0.416   3.961  11.869  0.00  0.00    +0.086 C 
BRANCH  12  13
ATOM     13  C   UNL     1      -0.257   5.315  12.561  0.00  0.00    -0.061 C 
BRANCH  13  14
ATOM     14  N   UNL     1      -1.406   5.552  13.445  0.00  0.00    +0.377 N 
ATOM     15  C   UNL     1      -1.196   6.795  14.200  0.00  0.00    -0.097 C 
ATOM     16  C   UNL     1      -2.628   5.669  12.639  0.00  0.00    -0.097 C 
ATOM     17  H   UNL     1      -1.500   4.780  14.088  0.00  0.00    -0.083 HD
ENDBRANCH  13  14
ENDBRANCH  12  13
ENDBRANCH  10  12
ENDBRANCH   6   8
ENDBRANCH   1   2
BRANCH   1  18
ATOM     18  N   UNL     1       2.573  -0.116   5.697  0.00  0.00    +0.384 N 
ATOM     19  H   UNL     1       3.042   0.628   5.203  0.00  0.00    -0.085 HD
ATOM     20  H   UNL     1       1.603   0.129   5.832  0.00  0.00    -0.085 HD
BRANCH  18  21
ATOM     21  C   UNL     1       2.660  -1.355   4.913  0.00  0.00    -0.046 C 
BRANCH  21  25
ATOM     22  C   UNL     1       0.796  -0.773   1.113  0.00  0.00    -0.015 A 
ATOM     23  C   UNL     1       2.143  -0.503   1.271  0.00  0.00    +0.006 A 
ATOM     24  C   UNL     1       2.746  -0.692   2.501  0.00  0.00    +0.002 A 
ATOM     25  C   UNL     1       2.002  -1.149   3.572  0.00  0.00    -0.062 A 
ATOM     26  C   UNL     1       0.656  -1.417   3.415  0.00  0.00    +0.034 A 
ATOM     27  C   UNL     1       0.052  -1.225   2.186  0.00  0.00    +0.130 A 
BRANCH  22  29
ATOM     28  C   UNL     1       0.139   0.923  -0.572  0.00  0.00    +0.012 C 
ATOM     29  C   UNL     1       0.139  -0.568  -0.227  0.00  0.00    +0.015 C 
ATOM     30  C   UNL     1       0.913  -1.339  -1.298  0.00  0.00    +0.012 C 
ENDBRANCH  22  29
BRANCH  27  31
ATOM     31  N   UNL     1      -1.391  -1.508   2.019  0.00  0.00    +0.057 N 
ATOM     32  O   UNL     1      -2.076  -0.778   1.340  0.00  0.00    -0.126 OA
ATOM     33  O   UNL     1      -1.886  -2.469   2.561  0.00  0.00    -0.126 OA
ENDBRANCH  27  31
ENDBRANCH  21  25
ENDBRANCH  18  21
ENDBRANCH   1  18
TORSDOF 10
