REMARK  Name = ZINC38659844
REMARK  13 active torsions:
REMARK  status: ('A' for Active; 'I' for Inactive)
REMARK    1  A    between atoms: C_1  and  O_2
REMARK    2  A    between atoms: O_2  and  C_3
REMARK    3  A    between atoms: C_6  and  O_36
REMARK    4  A    between atoms: C_7  and  C_9
REMARK    5  A    between atoms: C_14  and  O_23
REMARK    6  A    between atoms: C_18  and  N_22
REMARK    7  A    between atoms: C_19  and  C_20
REMARK    8  A    between atoms: O_23  and  C_24
REMARK    9  A    between atoms: C_24  and  C_26
REMARK   10  A    between atoms: C_29  and  O_32
REMARK   11  A    between atoms: O_32  and  C_33
REMARK   12  A    between atoms: C_33  and  C_34
REMARK   13  A    between atoms: O_36  and  C_37
REMARK                            x       y       z     vdW  Elec       q    Type
REMARK                         _______ _______ _______ _____ _____    ______ ____
ROOT
ATOM      1  C   UNL     1       1.271  -4.102  -2.248  0.00  0.00    +0.102 C 
ATOM      2  C   UNL     1       2.030  -4.639  -1.064  0.00  0.00    +0.008 A 
ATOM      3  C   UNL     1       3.413  -4.636  -1.085  0.00  0.00    +0.012 A 
ATOM      4  C   UNL     1       4.126  -5.125  -0.008  0.00  0.00    +0.047 A 
ATOM      5  C   UNL     1       3.455  -5.623   1.100  0.00  0.00    +0.135 A 
ATOM      6  C   UNL     1       2.070  -5.627   1.124  0.00  0.00    +0.093 A 
ATOM      7  C   UNL     1       1.354  -5.134   0.040  0.00  0.00    +0.138 A 
ATOM      8  O   UNL     1      -0.001  -5.145   0.079  0.00  0.00    -0.441 OA
ATOM      9  C   UNL     1      -0.705  -5.049  -1.062  0.00  0.00    +0.199 C 
ATOM     10  C   UNL     1      -0.159  -4.562  -2.198  0.00  0.00    +0.098 C 
ENDROOT
BRANCH   1  15
ATOM     11  C   UNL     1       0.817  -0.520  -1.131  0.00  0.00    +0.121 A 
ATOM     12  C   UNL     1       1.387   0.174  -2.187  0.00  0.00    +0.049 A 
ATOM     13  C   UNL     1       1.918  -0.514  -3.260  0.00  0.00    +0.049 A 
ATOM     14  C   UNL     1       1.881  -1.901  -3.281  0.00  0.00    +0.124 A 
ATOM     15  C   UNL     1       1.311  -2.595  -2.225  0.00  0.00    +0.010 A 
ATOM     16  C   UNL     1       0.785  -1.907  -1.150  0.00  0.00    +0.053 A 
BRANCH  11  18
ATOM     17  C   UNL     1       0.360   1.584  -0.122  0.00  0.00    +0.277 C 
ATOM     18  O   UNL     1       0.293   0.158  -0.075  0.00  0.00    -0.495 OA
ENDBRANCH  11  18
BRANCH  14  19
ATOM     19  O   UNL     1       2.404  -2.579  -4.338  0.00  0.00    -0.495 OA
ATOM     20  C   UNL     1       2.975  -1.799  -5.391  0.00  0.00    +0.277 C 
ENDBRANCH  14  19
ENDBRANCH   1  15
BRANCH   9  21
ATOM     21  N   UNL     1      -2.015  -5.456  -1.072  0.00  0.00    -0.328 N 
ATOM     22  H   UNL     1      -2.421  -5.807  -0.264  0.00  0.00    +0.145 HD
ATOM     23  H   UNL     1      -2.537  -5.393  -1.888  0.00  0.00    +0.145 HD
ENDBRANCH   9  21
BRANCH  10  24
ATOM     24  C   UNL     1      -0.963  -4.485  -3.380  0.00  0.00    +0.101 C 
ATOM     25  N   UNL     1      -1.601  -4.423  -4.318  0.00  0.00    -0.191 NA
ENDBRANCH  10  24
BRANCH   5  26
ATOM     26  O   UNL     1       4.155  -6.104   2.161  0.00  0.00    -0.422 OA
BRANCH  26  27
ATOM     27  C   UNL     1       4.116  -7.431   2.395  0.00  0.00    +0.344 C 
ATOM     28  O   UNL     1       3.556  -8.170   1.610  0.00  0.00    -0.245 OA
BRANCH  27  29
ATOM     29  C   UNL     1       4.753  -7.985   3.604  0.00  0.00    +0.060 A 
ATOM     30  C   UNL     1       5.393  -7.136   4.511  0.00  0.00    +0.018 A 
ATOM     31  C   UNL     1       5.986  -7.658   5.639  0.00  0.00    +0.046 A 
ATOM     32  C   UNL     1       5.950  -9.027   5.875  0.00  0.00    +0.121 A 
ATOM     33  C   UNL     1       5.315  -9.875   4.975  0.00  0.00    +0.046 A 
ATOM     34  C   UNL     1       4.714  -9.361   3.848  0.00  0.00    +0.018 A 
BRANCH  32  35
ATOM     35  O   UNL     1       6.536  -9.537   6.988  0.00  0.00    -0.488 OA
BRANCH  35  36
ATOM     36  C   UNL     1       6.461 -10.953   7.170  0.00  0.00    +0.256 C 
BRANCH  36  37
ATOM     37  C   UNL     1       7.161 -11.333   8.449  0.00  0.00    +0.006 C 
ATOM     38  C   UNL     1       6.601 -12.181   9.275  0.00  0.00    +0.007 C 
ENDBRANCH  36  37
ENDBRANCH  35  36
ENDBRANCH  32  35
ENDBRANCH  27  29
ENDBRANCH  26  27
ENDBRANCH   5  26
TORSDOF 11
