REMARK  Name = ZINC39631951
REMARK  11 active torsions:
REMARK  status: ('A' for Active; 'I' for Inactive)
REMARK    1  A    between atoms: C_1  and  C_2
REMARK    2  A    between atoms: C_2  and  C_4
REMARK    3  A    between atoms: C_2  and  N_11
REMARK    4  A    between atoms: C_4  and  C_5
REMARK    5  A    between atoms: C_5  and  C_6
REMARK    6  A    between atoms: C_6  and  C_7
REMARK    7  A    between atoms: C_7  and  C_8
REMARK    8  A    between atoms: C_7  and  C_9
REMARK    9  A    between atoms: C_7  and  O_10
REMARK   10  A    between atoms: C_12  and  C_14
REMARK   11  A    between atoms: C_25  and  C_27
REMARK                            x       y       z     vdW  Elec       q    Type
REMARK                         _______ _______ _______ _____ _____    ______ ____
ROOT
ATOM      1  C   UNL     1       1.562  -0.778   3.986  0.00  0.00    +0.100 C 
ATOM      2  C   UNL     1       1.472  -2.278   3.627  0.00  0.00    +0.121 C 
ATOM      3  N   UNL     1       1.262  -2.962   4.924  0.00  0.00    -0.300 N 
ATOM      4  C   UNL     1       0.336  -2.073   5.664  0.00  0.00    +0.115 C 
ATOM      5  C   UNL     1       0.815  -0.647   5.324  0.00  0.00    -0.004 C 
ATOM      6  C   UNL     1       1.757  -0.134   6.408  0.00  0.00    -0.010 C 
ATOM      7  C   UNL     1       0.978   0.042   7.714  0.00  0.00    -0.082 C 
ATOM      8  N   UNL     1      -0.123   0.990   7.505  0.00  0.00    +0.379 N 
ATOM      9  C   UNL     1      -1.074   0.447   6.528  0.00  0.00    -0.082 C 
ATOM     10  C   UNL     1      -0.381   0.288   5.172  0.00  0.00    -0.010 C 
ATOM     11  C   UNL     1       1.794  -4.130   5.338  0.00  0.00    +0.219 C 
ATOM     12  O   UNL     1       2.603  -4.707   4.644  0.00  0.00    -0.275 OA
ATOM     13  H   UNL     1      -0.598   1.151   8.381  0.00  0.00    -0.086 HD
ATOM     14  H   UNL     1       0.248   1.863   7.161  0.00  0.00    -0.086 HD
ENDROOT
BRANCH  11  15
ATOM     15  C   UNL     1       1.381  -4.718   6.663  0.00  0.00    +0.079 C 
ATOM     16  C   UNL     1       2.494  -5.632   7.190  0.00  0.00    +0.017 C 
ATOM     17  C   UNL     1       2.128  -6.071   8.610  0.00  0.00    +0.027 C 
ATOM     18  C   UNL     1       0.718  -6.583   8.646  0.00  0.00    -0.031 C 
ATOM     19  C   UNL     1      -0.160  -6.354   7.722  0.00  0.00    -0.030 C 
ATOM     20  C   UNL     1       0.110  -5.550   6.484  0.00  0.00    +0.039 C 
ENDBRANCH  11  15
BRANCH   1  22
ATOM     21  N   UNL     1       1.300   1.321   2.705  0.00  0.00    -0.312 N 
ATOM     22  C   UNL     1       0.891   0.056   2.926  0.00  0.00    +0.218 C 
ATOM     23  O   UNL     1      -0.018  -0.410   2.272  0.00  0.00    -0.275 OA
ATOM     24  H   UNL     1       2.026   1.694   3.228  0.00  0.00    +0.149 HD
BRANCH  21  26
ATOM     25  C   UNL     1      -0.601   2.795   2.261  0.00  0.00    +0.028 C 
ATOM     26  C   UNL     1       0.647   2.132   1.674  0.00  0.00    +0.070 C 
BRANCH  26  27
ATOM     27  C   UNL     1       1.615   3.212   1.186  0.00  0.00    +0.022 C 
BRANCH  27  28
ATOM     28  C   UNL     1       2.806   2.551   0.487  0.00  0.00    +0.005 C 
BRANCH  28  29
ATOM     29  C   UNL     1       3.774   3.631  -0.001  0.00  0.00    +0.034 C 
BRANCH  29  30
ATOM     30  C   UNL     1       4.964   2.970  -0.699  0.00  0.00    +0.061 C 
ATOM     31  C   UNL     1       4.466   2.154  -1.893  0.00  0.00    +0.041 C 
ATOM     32  C   UNL     1       5.932   4.050  -1.187  0.00  0.00    +0.041 C 
BRANCH  30  33
ATOM     33  O   UNL     1       5.637   2.107   0.220  0.00  0.00    -0.389 OA
ATOM     34  H   UNL     1       5.980   2.558   1.004  0.00  0.00    +0.210 HD
ENDBRANCH  30  33
ENDBRANCH  29  30
ENDBRANCH  28  29
ENDBRANCH  27  28
ENDBRANCH  26  27
ENDBRANCH  21  26
ENDBRANCH   1  22
TORSDOF 8
