REMARK  Name = ZINC19330660
REMARK  6 active torsions:
REMARK  status: ('A' for Active; 'I' for Inactive)
REMARK    1  A    between atoms: C_1  and  O_2
REMARK    2  A    between atoms: O_2  and  C_3
REMARK    3  A    between atoms: C_7  and  C_9
REMARK    4  A    between atoms: C_12  and  C_25
REMARK    5  A    between atoms: C_15  and  C_18
REMARK    6  A    between atoms: C_30  and  O_31
REMARK                            x       y       z     vdW  Elec       q    Type
REMARK                         _______ _______ _______ _____ _____    ______ ____
ROOT
ATOM      1  C   UNL     1      -0.649   1.591  -1.229  0.00  0.00    -0.036 C 
ATOM      2  C   UNL     1       0.040   1.083   0.041  0.00  0.00    +0.012 C 
ATOM      3  C   UNL     1      -0.733   1.581   1.266  0.00  0.00    +0.085 C 
ATOM      4  N   UNL     1      -2.131   1.134   1.168  0.00  0.00    -0.319 NA
ATOM      5  C   UNL     1      -2.765   1.649  -0.052  0.00  0.00    +0.028 C 
ATOM      6  N   UNL     1      -2.049   1.144  -1.231  0.00  0.00    +0.396 N 
ATOM      7  H   UNL     1      -2.164   0.035   1.145  0.00  0.00    +0.121 HD
ATOM      8  H   UNL     1      -2.552   1.517  -2.136  0.00  0.00    -0.082 HD
ATOM      9  H   UNL     1      -2.083   0.045  -1.220  0.00  0.00    -0.082 HD
ENDROOT
BRANCH   5  10
ATOM     10  C   UNL     1      -4.200   1.191  -0.103  0.00  0.00    -0.048 A 
ATOM     11  C   UNL     1      -4.896   0.970   1.071  0.00  0.00    +0.004 A 
ATOM     12  C   UNL     1      -6.214   0.554   1.025  0.00  0.00    +0.015 A 
ATOM     13  C   UNL     1      -6.833   0.350  -0.195  0.00  0.00    +0.018 A 
ATOM     14  C   UNL     1      -6.134   0.567  -1.369  0.00  0.00    +0.015 A 
ATOM     15  C   UNL     1      -4.818   0.988  -1.322  0.00  0.00    +0.004 A 
ATOM     16 BR   UNL     1      -8.633  -0.225  -0.258  0.00  0.00    -0.050 Br
ENDBRANCH   5  10
BRANCH   3  17
ATOM     17  C   UNL     1      -0.688   3.087   1.311  0.00  0.00    +0.012 A 
ATOM     18  C   UNL     1       0.257   3.773   0.573  0.00  0.00    +0.024 A 
ATOM     19  C   UNL     1       0.295   5.155   0.610  0.00  0.00    +0.018 A 
ATOM     20  C   UNL     1      -0.606   5.853   1.395  0.00  0.00    +0.019 A 
ATOM     21  C   UNL     1      -1.548   5.171   2.139  0.00  0.00    +0.047 A 
ATOM     22  C   UNL     1      -1.591   3.785   2.099  0.00  0.00    +0.122 A 
ATOM     23 BR   UNL     1       1.585   6.092  -0.407  0.00  0.00    -0.050 Br
BRANCH  22  24
ATOM     24  O   UNL     1      -2.519   3.111   2.830  0.00  0.00    -0.506 OA
ATOM     25  H   UNL     1      -3.235   3.665   3.454  0.00  0.00    +0.292 HD
ENDBRANCH  22  24
ENDBRANCH   3  17
BRANCH   1  30
ATOM     26  C   UNL     1       1.610   1.318  -4.245  0.00  0.00    +0.120 A 
ATOM     27  C   UNL     1       1.352   0.021  -4.665  0.00  0.00    +0.045 A 
ATOM     28  C   UNL     1       0.449  -0.761  -3.972  0.00  0.00    +0.004 A 
ATOM     29  C   UNL     1      -0.194  -0.254  -2.857  0.00  0.00    +0.002 A 
ATOM     30  C   UNL     1       0.057   1.040  -2.441  0.00  0.00    -0.058 A 
ATOM     31  C   UNL     1       0.960   1.826  -3.130  0.00  0.00    +0.047 A 
BRANCH  26  33
ATOM     32  C   UNL     1       3.131   1.500  -6.064  0.00  0.00    +0.277 C 
ATOM     33  O   UNL     1       2.499   2.089  -4.925  0.00  0.00    -0.495 OA
ENDBRANCH  26  33
ENDBRANCH   1  30
TORSDOF 5
