REMARK  Name = ZINC63384963
REMARK  3 active torsions:
REMARK  status: ('A' for Active; 'I' for Inactive)
REMARK    1  A    between atoms: C_1  and  C_2
REMARK    2  A    between atoms: C_2  and  C_3
REMARK    3  A    between atoms: C_2  and  C_4
REMARK                            x       y       z     vdW  Elec       q    Type
REMARK                         _______ _______ _______ _____ _____    ______ ____
ROOT
ATOM      1  C   UNL     1       0.597  -0.491  -1.294  0.00  0.00    +0.219 C 
ATOM      2  O   UNL     1      -0.101  -1.067  -2.102  0.00  0.00    -0.275 OA
ATOM      3  N   UNL     1       1.888  -0.232  -1.583  0.00  0.00    -0.281 N 
ATOM      4  C   UNL     1       2.737   0.423  -0.581  0.00  0.00    +0.113 C 
ATOM      5  C   UNL     1       3.967  -0.458  -0.297  0.00  0.00    +0.052 C 
ATOM      6  C   UNL     1       4.504  -0.902  -1.635  0.00  0.00    -0.034 C 
ATOM      7  C   UNL     1       5.722  -0.840  -2.158  0.00  0.00    -0.001 A 
ATOM      8  C   UNL     1       7.014  -0.426  -1.587  0.00  0.00    +0.010 A 
ATOM      9  C   UNL     1       8.082  -0.466  -2.427  0.00  0.00    +0.001 A 
ATOM     10  C   UNL     1       7.994  -0.870  -3.763  0.00  0.00    +0.002 A 
ATOM     11  C   UNL     1       6.849  -1.275  -4.368  0.00  0.00    +0.026 A 
ATOM     12  C   UNL     1       5.660  -1.287  -3.583  0.00  0.00    +0.043 A 
ATOM     13  N   UNL     1       4.450  -1.650  -3.893  0.00  0.00    -0.375 N 
ATOM     14  C   UNL     1       3.616  -1.542  -2.696  0.00  0.00    +0.143 C 
ATOM     15  C   UNL     1       2.428  -0.613  -2.891  0.00  0.00    +0.165 C 
ATOM     16  C   UNL     1       1.376  -1.248  -3.743  0.00  0.00    +0.009 A 
ATOM     17  C   UNL     1       0.628  -2.393  -3.570  0.00  0.00    +0.023 A 
ATOM     18  C   UNL     1      -0.284  -2.708  -4.573  0.00  0.00    +0.018 A 
ATOM     19  C   UNL     1      -0.429  -1.908  -5.689  0.00  0.00    +0.017 A 
ATOM     20  C   UNL     1       0.321  -0.757  -5.869  0.00  0.00    +0.025 A 
ATOM     21  C   UNL     1       1.238  -0.429  -4.870  0.00  0.00    +0.039 A 
ATOM     22  N   UNL     1       2.106   0.647  -4.792  0.00  0.00    -0.283 N 
ATOM     23  C   UNL     1       2.845   0.619  -3.662  0.00  0.00    +0.248 C 
ATOM     24  O   UNL     1       3.685   1.429  -3.330  0.00  0.00    -0.273 OA
ATOM     25 BR   UNL     1      -1.345  -4.264  -4.404  0.00  0.00    -0.050 Br
ATOM     26  H   UNL     1       2.175   1.338  -5.469  0.00  0.00    +0.155 HD
ATOM     27  H   UNL     1       4.152  -1.943  -4.768  0.00  0.00    +0.160 HD
ENDROOT
BRANCH   1  29
ATOM     28  C   UNL     1      -0.367   1.413  -0.031  0.00  0.00    +0.017 C 
ATOM     29  C   UNL     1       0.021  -0.066   0.032  0.00  0.00    +0.069 C 
ATOM     30  C   UNL     1      -1.219  -0.906   0.343  0.00  0.00    +0.017 C 
ENDBRANCH   1  29
TORSDOF 1
