REMARK  Name = ZINC08164288
REMARK  9 active torsions:
REMARK  status: ('A' for Active; 'I' for Inactive)
REMARK    1  A    between atoms: C_2  and  C_3
REMARK    2  A    between atoms: C_3  and  N_43
REMARK    3  A    between atoms: C_4  and  C_5
REMARK    4  A    between atoms: C_4  and  N_43
REMARK    5  A    between atoms: C_11  and  C_12
REMARK    6  A    between atoms: C_11  and  N_43
REMARK    7  A    between atoms: N_14  and  C_15
REMARK    8  A    between atoms: C_19  and  S_21
REMARK    9  A    between atoms: S_21  and  N_24
REMARK                            x       y       z     vdW  Elec       q    Type
REMARK                         _______ _______ _______ _____ _____    ______ ____
ROOT
ATOM      1  C   UNL     1       5.971  -0.391  -3.108  0.00  0.00    +0.201 C 
ATOM      2  O   UNL     1       5.075   0.018  -3.817  0.00  0.00    -0.278 OA
ATOM      3  N   UNL     1       7.165  -0.708  -3.646  0.00  0.00    -0.287 N 
ATOM      4  H   UNL     1       7.858  -1.098  -3.091  0.00  0.00    +0.155 HD
ENDROOT
BRANCH   3   5
ATOM      5  C   UNL     1       7.404  -0.473  -5.005  0.00  0.00    +0.035 A 
ATOM      6  C   UNL     1       6.387  -0.655  -5.932  0.00  0.00    +0.023 A 
ATOM      7  C   UNL     1       6.625  -0.419  -7.272  0.00  0.00    +0.004 A 
ATOM      8  C   UNL     1       7.878  -0.011  -7.691  0.00  0.00    +0.028 A 
ATOM      9  C   UNL     1       8.895   0.166  -6.771  0.00  0.00    +0.107 A 
ATOM     10  C   UNL     1       8.662  -0.064  -5.429  0.00  0.00    +0.051 A 
BRANCH   9  11
ATOM     11  S   UNL     1      10.489   0.686  -7.311  0.00  0.00    +0.056 S 
ATOM     12  O   UNL     1      10.300   1.360  -8.547  0.00  0.00    -0.153 OA
ATOM     13  O   UNL     1      11.115   1.304  -6.194  0.00  0.00    -0.153 OA
BRANCH  11  14
ATOM     14  N   UNL     1      11.362  -0.681  -7.645  0.00  0.00    -0.204 NA
ATOM     15  H   UNL     1      10.959  -1.555  -7.527  0.00  0.00    +0.144 HD
ATOM     16  H   UNL     1      12.277  -0.608  -7.960  0.00  0.00    +0.144 HD
ENDBRANCH  11  14
ENDBRANCH   9  11
ENDBRANCH   3   5
BRANCH   1  17
ATOM     17  C   UNL     1       5.747  -0.544  -1.625  0.00  0.00    +0.020 C 
BRANCH  17  18
ATOM     18  N   UNL     1       4.404  -0.026  -1.291  0.00  0.00    +0.391 N 
ATOM     19  H   UNL     1       3.730  -0.378  -1.980  0.00  0.00    -0.080 HD
BRANCH  18  20
ATOM     20  C   UNL     1       4.408   1.452  -1.336  0.00  0.00    -0.051 C 
BRANCH  20  22
ATOM     21  C   UNL     1       6.294   2.823  -0.610  0.00  0.00    +0.002 C 
ATOM     22  C   UNL     1       5.322   2.010  -0.276  0.00  0.00    -0.053 C 
ENDBRANCH  20  22
ENDBRANCH  18  20
BRANCH  18  23
ATOM     23  C   UNL     1       4.004  -0.489   0.054  0.00  0.00    -0.034 C 
BRANCH  23  24
ATOM     24  C   UNL     1       2.556  -0.136   0.279  0.00  0.00    -0.025 A 
ATOM     25  C   UNL     1       1.446  -0.856  -0.015  0.00  0.00    +0.011 A 
ATOM     26  C   UNL     1       0.205  -0.326   0.284  0.00  0.00    +0.028 A 
ATOM     27  C   UNL     1       0.135   0.900   0.862  0.00  0.00    +0.078 A 
ATOM     28  S   UNL     1       1.859   1.341   1.000  0.00  0.00    -0.084 S 
ATOM     29 CL   UNL     1      -1.267   1.806   1.337  0.00  0.00    -0.076 Cl
ENDBRANCH  23  24
ENDBRANCH  18  23
ENDBRANCH  17  18
ENDBRANCH   1  17
TORSDOF 9
