REMARK  Name = ZINC64053177
REMARK  9 active torsions:
REMARK  status: ('A' for Active; 'I' for Inactive)
REMARK    1  A    between atoms: C_7  and  C_10
REMARK    2  A    between atoms: C_10  and  C_11
REMARK    3  A    between atoms: C_11  and  C_12
REMARK    4  A    between atoms: C_12  and  C_13
REMARK    5  A    between atoms: C_13  and  O_15
REMARK    6  A    between atoms: O_15  and  C_16
REMARK    7  A    between atoms: C_16  and  C_17
REMARK    8  A    between atoms: N_19  and  C_20
REMARK    9  A    between atoms: C_22  and  C_27
REMARK                            x       y       z     vdW  Elec       q    Type
REMARK                         _______ _______ _______ _____ _____    ______ ____
ROOT
ATOM      1  O   UNL     1      -1.525  -6.362  -3.119  0.00  0.00    -0.455 OA
ENDROOT
BRANCH   1   2
ATOM      2  C   UNL     1      -0.707  -5.326  -2.875  0.00  0.00    +0.308 C 
ATOM      3  O   UNL     1      -0.158  -4.762  -3.791  0.00  0.00    -0.251 OA
BRANCH   2   4
ATOM      4  C   UNL     1      -0.475  -4.867  -1.459  0.00  0.00    +0.121 C 
BRANCH   4   5
ATOM      5  C   UNL     1       0.490  -3.679  -1.460  0.00  0.00    +0.015 C 
BRANCH   5   6
ATOM      6  C   UNL     1       0.726  -3.213  -0.022  0.00  0.00    +0.034 C 
BRANCH   6  13
ATOM      7  C   UNL     1       0.056   1.327   0.009  0.00  0.00    +0.001 A 
ATOM      8  C   UNL     1       1.244   2.070   0.003  0.00  0.00    +0.002 A 
ATOM      9  C   UNL     1       2.465   1.494  -0.011  0.00  0.00    +0.026 A 
ATOM     10  C   UNL     1       2.591   0.078  -0.019  0.00  0.00    +0.043 A 
ATOM     11  N   UNL     1       3.643  -0.705  -0.033  0.00  0.00    -0.380 N 
ATOM     12  C   UNL     1       3.188  -2.100  -0.037  0.00  0.00    +0.144 C 
ATOM     13  C   UNL     1       1.677  -2.043  -0.023  0.00  0.00    -0.042 C 
ATOM     14  C   UNL     1       1.351  -0.731  -0.013  0.00  0.00    -0.001 A 
ATOM     15  C   UNL     1       0.064  -0.026   0.002  0.00  0.00    +0.010 A 
ATOM     16  H   UNL     1       4.567  -0.411  -0.040  0.00  0.00    +0.160 HD
ENDBRANCH   6  13
ENDBRANCH   5   6
ENDBRANCH   4   5
ENDBRANCH   2   4
ENDBRANCH   1   2
BRANCH   1  17
ATOM     17  C   UNL     1      -1.700  -6.744  -4.485  0.00  0.00    +0.328 C 
BRANCH  17  18
ATOM     18  C   UNL     1      -2.644  -7.916  -4.562  0.00  0.00    +0.255 C 
ATOM     19  O   UNL     1      -3.121  -8.378  -3.548  0.00  0.00    -0.272 OA
ATOM     20  N   UNL     1      -2.959  -8.449  -5.759  0.00  0.00    -0.281 N 
ATOM     21  H   UNL     1      -2.642  -8.031  -6.575  0.00  0.00    +0.155 HD
BRANCH  20  22
ATOM     22  C   UNL     1      -3.742  -9.607  -5.825  0.00  0.00    +0.052 A 
ATOM     23  C   UNL     1      -3.773 -10.489  -4.752  0.00  0.00    +0.037 A 
ATOM     24  C   UNL     1      -4.548 -11.630  -4.820  0.00  0.00    +0.057 A 
ATOM     25  C   UNL     1      -5.292 -11.897  -5.954  0.00  0.00    +0.014 A 
ATOM     26  C   UNL     1      -5.264 -11.022  -7.025  0.00  0.00    +0.022 A 
ATOM     27  C   UNL     1      -4.496  -9.875  -6.961  0.00  0.00    +0.062 A 
ATOM     28 CL   UNL     1      -4.466  -8.773  -8.303  0.00  0.00    -0.082 Cl
BRANCH  24  29
ATOM     29  C   UNL     1      -4.581 -12.586  -3.655  0.00  0.00    +0.417 C 
ATOM     30  F   UNL     1      -5.611 -12.221  -2.781  0.00  0.00    -0.166 F 
ATOM     31  F   UNL     1      -4.806 -13.885  -4.125  0.00  0.00    -0.166 F 
ATOM     32  F   UNL     1      -3.357 -12.541  -2.979  0.00  0.00    -0.166 F 
ENDBRANCH  24  29
ENDBRANCH  20  22
ENDBRANCH  17  18
ENDBRANCH   1  17
TORSDOF 9
