REMARK  Name = ZINC39774705
REMARK  10 active torsions:
REMARK  status: ('A' for Active; 'I' for Inactive)
REMARK    1  A    between atoms: C_1  and  C_2
REMARK    2  A    between atoms: C_5  and  C_36
REMARK    3  A    between atoms: N_8  and  S_10
REMARK    4  A    between atoms: S_10  and  C_13
REMARK    5  A    between atoms: C_17  and  C_19
REMARK    6  A    between atoms: N_24  and  N_25
REMARK    7  A    between atoms: C_26  and  C_27
REMARK    8  A    between atoms: C_30  and  O_35
REMARK    9  A    between atoms: C_31  and  O_33
REMARK   10  A    between atoms: O_33  and  C_34
REMARK                            x       y       z     vdW  Elec       q    Type
REMARK                         _______ _______ _______ _____ _____    ______ ____
ROOT
ATOM      1  C   UNL     1       4.836  -1.806  -2.812  0.00  0.00    +0.055 A 
ATOM      2  C   UNL     1       5.302  -0.711  -2.175  0.00  0.00    +0.075 A 
ATOM      3  S   UNL     1       6.393  -0.004  -3.398  0.00  0.00    -0.056 S 
ATOM      4  C   UNL     1       6.151  -1.223  -4.681  0.00  0.00    +0.192 A 
ATOM      5  N   UNL     1       5.261  -2.082  -4.081  0.00  0.00    -0.332 N 
ATOM      6  N   UNL     1       6.689  -1.286  -5.888  0.00  0.00    -0.124 NA
ATOM      7  H   UNL     1       4.939  -2.867  -4.551  0.00  0.00    +0.168 HD
ENDROOT
BRANCH   1  12
ATOM      8  C   UNL     1       2.547  -3.268  -0.217  0.00  0.00    +0.106 A 
ATOM      9  C   UNL     1       2.078  -4.392  -0.874  0.00  0.00    +0.028 A 
ATOM     10  C   UNL     1       2.503  -4.677  -2.160  0.00  0.00    +0.003 A 
ATOM     11  C   UNL     1       3.399  -3.841  -2.795  0.00  0.00    +0.010 A 
ATOM     12  C   UNL     1       3.876  -2.706  -2.138  0.00  0.00    +0.001 A 
ATOM     13  C   UNL     1       3.438  -2.421  -0.843  0.00  0.00    +0.038 A 
BRANCH   8  14
ATOM     14  S   UNL     1       1.999  -2.914   1.419  0.00  0.00    +0.061 S 
ATOM     15  O   UNL     1       2.998  -2.098   2.015  0.00  0.00    -0.153 OA
ATOM     16  O   UNL     1       1.587  -4.150   1.986  0.00  0.00    -0.153 OA
BRANCH  14  22
ATOM     17  C   UNL     1      -0.019   1.526   0.010  0.00  0.00    +0.009 C 
ATOM     18  C   UNL     1       0.002  -0.004   0.002  0.00  0.00    +0.002 C 
ATOM     19  C   UNL     1      -1.433  -0.534   0.015  0.00  0.00    +0.009 C 
ATOM     20  C   UNL     1      -1.414  -2.064  -0.027  0.00  0.00    +0.002 C 
ATOM     21  C   UNL     1      -0.692  -2.596   1.215  0.00  0.00    +0.112 C 
ATOM     22  N   UNL     1       0.639  -1.977   1.288  0.00  0.00    -0.176 NA
ATOM     23  C   UNL     1       0.742  -0.512   1.244  0.00  0.00    +0.112 C 
ATOM     24  C   UNL     1      -2.850  -2.592  -0.049  0.00  0.00    +0.009 C 
ENDBRANCH  14  22
ENDBRANCH   8  14
ENDBRANCH   1  12
BRANCH   6  25
ATOM     25  N   UNL     1       7.519  -0.375  -6.273  0.00  0.00    -0.155 NA
ATOM     26  C   UNL     1       8.050  -0.437  -7.465  0.00  0.00    +0.143 C 
BRANCH  26  27
ATOM     27  C   UNL     1       8.995   0.601  -7.904  0.00  0.00    -0.002 A 
ATOM     28  C   UNL     1       9.331   1.653  -7.044  0.00  0.00    +0.013 A 
ATOM     29  C   UNL     1      10.217   2.625  -7.457  0.00  0.00    +0.050 A 
ATOM     30  C   UNL     1      10.778   2.563  -8.725  0.00  0.00    +0.158 A 
ATOM     31  C   UNL     1      10.449   1.520  -9.587  0.00  0.00    +0.162 A 
ATOM     32  C   UNL     1       9.566   0.537  -9.179  0.00  0.00    +0.059 A 
BRANCH  31  33
ATOM     33  O   UNL     1      11.001   1.464 -10.829  0.00  0.00    -0.491 OA
ATOM     34  C   UNL     1      10.618   0.367 -11.661  0.00  0.00    +0.277 C 
ENDBRANCH  31  33
BRANCH  30  35
ATOM     35  O   UNL     1      11.652   3.525  -9.127  0.00  0.00    -0.503 OA
ATOM     36  H   UNL     1      12.576   3.326  -8.923  0.00  0.00    +0.292 HD
ENDBRANCH  30  35
ENDBRANCH  26  27
ENDBRANCH   6  25
TORSDOF 7
