REMARK  Name = ZINC44167782
REMARK  8 active torsions:
REMARK  status: ('A' for Active; 'I' for Inactive)
REMARK    1  A    between atoms: C_1  and  C_2
REMARK    2  A    between atoms: C_5  and  C_8
REMARK    3  A    between atoms: C_8  and  C_9
REMARK    4  A    between atoms: C_9  and  N_10
REMARK    5  A    between atoms: C_11  and  C_13
REMARK    6  A    between atoms: C_18  and  C_21
REMARK    7  A    between atoms: C_25  and  O_27
REMARK    8  A    between atoms: O_27  and  C_28
REMARK                            x       y       z     vdW  Elec       q    Type
REMARK                         _______ _______ _______ _____ _____    ______ ____
ROOT
ATOM      1  C   UNL     1       2.723  -8.397  -0.059  0.00  0.00    +0.027 C 
ATOM      2  C   UNL     1       2.122  -8.921   1.251  0.00  0.00    +0.062 C 
ATOM      3  S   UNL     1       3.089  -8.242   2.635  0.00  0.00    -0.163 S 
ATOM      4  C   UNL     1       4.802  -8.612   2.143  0.00  0.00    +0.058 C 
ATOM      5  C   UNL     1       5.002  -8.133   0.701  0.00  0.00    -0.030 C 
ATOM      6  N   UNL     1       4.104  -8.865  -0.193  0.00  0.00    +0.392 N 
ATOM      7  H   UNL     1       4.143  -9.848   0.030  0.00  0.00    -0.084 HD
ATOM      8  H   UNL     1       4.407  -8.731  -1.146  0.00  0.00    -0.084 HD
ENDROOT
BRANCH   5   9
ATOM      9  C   UNL     1       6.429  -8.379   0.285  0.00  0.00    -0.057 A 
ATOM     10  C   UNL     1       6.824  -9.641  -0.120  0.00  0.00    +0.002 A 
ATOM     11  C   UNL     1       8.133  -9.870  -0.501  0.00  0.00    +0.004 A 
ATOM     12  C   UNL     1       9.050  -8.837  -0.479  0.00  0.00    +0.045 A 
ATOM     13  C   UNL     1       8.657  -7.570  -0.074  0.00  0.00    +0.120 A 
ATOM     14  C   UNL     1       7.341  -7.342   0.303  0.00  0.00    +0.047 A 
BRANCH  13  15
ATOM     15  O   UNL     1       9.558  -6.553  -0.051  0.00  0.00    -0.495 OA
ATOM     16  C   UNL     1      10.893  -6.859  -0.458  0.00  0.00    +0.277 C 
ENDBRANCH  13  15
ENDBRANCH   5   9
BRANCH   1  18
ATOM     17  N   UNL     1       3.594  -6.201  -0.790  0.00  0.00    -0.316 N 
ATOM     18  C   UNL     1       2.703  -6.890  -0.050  0.00  0.00    +0.200 C 
ATOM     19  O   UNL     1       1.886  -6.298   0.622  0.00  0.00    -0.278 OA
ATOM     20  H   UNL     1       4.247  -6.674  -1.329  0.00  0.00    +0.149 HD
BRANCH  17  21
ATOM     21  C   UNL     1       3.575  -4.736  -0.782  0.00  0.00    +0.109 C 
BRANCH  21  22
ATOM     22  C   UNL     1       4.680  -4.207  -1.699  0.00  0.00    +0.054 C 
BRANCH  22  27
ATOM     23  C   UNL     1       4.608   1.572  -1.669  0.00  0.00    +0.044 C 
ATOM     24  C   UNL     1       4.626   0.065  -1.677  0.00  0.00    -0.050 A 
ATOM     25  C   UNL     1       5.397  -0.622  -0.757  0.00  0.00    +0.003 A 
ATOM     26  C   UNL     1       5.414  -2.004  -0.764  0.00  0.00    +0.004 A 
ATOM     27  C   UNL     1       4.660  -2.700  -1.691  0.00  0.00    -0.046 A 
ATOM     28  C   UNL     1       3.889  -2.013  -2.610  0.00  0.00    +0.004 A 
ATOM     29  C   UNL     1       3.868  -0.631  -2.600  0.00  0.00    +0.003 A 
ENDBRANCH  22  27
ENDBRANCH  21  22
ENDBRANCH  17  21
ENDBRANCH   1  18
TORSDOF 6
