REMARK  Name = ZINC21146223
REMARK  9 active torsions:
REMARK  status: ('A' for Active; 'I' for Inactive)
REMARK    1  A    between atoms: C_1  and  C_2
REMARK    2  A    between atoms: C_2  and  N_3
REMARK    3  A    between atoms: C_7  and  C_9
REMARK    4  A    between atoms: C_9  and  N_10
REMARK    5  A    between atoms: C_11  and  C_13
REMARK    6  A    between atoms: C_13  and  N_14
REMARK    7  A    between atoms: C_23  and  C_24
REMARK    8  A    between atoms: C_27  and  O_31
REMARK    9  A    between atoms: O_31  and  C_32
REMARK                            x       y       z     vdW  Elec       q    Type
REMARK                         _______ _______ _______ _____ _____    ______ ____
ROOT
ATOM      1  N   UNL     1       0.235   0.590   4.085  0.00  0.00    -0.253 N 
ATOM      2  C   UNL     1       1.025   1.656   4.537  0.00  0.00    +0.080 A 
ATOM      3  C   UNL     1       0.943   2.893   3.915  0.00  0.00    +0.027 A 
ATOM      4  C   UNL     1       1.722   3.943   4.363  0.00  0.00    +0.002 A 
ATOM      5  C   UNL     1       2.583   3.765   5.431  0.00  0.00    +0.004 A 
ATOM      6  C   UNL     1       2.671   2.535   6.056  0.00  0.00    +0.048 A 
ATOM      7  C   UNL     1       1.894   1.478   5.613  0.00  0.00    +0.150 A 
ATOM      8  O   UNL     1       1.977   0.263   6.223  0.00  0.00    -0.449 OA
ATOM      9  C   UNL     1       0.864  -0.528   6.139  0.00  0.00    +0.191 C 
ATOM     10  C   UNL     1       0.458  -1.289   7.181  0.00  0.00    +0.059 C 
ATOM     11  C   UNL     1       0.120  -0.513   4.863  0.00  0.00    +0.287 C 
ATOM     12  O   UNL     1      -0.566  -1.458   4.521  0.00  0.00    -0.266 OA
ENDROOT
BRANCH  10  13
ATOM     13  C   UNL     1      -0.837  -1.983   7.124  0.00  0.00    -0.020 A 
ATOM     14  C   UNL     1      -0.976  -3.257   7.686  0.00  0.00    +0.012 A 
ATOM     15  C   UNL     1      -2.191  -3.904   7.630  0.00  0.00    +0.047 A 
ATOM     16  C   UNL     1      -3.278  -3.293   7.017  0.00  0.00    +0.134 A 
ATOM     17  C   UNL     1      -3.146  -2.027   6.458  0.00  0.00    +0.060 A 
ATOM     18  C   UNL     1      -1.936  -1.370   6.513  0.00  0.00    +0.027 A 
ATOM     19 BR   UNL     1      -4.632  -1.203   5.628  0.00  0.00    -0.047 Br
BRANCH  16  20
ATOM     20  O   UNL     1      -4.474  -3.935   6.965  0.00  0.00    -0.494 OA
ATOM     21  C   UNL     1      -4.540  -5.233   7.559  0.00  0.00    +0.277 C 
ENDBRANCH  16  20
ENDBRANCH  10  13
BRANCH   1  22
ATOM     22  C   UNL     1      -0.458   0.670   2.797  0.00  0.00    +0.209 C 
BRANCH  22  24
ATOM     23  N   UNL     1       0.006   0.105   0.434  0.00  0.00    -0.316 N 
ATOM     24  C   UNL     1       0.437   0.131   1.711  0.00  0.00    +0.231 C 
ATOM     25  O   UNL     1       1.545  -0.278   1.986  0.00  0.00    -0.274 OA
ATOM     26  H   UNL     1      -0.999   0.477   0.185  0.00  0.00    +0.149 HD
BRANCH  23  27
ATOM     27  C   UNL     1       0.876  -0.418  -0.622  0.00  0.00    +0.089 C 
BRANCH  27  32
ATOM     28  N   UNL     1       1.051  -0.781  -3.066  0.00  0.00    +0.382 N 
ATOM     29  C   UNL     1       0.101  -1.023  -4.183  0.00  0.00    -0.078 C 
ATOM     30  C   UNL     1      -1.175  -1.562  -3.502  0.00  0.00    -0.020 C 
ATOM     31  C   UNL     1      -1.109  -1.036  -2.054  0.00  0.00    -0.016 C 
ATOM     32  C   UNL     1       0.202  -0.223  -1.982  0.00  0.00    -0.051 C 
ATOM     33  H   UNL     1       1.590  -1.689  -2.761  0.00  0.00    -0.081 HD
BRANCH  28  35
ATOM     34  C   UNL     1       3.045  -0.493  -4.457  0.00  0.00    -0.017 C 
ATOM     35  C   UNL     1       2.097   0.173  -3.458  0.00  0.00    -0.082 C 
ENDBRANCH  28  35
ENDBRANCH  27  32
ENDBRANCH  23  27
ENDBRANCH  22  24
ENDBRANCH   1  22
TORSDOF 7
