REMARK  Name = ZINC55051954
REMARK  6 active torsions:
REMARK  status: ('A' for Active; 'I' for Inactive)
REMARK    1  A    between atoms: C_1  and  O_2
REMARK    2  A    between atoms: O_2  and  C_3
REMARK    3  A    between atoms: C_6  and  C_9
REMARK    4  A    between atoms: C_17  and  C_19
REMARK    5  A    between atoms: C_19  and  S_20
REMARK    6  A    between atoms: S_20  and  C_21
REMARK                            x       y       z     vdW  Elec       q    Type
REMARK                         _______ _______ _______ _____ _____    ______ ____
ROOT
ATOM      1  C   UNL     1      -4.956  -2.616   0.035  0.00  0.00    +0.247 C 
ATOM      2  O   UNL     1      -5.981  -1.972   0.152  0.00  0.00    -0.270 OA
ATOM      3  N   UNL     1      -5.011  -3.958  -0.068  0.00  0.00    -0.295 N 
ATOM      4  C   UNL     1      -3.779  -4.759  -0.074  0.00  0.00    +0.127 C 
ATOM      5  C   UNL     1      -3.870  -5.808   1.042  0.00  0.00    +0.127 C 
ATOM      6  N   UNL     1      -5.163  -6.497   0.934  0.00  0.00    -0.298 N 
ATOM      7  C   UNL     1      -6.395  -5.696   0.940  0.00  0.00    +0.127 C 
ATOM      8  C   UNL     1      -6.304  -4.648  -0.170  0.00  0.00    +0.127 C 
ATOM      9  C   UNL     1      -5.218  -7.840   0.831  0.00  0.00    +0.226 C 
ATOM     10  O   UNL     1      -4.195  -8.490   0.826  0.00  0.00    -0.275 OA
ENDROOT
BRANCH   1  14
ATOM     11  C   UNL     1      -1.201  -0.633  -0.046  0.00  0.00    +0.120 A 
ATOM     12  C   UNL     1      -2.177  -0.233   0.859  0.00  0.00    +0.046 A 
ATOM     13  C   UNL     1      -3.396  -0.873   0.889  0.00  0.00    +0.016 A 
ATOM     14  C   UNL     1      -3.651  -1.926   0.007  0.00  0.00    +0.037 A 
ATOM     15  C   UNL     1      -2.667  -2.326  -0.902  0.00  0.00    +0.016 A 
ATOM     16  C   UNL     1      -1.453  -1.677  -0.929  0.00  0.00    +0.046 A 
BRANCH  11  18
ATOM     17  C   UNL     1       0.191   1.065   0.862  0.00  0.00    +0.277 C 
ATOM     18  O   UNL     1      -0.001   0.001  -0.072  0.00  0.00    -0.495 OA
ENDBRANCH  11  18
ENDBRANCH   1  14
BRANCH   9  19
ATOM     19  C   UNL     1      -6.552  -8.533   0.721  0.00  0.00    +0.173 C 
BRANCH  19  20
ATOM     20  S   UNL     1      -6.294 -10.324   0.597  0.00  0.00    -0.084 S 
BRANCH  20  21
ATOM     21  C   UNL     1      -7.924 -10.982   0.477  0.00  0.00    +0.123 C 
ATOM     22  N   UNL     1      -8.139 -12.113  -0.196  0.00  0.00    -0.382 N 
ATOM     23  N   UNL     1      -8.943 -10.350   1.060  0.00  0.00    -0.340 N 
ATOM     24  H   UNL     1      -7.397 -12.572  -0.620  0.00  0.00    +0.158 HD
ATOM     25  H   UNL     1      -8.787  -9.528   1.550  0.00  0.00    +0.144 HD
ATOM     26  H   UNL     1      -9.840 -10.712   0.994  0.00  0.00    +0.144 HD
ATOM     27  H   UNL     1      -9.036 -12.475  -0.262  0.00  0.00    +0.158 HD
ENDBRANCH  20  21
ENDBRANCH  19  20
ENDBRANCH   9  19
TORSDOF 5
