REMARK  Name = ZINC39980036
REMARK  9 active torsions:
REMARK  status: ('A' for Active; 'I' for Inactive)
REMARK    1  A    between atoms: C_1  and  C_2
REMARK    2  A    between atoms: C_2  and  C_3
REMARK    3  A    between atoms: C_2  and  C_4
REMARK    4  A    between atoms: C_2  and  C_5
REMARK    5  A    between atoms: C_10  and  C_12
REMARK    6  A    between atoms: C_12  and  S_13
REMARK    7  A    between atoms: S_13  and  C_14
REMARK    8  A    between atoms: C_18  and  C_24
REMARK    9  A    between atoms: N_20  and  C_21
REMARK                            x       y       z     vdW  Elec       q    Type
REMARK                         _______ _______ _______ _____ _____    ______ ____
ROOT
ATOM      1  C   UNL     1      -1.145  -6.133  -8.861  0.00  0.00    +0.078 C 
ATOM      2  N   UNL     1      -2.231  -5.162  -8.564  0.00  0.00    -0.261 NA
ATOM      3  N   UNL     1      -2.370  -4.422  -9.828  0.00  0.00    -0.264 NA
ATOM      4  C   UNL     1      -0.983  -4.282 -10.329  0.00  0.00    +0.086 C 
ATOM      5  N   UNL     1      -0.200  -5.377  -9.715  0.00  0.00    +0.414 N 
ATOM      6  H   UNL     1      -1.967  -4.545  -7.810  0.00  0.00    +0.140 HD
ATOM      7  H   UNL     1      -2.941  -4.932 -10.484  0.00  0.00    +0.139 HD
ATOM      8  H   UNL     1       0.546  -4.995  -9.152  0.00  0.00    -0.075 HD
ENDROOT
BRANCH   4   9
ATOM      9  C   UNL     1      -0.961  -4.411 -11.830  0.00  0.00    +0.106 A 
ATOM     10  C   UNL     1      -1.531  -5.399 -12.543  0.00  0.00    +0.044 A 
ATOM     11  C   UNL     1      -1.266  -5.127 -13.905  0.00  0.00    +0.041 A 
ATOM     12  C   UNL     1      -0.550  -3.989 -13.943  0.00  0.00    +0.195 A 
ATOM     13  O   UNL     1      -0.373  -3.557 -12.683  0.00  0.00    -0.468 OA
ENDBRANCH   4   9
BRANCH   5  14
ATOM     14  C   UNL     1       0.350  -6.253 -10.757  0.00  0.00    -0.062 C 
ATOM     15  C   UNL     1      -0.126  -7.707 -10.781  0.00  0.00    -0.017 C 
ATOM     16  C   UNL     1       1.292  -7.374 -10.313  0.00  0.00    -0.017 C 
ENDBRANCH   5  14
BRANCH   1  17
ATOM     17  S   UNL     1      -0.331  -6.663  -7.329  0.00  0.00    -0.150 S 
BRANCH  17  18
ATOM     18  C   UNL     1       0.234  -5.114  -6.573  0.00  0.00    +0.164 C 
BRANCH  18  24
ATOM     19  C   UNL     1       3.229  -4.272  -1.386  0.00  0.00    +0.056 A 
ATOM     20  C   UNL     1       3.231  -5.610  -1.167  0.00  0.00    +0.072 A 
ATOM     21  S   UNL     1       2.363  -6.186  -2.616  0.00  0.00    -0.060 S 
ATOM     22  C   UNL     1       2.094  -4.689  -3.337  0.00  0.00    +0.165 A 
ATOM     23  N   UNL     1       1.445  -4.411  -4.534  0.00  0.00    -0.264 N 
ATOM     24  C   UNL     1       0.937  -5.416  -5.275  0.00  0.00    +0.228 C 
ATOM     25  O   UNL     1       1.046  -6.563  -4.897  0.00  0.00    -0.275 OA
ATOM     26  N   UNL     1       2.642  -3.846  -2.489  0.00  0.00    -0.229 NA
ATOM     27  H   UNL     1       1.358  -3.494  -4.837  0.00  0.00    +0.157 HD
BRANCH  19  29
ATOM     28  C   UNL     1       5.387  -3.382  -0.548  0.00  0.00    +0.017 C 
ATOM     29  C   UNL     1       3.864  -3.314  -0.411  0.00  0.00    +0.005 C 
ATOM     30  C   UNL     1       3.463  -3.696   1.015  0.00  0.00    +0.017 C 
ATOM     31  C   UNL     1       3.388  -1.892  -0.712  0.00  0.00    +0.017 C 
ENDBRANCH  19  29
ENDBRANCH  18  24
ENDBRANCH  17  18
ENDBRANCH   1  17
TORSDOF 6
