REMARK  Name = ZINC14542520
REMARK  13 active torsions:
REMARK  status: ('A' for Active; 'I' for Inactive)
REMARK    1  A    between atoms: C_1  and  C_2
REMARK    2  A    between atoms: C_2  and  C_3
REMARK    3  A    between atoms: C_2  and  C_4
REMARK    4  A    between atoms: C_2  and  N_5
REMARK    5  A    between atoms: N_5  and  S_6
REMARK    6  A    between atoms: S_6  and  C_9
REMARK    7  A    between atoms: C_11  and  C_24
REMARK    8  A    between atoms: C_13  and  N_15
REMARK    9  A    between atoms: N_15  and  C_16
REMARK   10  A    between atoms: C_16  and  C_17
REMARK   11  A    between atoms: N_26  and  C_27
REMARK   12  A    between atoms: C_27  and  C_28
REMARK   13  A    between atoms: C_34  and  N_69
REMARK                            x       y       z     vdW  Elec       q    Type
REMARK                         _______ _______ _______ _____ _____    ______ ____
ROOT
ATOM      1  C   UNL     1       1.722   7.478   3.064  0.00  0.00    +0.108 A 
ATOM      2  C   UNL     1       2.142   8.472   2.203  0.00  0.00    +0.041 A 
ATOM      3  C   UNL     1       1.798   8.417   0.852  0.00  0.00    +0.040 A 
ATOM      4  C   UNL     1       1.029   7.355   0.375  0.00  0.00    +0.036 A 
ATOM      5  C   UNL     1       0.611   6.362   1.248  0.00  0.00    +0.030 A 
ATOM      6  C   UNL     1       0.955   6.429   2.593  0.00  0.00    +0.051 A 
ENDROOT
BRANCH   3   7
ATOM      7  C   UNL     1       2.248   9.480  -0.072  0.00  0.00    +0.244 C 
ATOM      8  O   UNL     1       2.918  10.404   0.345  0.00  0.00    -0.270 OA
ATOM      9  N   UNL     1       1.915   9.424  -1.377  0.00  0.00    -0.311 N 
ATOM     10  H   UNL     1       1.380   8.687  -1.710  0.00  0.00    +0.149 HD
BRANCH   9  11
ATOM     11  C   UNL     1       2.361  10.477  -2.293  0.00  0.00    +0.106 C 
BRANCH  11  12
ATOM     12  C   UNL     1       1.851  10.177  -3.703  0.00  0.00    -0.011 C 
ATOM     13  C   UNL     1       2.213  11.335  -4.636  0.00  0.00    +0.001 C 
ATOM     14  C   UNL     1       1.753  11.000  -6.057  0.00  0.00    -0.018 C 
ATOM     15  C   UNL     1       2.406   9.690  -6.504  0.00  0.00    -0.079 C 
ATOM     16  C   UNL     1       2.502   8.891  -4.218  0.00  0.00    -0.074 C 
ATOM     17  C   UNL     1       2.524   7.314  -6.055  0.00  0.00    -0.096 C 
ATOM     18  N   UNL     1       1.999   8.611  -5.580  0.00  0.00    +0.378 N 
ATOM     19  H   UNL     1       0.973   8.565  -5.554  0.00  0.00    -0.082 HD
ENDBRANCH  11  12
ENDBRANCH   9  11
ENDBRANCH   3   7
BRANCH   1  20
ATOM     20  S   UNL     1       2.158   7.551   4.769  0.00  0.00    +0.059 S 
ATOM     21  O   UNL     1       2.425   6.216   5.177  0.00  0.00    -0.153 OA
ATOM     22  O   UNL     1       3.115   8.593   4.900  0.00  0.00    -0.153 OA
BRANCH  20  23
ATOM     23  N   UNL     1       0.810   8.039   5.599  0.00  0.00    -0.185 NA
ATOM     24  H   UNL     1       0.372   7.429   6.213  0.00  0.00    +0.149 HD
BRANCH  23  26
ATOM     25  C   UNL     1      -0.049   9.602   3.926  0.00  0.00    +0.029 C 
ATOM     26  C   UNL     1       0.280   9.390   5.405  0.00  0.00    +0.032 C 
ATOM     27  C   UNL     1      -0.991   9.565   6.239  0.00  0.00    +0.029 C 
ATOM     28  C   UNL     1       1.325  10.417   5.847  0.00  0.00    +0.029 C 
ENDBRANCH  23  26
ENDBRANCH  20  23
ENDBRANCH   1  20
BRANCH   5  29
ATOM     29  N   UNL     1      -0.160   5.297   0.776  0.00  0.00    -0.340 N 
ATOM     30  H   UNL     1      -0.452   4.602   1.386  0.00  0.00    +0.146 HD
BRANCH  29  31
ATOM     31  C   UNL     1      -0.527   5.229  -0.641  0.00  0.00    +0.139 C 
BRANCH  31  32
ATOM     32  C   UNL     1      -1.353   3.993  -0.887  0.00  0.00    +0.005 A 
ATOM     33  C   UNL     1      -2.718   4.100  -1.079  0.00  0.00    +0.008 A 
ATOM     34  C   UNL     1      -3.475   2.966  -1.305  0.00  0.00    +0.000 A 
ATOM     35  C   UNL     1      -2.869   1.724  -1.341  0.00  0.00    +0.003 A 
ATOM     36  C   UNL     1      -1.505   1.615  -1.150  0.00  0.00    +0.038 A 
ATOM     37  C   UNL     1      -0.745   2.750  -0.923  0.00  0.00    +0.128 A 
ATOM     38  F   UNL     1       0.589   2.644  -0.736  0.00  0.00    -0.205 F 
ENDBRANCH  31  32
ENDBRANCH  29  31
ENDBRANCH   5  29
TORSDOF 9
