REMARK  Name = ZINC49532582
REMARK  8 active torsions:
REMARK  status: ('A' for Active; 'I' for Inactive)
REMARK    1  A    between atoms: C_1  and  C_2
REMARK    2  A    between atoms: C_2  and  C_3
REMARK    3  A    between atoms: C_3  and  C_5
REMARK    4  A    between atoms: C_3  and  N_10
REMARK    5  A    between atoms: N_10  and  S_11
REMARK    6  A    between atoms: S_11  and  C_14
REMARK    7  A    between atoms: C_17  and  C_19
REMARK    8  A    between atoms: C_19  and  N_20
REMARK                            x       y       z     vdW  Elec       q    Type
REMARK                         _______ _______ _______ _____ _____    ______ ____
ROOT
ATOM      1  S   UNL     1       0.507   1.332   3.127  0.00  0.00    +0.065 S 
ATOM      2  O   UNL     1      -0.343   1.462   4.259  0.00  0.00    -0.153 OA
ATOM      3  O   UNL     1       1.924   1.391   3.228  0.00  0.00    -0.153 OA
ENDROOT
BRANCH   1   4
ATOM      4  C   UNL     1       0.030   2.592   1.991  0.00  0.00    +0.143 A 
ATOM      5  C   UNL     1      -1.134   3.284   1.923  0.00  0.00    +0.036 A 
ATOM      6  C   UNL     1      -1.289   4.238   0.936  0.00  0.00    +0.011 A 
ATOM      7  C   UNL     1      -0.273   4.455   0.065  0.00  0.00    -0.026 A 
ATOM      8  S   UNL     1       0.956   3.293   0.636  0.00  0.00    -0.075 S 
BRANCH   7   9
ATOM      9  C   UNL     1      -0.199   5.427  -1.084  0.00  0.00    -0.043 C 
BRANCH   9  10
ATOM     10  N   UNL     1       0.347   6.705  -0.609  0.00  0.00    +0.381 N 
ATOM     11  H   UNL     1      -0.252   7.080   0.111  0.00  0.00    -0.090 HD
ATOM     12  H   UNL     1       1.272   6.557  -0.234  0.00  0.00    -0.090 HD
ATOM     13  H   UNL     1       0.397   7.356  -1.379  0.00  0.00    -0.090 HD
ENDBRANCH   9  10
ENDBRANCH   7   9
ENDBRANCH   1   4
BRANCH   1  14
ATOM     14  N   UNL     1       0.143  -0.123   2.427  0.00  0.00    -0.182 NA
ATOM     15  H   UNL     1      -0.536  -0.694   2.819  0.00  0.00    +0.149 HD
BRANCH  14  16
ATOM     16  C   UNL     1       0.846  -0.548   1.213  0.00  0.00    +0.113 C 
BRANCH  16  17
ATOM     17  C   UNL     1       1.998  -1.444   1.588  0.00  0.00    +0.008 A 
ATOM     18  C   UNL     1       3.250  -1.487   1.070  0.00  0.00    +0.013 A 
ATOM     19  C   UNL     1       4.154  -2.402   1.576  0.00  0.00    +0.008 A 
ATOM     20  C   UNL     1       3.762  -3.230   2.575  0.00  0.00    +0.045 A 
ATOM     21  S   UNL     1       2.071  -2.720   2.834  0.00  0.00    -0.100 S 
ENDBRANCH  16  17
BRANCH  16  23
ATOM     22  C   UNL     1      -1.240  -0.374  -0.152  0.00  0.00    +0.006 C 
ATOM     23  C   UNL     1      -0.121  -1.312   0.306  0.00  0.00    +0.022 C 
ENDBRANCH  16  23
ENDBRANCH  14  16
ENDBRANCH   1  14
TORSDOF 7
