REMARK  Name = ZINC04261216
REMARK  10 active torsions:
REMARK  status: ('A' for Active; 'I' for Inactive)
REMARK    1  A    between atoms: C_1  and  C_2
REMARK    2  A    between atoms: C_5  and  C_8
REMARK    3  A    between atoms: C_8  and  O_10
REMARK    4  A    between atoms: O_10  and  C_11
REMARK    5  A    between atoms: C_16  and  C_17
REMARK    6  A    between atoms: N_18  and  N_19
REMARK    7  A    between atoms: C_20  and  C_22
REMARK    8  A    between atoms: C_22  and  O_23
REMARK    9  A    between atoms: O_23  and  C_24
REMARK   10  A    between atoms: C_29  and  N_30
REMARK                            x       y       z     vdW  Elec       q    Type
REMARK                         _______ _______ _______ _____ _____    ______ ____
ROOT
ATOM      1  C   UNL     1       1.282   3.296  -0.102  0.00  0.00    +0.141 A 
ATOM      2  C   UNL     1       2.497   3.959  -0.168  0.00  0.00    +0.048 A 
ATOM      3  C   UNL     1       3.679   3.247  -0.109  0.00  0.00    +0.019 A 
ATOM      4  C   UNL     1       3.660   1.867   0.021  0.00  0.00    +0.019 A 
ATOM      5  C   UNL     1       2.459   1.192   0.094  0.00  0.00    +0.028 A 
ATOM      6  C   UNL     1       1.258   1.902   0.036  0.00  0.00    +0.038 A 
ATOM      7 BR   UNL     1       5.287   0.906   0.101  0.00  0.00    -0.050 Br
ENDROOT
BRANCH   6   8
ATOM      8  C   UNL     1      -0.029   1.188   0.113  0.00  0.00    +0.142 C 
ATOM      9  N   UNL     1      -1.141   1.856   0.147  0.00  0.00    -0.188 NA
BRANCH   9  10
ATOM     10  N   UNL     1      -2.358   1.183   0.322  0.00  0.00    -0.204 N 
ATOM     11  C   UNL     1      -3.520   1.862   0.254  0.00  0.00    +0.270 C 
ATOM     12  O   UNL     1      -3.519   3.037  -0.051  0.00  0.00    -0.270 OA
ATOM     13  H   UNL     1      -2.364   0.228   0.492  0.00  0.00    +0.177 HD
BRANCH  11  14
ATOM     14  C   UNL     1      -4.820   1.163   0.555  0.00  0.00    +0.326 C 
BRANCH  14  15
ATOM     15  O   UNL     1      -5.901   2.087   0.416  0.00  0.00    -0.480 OA
BRANCH  15  16
ATOM     16  C   UNL     1      -7.153   1.614   0.654  0.00  0.00    +0.151 A 
ATOM     17  C   UNL     1      -7.337   0.285   1.010  0.00  0.00    +0.048 A 
ATOM     18  C   UNL     1      -8.609  -0.193   1.256  0.00  0.00    +0.004 A 
ATOM     19  C   UNL     1      -9.700   0.649   1.138  0.00  0.00    +0.002 A 
ATOM     20  C   UNL     1      -9.520   1.972   0.780  0.00  0.00    +0.036 A 
ATOM     21  C   UNL     1      -8.248   2.456   0.537  0.00  0.00    +0.168 A 
BRANCH  21  22
ATOM     22  N   UNL     1      -8.056   3.873   0.153  0.00  0.00    +0.060 N 
ATOM     23  O   UNL     1      -9.018   4.612   0.050  0.00  0.00    -0.126 OA
ATOM     24  O   UNL     1      -6.935   4.299  -0.061  0.00  0.00    -0.126 OA
ENDBRANCH  21  22
ENDBRANCH  15  16
ENDBRANCH  14  15
ENDBRANCH  11  14
ENDBRANCH   9  10
ENDBRANCH   6   8
BRANCH   1  25
ATOM     25  O   UNL     1       0.119   3.996  -0.165  0.00  0.00    -0.422 OA
BRANCH  25  26
ATOM     26  C   UNL     1      -0.412   4.407   1.003  0.00  0.00    +0.344 C 
ATOM     27  O   UNL     1       0.088   4.058   2.054  0.00  0.00    -0.245 OA
BRANCH  26  32
ATOM     28  C   UNL     1      -5.049   7.812   1.014  0.00  0.00    +0.044 C 
ATOM     29  C   UNL     1      -3.834   6.920   1.011  0.00  0.00    -0.050 A 
ATOM     30  C   UNL     1      -3.210   6.604   2.204  0.00  0.00    +0.004 A 
ATOM     31  C   UNL     1      -2.098   5.787   2.209  0.00  0.00    +0.015 A 
ATOM     32  C   UNL     1      -1.603   5.280   1.006  0.00  0.00    +0.059 A 
ATOM     33  C   UNL     1      -2.235   5.608  -0.195  0.00  0.00    +0.015 A 
ATOM     34  C   UNL     1      -3.349   6.421  -0.185  0.00  0.00    +0.004 A 
ENDBRANCH  26  32
ENDBRANCH  25  26
ENDBRANCH   1  25
TORSDOF 9
