REMARK  Name = ZINC63807766
REMARK  6 active torsions:
REMARK  status: ('A' for Active; 'I' for Inactive)
REMARK    1  A    between atoms: C_1  and  C_2
REMARK    2  A    between atoms: C_2  and  C_3
REMARK    3  A    between atoms: C_3  and  C_4
REMARK    4  A    between atoms: C_9  and  C_11
REMARK    5  A    between atoms: C_14  and  C_17
REMARK    6  A    between atoms: C_17  and  N_18
REMARK                            x       y       z     vdW  Elec       q    Type
REMARK                         _______ _______ _______ _____ _____    ______ ____
ROOT
ATOM      1  C   UNL     1       0.461  -8.343   1.423  0.00  0.00    +0.075 C 
ATOM      2  C   UNL     1       0.365  -8.615   2.926  0.00  0.00    +0.013 C 
ATOM      3  C   UNL     1      -0.023 -10.077   3.155  0.00  0.00    +0.005 C 
ATOM      4  C   UNL     1       1.039 -10.989   2.539  0.00  0.00    +0.004 C 
ATOM      5  C   UNL     1       1.135 -10.717   1.036  0.00  0.00    +0.005 C 
ATOM      6  C   UNL     1       1.523  -9.255   0.806  0.00  0.00    +0.013 C 
ENDROOT
BRANCH   1  12
ATOM      7  C   UNL     1       0.762  -2.018   1.233  0.00  0.00    +0.104 A 
ATOM      8  N   UNL     1       1.648  -2.848   0.720  0.00  0.00    -0.145 NA
ATOM      9  N   UNL     1       1.460  -4.093   0.832  0.00  0.00    -0.126 NA
ATOM     10  C   UNL     1       0.404  -4.586   1.448  0.00  0.00    +0.188 A 
ATOM     11  N   UNL     1       0.051  -5.915   1.657  0.00  0.00    -0.263 N 
ATOM     12  C   UNL     1       0.844  -6.903   1.197  0.00  0.00    +0.222 C 
ATOM     13  O   UNL     1       1.865  -6.633   0.601  0.00  0.00    -0.275 OA
ATOM     14  S   UNL     1      -0.403  -3.184   1.924  0.00  0.00    -0.035 S 
ATOM     15  H   UNL     1      -0.766  -6.130   2.134  0.00  0.00    +0.157 HD
BRANCH   7  16
ATOM     16  C   UNL     1       0.742  -0.511   1.242  0.00  0.00    +0.064 C 
BRANCH  16  18
ATOM     17  C   UNL     1      -0.019   1.526   0.010  0.00  0.00    +0.004 C 
ATOM     18  C   UNL     1       0.002  -0.004   0.002  0.00  0.00    +0.003 C 
ENDBRANCH  16  18
ENDBRANCH   7  16
ENDBRANCH   1  12
BRANCH   4  19
ATOM     19  C   UNL     1       0.650 -12.451   2.768  0.00  0.00    +0.105 C 
BRANCH  19  20
ATOM     20  N   UNL     1       1.726 -13.326   2.283  0.00  0.00    -0.243 NA
ATOM     21  C   UNL     1       1.353 -14.753   2.421  0.00  0.00    +0.168 C 
ATOM     22  N   UNL     1       2.631 -15.423   2.782  0.00  0.00    -0.335 NA
ATOM     23  N   UNL     1       3.279 -14.435   3.659  0.00  0.00    +0.408 N 
ATOM     24  N   UNL     1       2.947 -13.138   3.065  0.00  0.00    -0.281 NA
ATOM     25  H   UNL     1       2.459 -16.287   3.275  0.00  0.00    +0.105 HD
ATOM     26  H   UNL     1       2.908 -14.499   4.595  0.00  0.00    -0.032 HD
ATOM     27  H   UNL     1       2.815 -12.437   3.779  0.00  0.00    +0.121 HD
ATOM     28  H   UNL     1       4.279 -14.574   3.666  0.00  0.00    -0.032 HD
ENDBRANCH  19  20
ENDBRANCH   4  19
TORSDOF 5
