REMARK  Name = ZINC49096365
REMARK  9 active torsions:
REMARK  status: ('A' for Active; 'I' for Inactive)
REMARK    1  A    between atoms: C_1  and  C_2
REMARK    2  A    between atoms: C_2  and  C_4
REMARK    3  A    between atoms: C_2  and  N_8
REMARK    4  A    between atoms: N_6  and  C_7
REMARK    5  A    between atoms: N_8  and  C_9
REMARK    6  A    between atoms: N_12  and  C_15
REMARK    7  A    between atoms: C_15  and  C_16
REMARK    8  A    between atoms: N_18  and  C_19
REMARK    9  A    between atoms: N_18  and  C_20
REMARK                            x       y       z     vdW  Elec       q    Type
REMARK                         _______ _______ _______ _____ _____    ______ ____
ROOT
ATOM      1  C   UNL     1       2.252  -0.194   1.083  0.00  0.00    -0.074 C 
ATOM      2  C   UNL     1       2.475   1.302   1.329  0.00  0.00    -0.034 C 
ATOM      3  C   UNL     1       3.972   1.608   1.250  0.00  0.00    -0.080 C 
ATOM      4  N   UNL     1       4.689   0.831   2.269  0.00  0.00    +0.385 N 
ATOM      5  C   UNL     1       4.538  -0.604   1.997  0.00  0.00    -0.080 C 
ATOM      6  C   UNL     1       3.063  -0.995   2.105  0.00  0.00    -0.034 C 
ATOM      7  H   UNL     1       4.309   1.042   3.180  0.00  0.00    -0.081 HD
ENDROOT
BRANCH   1   8
ATOM      8  N   UNL     1       0.825  -0.509   1.233  0.00  0.00    +0.388 N 
ATOM      9  H   UNL     1       0.283   0.090   0.628  0.00  0.00    -0.084 HD
ATOM     10  H   UNL     1       0.546  -0.360   2.191  0.00  0.00    -0.084 HD
BRANCH   8  12
ATOM     11  C   UNL     1       0.875  -2.105  -0.623  0.00  0.00    -0.004 C 
ATOM     12  C   UNL     1       0.592  -1.912   0.868  0.00  0.00    +0.013 C 
BRANCH  12  13
ATOM     13  C   UNL     1      -0.841  -2.276   1.159  0.00  0.00    +0.199 C 
ATOM     14  O   UNL     1      -1.594  -1.448   1.625  0.00  0.00    -0.278 OA
ATOM     15  N   UNL     1      -1.285  -3.523   0.902  0.00  0.00    -0.320 N 
ATOM     16  C   UNL     1      -2.678  -3.877   1.185  0.00  0.00    +0.128 C 
ATOM     17  H   UNL     1      -0.682  -4.185   0.530  0.00  0.00    +0.148 HD
ENDBRANCH  12  13
ENDBRANCH   8  12
ENDBRANCH   1   8
BRANCH   4  18
ATOM     18  C   UNL     1       6.114   1.187   2.241  0.00  0.00    +0.019 C 
BRANCH  18  19
ATOM     19  C   UNL     1       6.829   0.483   3.365  0.00  0.00    +0.199 C 
ATOM     20  O   UNL     1       6.213  -0.244   4.115  0.00  0.00    -0.278 OA
ATOM     21  N   UNL     1       8.154   0.661   3.536  0.00  0.00    -0.309 N 
ATOM     22  C   UNL     1       8.850  -0.024   4.629  0.00  0.00    +0.131 C 
ATOM     23  C   UNL     1       8.899   1.538   2.630  0.00  0.00    +0.131 C 
ENDBRANCH  18  19
ENDBRANCH   4  18
TORSDOF 5
