REMARK  Name = ZINC13281210
REMARK  7 active torsions:
REMARK  status: ('A' for Active; 'I' for Inactive)
REMARK    1  A    between atoms: C_1  and  C_2
REMARK    2  A    between atoms: C_5  and  N_9
REMARK    3  A    between atoms: C_6  and  C_8
REMARK    4  A    between atoms: C_10  and  C_28
REMARK    5  A    between atoms: C_12  and  C_15
REMARK    6  A    between atoms: C_13  and  C_14
REMARK    7  A    between atoms: C_25  and  C_27
REMARK                            x       y       z     vdW  Elec       q    Type
REMARK                         _______ _______ _______ _____ _____    ______ ____
ROOT
ATOM      1  N   UNL     1      -0.244  -4.387  -0.570  0.00  0.00    -0.317 N 
ATOM      2  C   UNL     1      -1.253  -5.304  -0.678  0.00  0.00    +0.022 A 
ATOM      3  C   UNL     1      -0.749  -6.538  -0.509  0.00  0.00    +0.031 A 
ATOM      4  C   UNL     1       0.693  -6.370  -0.277  0.00  0.00    -0.003 A 
ATOM      5  C   UNL     1       0.930  -5.006  -0.335  0.00  0.00    +0.028 A 
ATOM      6  C   UNL     1       2.267  -4.333  -0.162  0.00  0.00    +0.064 C 
ATOM      7  C   UNL     1      -2.701  -4.982  -0.945  0.00  0.00    +0.064 C 
ENDROOT
BRANCH   4   8
ATOM      8  C   UNL     1       1.675  -7.425  -0.039  0.00  0.00    +0.026 C 
ATOM      9  C   UNL     1       1.308  -8.569   0.640  0.00  0.00    +0.084 C 
ATOM     10  C   UNL     1       2.219  -9.746   0.763  0.00  0.00    +0.176 C 
ATOM     11  N   UNL     1       3.523  -9.652   0.801  0.00  0.00    -0.280 NA
ATOM     12  N   UNL     1       1.534 -10.952   0.833  0.00  0.00    -0.142 N 
ATOM     13  C   UNL     1       0.227 -11.006   1.246  0.00  0.00    +0.168 C 
ATOM     14  N   UNL     1      -0.518  -9.933   1.501  0.00  0.00    -0.156 NA
ATOM     15  C   UNL     1      -0.013  -8.704   1.300  0.00  0.00    +0.273 C 
ATOM     16  O   UNL     1      -0.632  -7.713   1.652  0.00  0.00    -0.268 OA
ATOM     17  C   UNL     1      -0.113 -12.365   1.313  0.00  0.00    +0.091 C 
ATOM     18  C   UNL     1       0.946 -13.091   0.893  0.00  0.00    +0.134 C 
ATOM     19  O   UNL     1       1.947 -12.262   0.552  0.00  0.00    -0.375 OA
ATOM     20  C   UNL     1       0.998 -14.595   0.819  0.00  0.00    +0.089 C 
ATOM     21  H   UNL     1       3.948  -8.781   0.749  0.00  0.00    +0.188 HD
ENDBRANCH   4   8
BRANCH   1  26
ATOM     22  C   UNL     1      -0.905   1.228  -1.062  0.00  0.00    +0.044 C 
ATOM     23  C   UNL     1      -0.730  -0.263  -0.931  0.00  0.00    -0.050 A 
ATOM     24  C   UNL     1      -0.456  -1.027  -2.051  0.00  0.00    +0.005 A 
ATOM     25  C   UNL     1      -0.294  -2.393  -1.935  0.00  0.00    +0.026 A 
ATOM     26  C   UNL     1      -0.407  -3.001  -0.691  0.00  0.00    +0.049 A 
ATOM     27  C   UNL     1      -0.683  -2.232   0.431  0.00  0.00    -0.026 A 
ATOM     28  C   UNL     1      -0.838  -0.865   0.309  0.00  0.00    +0.008 A 
ATOM     29  C   UNL     1      -0.806  -2.887   1.783  0.00  0.00    +0.046 C 
ENDBRANCH   1  26
TORSDOF 2
