REMARK  Name = ZINC39380071
REMARK  9 active torsions:
REMARK  status: ('A' for Active; 'I' for Inactive)
REMARK    1  A    between atoms: C_1  and  C_2
REMARK    2  A    between atoms: C_7  and  C_8
REMARK    3  A    between atoms: C_10  and  C_22
REMARK    4  A    between atoms: N_12  and  C_14
REMARK    5  A    between atoms: C_22  and  N_23
REMARK    6  A    between atoms: N_23  and  C_24
REMARK    7  A    between atoms: C_24  and  C_25
REMARK    8  A    between atoms: C_26  and  C_32
REMARK    9  A    between atoms: C_29  and  C_31
REMARK                            x       y       z     vdW  Elec       q    Type
REMARK                         _______ _______ _______ _____ _____    ______ ____
ROOT
ATOM      1  C   UNL     1       0.025   0.045   2.504  0.00  0.00    +0.129 C 
ATOM      2  C   UNL     1       1.426   0.502   2.851  0.00  0.00    -0.049 C 
ATOM      3  C   UNL     1       1.746  -0.081   3.989  0.00  0.00    +0.093 C 
ATOM      4  N   UNL     1       0.724  -0.882   4.458  0.00  0.00    -0.239 N 
ATOM      5  N   UNL     1      -0.352  -0.855   3.613  0.00  0.00    -0.225 NA
ATOM      6  H   UNL     1      -1.177  -0.520   4.086  0.00  0.00    +0.146 HD
ENDROOT
BRANCH   4   7
ATOM      7  C   UNL     1       0.780  -1.625   5.644  0.00  0.00    +0.085 A 
ATOM      8  C   UNL     1       0.447  -1.030   6.853  0.00  0.00    +0.030 A 
ATOM      9  C   UNL     1       0.502  -1.764   8.022  0.00  0.00    +0.040 A 
ATOM     10  C   UNL     1       0.890  -3.093   7.989  0.00  0.00    +0.126 A 
ATOM     11  C   UNL     1       1.223  -3.690   6.785  0.00  0.00    +0.078 A 
ATOM     12  C   UNL     1       1.164  -2.961   5.612  0.00  0.00    +0.149 A 
ATOM     13  F   UNL     1       1.484  -3.544   4.436  0.00  0.00    -0.203 F 
ATOM     14  F   UNL     1       0.943  -3.808   9.134  0.00  0.00    -0.205 F 
ENDBRANCH   4   7
BRANCH   1  21
ATOM     15  C   UNL     1      -0.018   1.503   0.010  0.00  0.00    +0.044 C 
ATOM     16  C   UNL     1       0.002  -0.004   0.002  0.00  0.00    -0.045 A 
ATOM     17  C   UNL     1       0.006  -0.689  -1.199  0.00  0.00    +0.004 A 
ATOM     18  C   UNL     1       0.025  -2.071  -1.207  0.00  0.00    +0.000 A 
ATOM     19  C   UNL     1       0.040  -2.768  -0.013  0.00  0.00    +0.000 A 
ATOM     20  C   UNL     1       0.037  -2.084   1.188  0.00  0.00    +0.006 A 
ATOM     21  C   UNL     1       0.023  -0.702   1.195  0.00  0.00    -0.022 A 
ENDBRANCH   1  21
BRANCH   2  22
ATOM     22  C   UNL     1       2.289   1.441   2.048  0.00  0.00    -0.048 C 
BRANCH  22  23
ATOM     23  N   UNL     1       3.003   0.684   1.011  0.00  0.00    +0.384 N 
ATOM     24  H   UNL     1       3.583  -0.017   1.446  0.00  0.00    -0.085 HD
ATOM     25  H   UNL     1       2.335   0.237   0.401  0.00  0.00    -0.085 HD
BRANCH  23  26
ATOM     26  C   UNL     1       3.845   1.600   0.229  0.00  0.00    -0.047 C 
BRANCH  26  27
ATOM     27  C   UNL     1       4.577   0.824  -0.835  0.00  0.00    -0.038 C 
ATOM     28  C   UNL     1       4.226   0.644  -2.110  0.00  0.00    +0.060 C 
ATOM     29  N   UNL     1       5.139  -0.114  -2.757  0.00  0.00    -0.159 NA
ATOM     30  N   UNL     1       6.089  -0.478  -2.060  0.00  0.00    -0.180 NA
ATOM     31  C   UNL     1       5.889   0.070  -0.707  0.00  0.00    +0.151 C 
ATOM     32  C   UNL     1       5.767  -1.059   0.319  0.00  0.00    +0.039 C 
ATOM     33  C   UNL     1       2.981   1.209  -2.743  0.00  0.00    +0.067 C 
ENDBRANCH  26  27
ENDBRANCH  23  26
ENDBRANCH  22  23
ENDBRANCH   2  22
TORSDOF 6
