REMARK  Name = ZINC19232585
REMARK  4 active torsions:
REMARK  status: ('A' for Active; 'I' for Inactive)
REMARK    1  A    between atoms: C_2  and  N_22
REMARK    2  A    between atoms: C_6  and  S_7
REMARK    3  A    between atoms: S_7  and  N_10
REMARK    4  A    between atoms: N_10  and  C_11
REMARK                            x       y       z     vdW  Elec       q    Type
REMARK                         _______ _______ _______ _____ _____    ______ ____
ROOT
ATOM      1  S   UNL     1      -1.370   1.990  -0.158  0.00  0.00    +0.061 S 
ATOM      2  O   UNL     1      -1.237   2.772  -1.337  0.00  0.00    -0.153 OA
ATOM      3  O   UNL     1      -2.453   1.092   0.042  0.00  0.00    -0.153 OA
ENDROOT
BRANCH   1   9
ATOM      4  C   UNL     1      -1.326   4.479   0.959  0.00  0.00    +0.057 A 
ATOM      5  C   UNL     1      -1.345   5.369   2.024  0.00  0.00    +0.062 A 
ATOM      6  C   UNL     1      -1.436   4.889   3.326  0.00  0.00    +0.147 A 
ATOM      7  C   UNL     1      -1.506   3.528   3.556  0.00  0.00    +0.080 A 
ATOM      8  C   UNL     1      -1.491   2.643   2.491  0.00  0.00    +0.152 A 
ATOM      9  C   UNL     1      -1.396   3.119   1.194  0.00  0.00    +0.142 A 
ATOM     10  F   UNL     1      -1.565   1.313   2.717  0.00  0.00    -0.203 F 
ATOM     11  F   UNL     1      -1.456   5.753   4.365  0.00  0.00    -0.203 F 
BRANCH   5  12
ATOM     12  N   UNL     1      -1.274   6.747   1.788  0.00  0.00    -0.356 N 
ATOM     13  H   UNL     1      -1.290   7.452   2.632  0.00  0.00    +0.142 HD
ATOM     14  H   UNL     1      -1.202   7.125   0.757  0.00  0.00    +0.142 HD
ENDBRANCH   5  12
ENDBRANCH   1   9
BRANCH   1  15
ATOM     15  N   UNL     1       0.017   1.096  -0.023  0.00  0.00    -0.188 NA
ATOM     16  H   UNL     1      -0.051  -0.002  -0.005  0.00  0.00    +0.148 HD
BRANCH  15  17
ATOM     17  C   UNL     1       1.323   1.747  -0.149  0.00  0.00    +0.063 C 
ATOM     18  C   UNL     1       1.865   2.084   1.243  0.00  0.00    -0.058 C 
ATOM     19  N   UNL     1       3.143   1.388   1.450  0.00  0.00    +0.381 N 
ATOM     20  C   UNL     1       4.149   1.832   0.475  0.00  0.00    -0.078 C 
ATOM     21  C   UNL     1       3.672   1.489  -0.939  0.00  0.00    -0.014 C 
ATOM     22  C   UNL     1       2.306   0.798  -0.847  0.00  0.00    +0.002 C 
ATOM     23  C   UNL     1       2.454  -0.467   0.008  0.00  0.00    -0.014 C 
ATOM     24  C   UNL     1       2.965  -0.070   1.396  0.00  0.00    -0.078 C 
ATOM     25  H   UNL     1       3.507   1.647   2.455  0.00  0.00    -0.082 HD
ENDBRANCH  15  17
ENDBRANCH   1  15
TORSDOF 4
