REMARK  Name = ZINC27534345
REMARK  7 active torsions:
REMARK  status: ('A' for Active; 'I' for Inactive)
REMARK    1  A    between atoms: C_1  and  C_2
REMARK    2  A    between atoms: N_16  and  C_17
REMARK    3  A    between atoms: C_17  and  C_18
REMARK    4  A    between atoms: N_20  and  C_21
REMARK    5  A    between atoms: C_23  and  N_36
REMARK    6  A    between atoms: C_25  and  O_27
REMARK    7  A    between atoms: O_27  and  C_28
REMARK                            x       y       z     vdW  Elec       q    Type
REMARK                         _______ _______ _______ _____ _____    ______ ____
ROOT
ATOM      1  C   UNL     1      -3.982   2.232   1.393  0.00  0.00    +0.237 C 
ATOM      2  O   UNL     1      -3.124   2.250   2.249  0.00  0.00    -0.274 OA
ATOM      3  N   UNL     1      -5.277   2.085   1.739  0.00  0.00    -0.284 N 
ATOM      4  H   UNL     1      -6.066   2.211   0.983  0.00  0.00    +0.155 HD
ENDROOT
BRANCH   3   5
ATOM      5  C   UNL     1      -5.616   1.771   3.059  0.00  0.00    +0.039 A 
ATOM      6  C   UNL     1      -6.769   1.044   3.327  0.00  0.00    +0.056 A 
ATOM      7  C   UNL     1      -7.101   0.729   4.630  0.00  0.00    +0.131 A 
ATOM      8  C   UNL     1      -6.295   1.147   5.672  0.00  0.00    +0.079 A 
ATOM      9  C   UNL     1      -5.144   1.879   5.411  0.00  0.00    +0.132 A 
ATOM     10  C   UNL     1      -4.805   2.192   4.104  0.00  0.00    +0.069 A 
BRANCH   7  11
ATOM     11  N   UNL     1      -8.327  -0.051   4.912  0.00  0.00    +0.057 N 
ATOM     12  O   UNL     1      -8.624  -0.325   6.062  0.00  0.00    -0.126 OA
ATOM     13  O   UNL     1      -9.039  -0.420   3.995  0.00  0.00    -0.126 OA
ENDBRANCH   7  11
BRANCH   9  14
ATOM     14  O   UNL     1      -4.353   2.289   6.436  0.00  0.00    -0.453 OA
BRANCH  14  15
ATOM     15  C   UNL     1      -4.646   1.844   7.687  0.00  0.00    +0.164 A 
ATOM     16  C   UNL     1      -5.394   2.635   8.547  0.00  0.00    +0.052 A 
ATOM     17  C   UNL     1      -5.691   2.182   9.818  0.00  0.00    +0.042 A 
ATOM     18  C   UNL     1      -5.244   0.939  10.235  0.00  0.00    +0.126 A 
ATOM     19  C   UNL     1      -4.498   0.148   9.379  0.00  0.00    +0.080 A 
ATOM     20  C   UNL     1      -4.202   0.596   8.103  0.00  0.00    +0.168 A 
ATOM     21  F   UNL     1      -3.479  -0.179   7.266  0.00  0.00    -0.202 F 
ATOM     22  F   UNL     1      -5.537   0.499  11.478  0.00  0.00    -0.205 F 
ENDBRANCH  14  15
ENDBRANCH   9  14
ENDBRANCH   3   5
BRANCH   1  23
ATOM     23  C   UNL     1      -3.602   2.376  -0.059  0.00  0.00    +0.218 C 
BRANCH  23  39
ATOM     24  C   UNL     1       0.067   7.734  -0.014  0.00  0.00    +0.044 C 
ATOM     25  C   UNL     1      -0.511   6.343  -0.057  0.00  0.00    -0.050 A 
ATOM     26  C   UNL     1      -1.883   6.162   0.047  0.00  0.00    +0.005 A 
ATOM     27  C   UNL     1      -2.431   4.899   0.010  0.00  0.00    +0.027 A 
ATOM     28  C   UNL     1      -1.604   3.787  -0.133  0.00  0.00    +0.054 A 
ATOM     29  C   UNL     1      -0.216   3.977  -0.236  0.00  0.00    +0.046 A 
ATOM     30  C   UNL     1       0.319   5.266  -0.197  0.00  0.00    +0.017 A 
ATOM     31  C   UNL     1       0.661   2.802  -0.387  0.00  0.00    +0.197 A 
ATOM     32  O   UNL     1       1.869   2.922  -0.479  0.00  0.00    -0.287 OA
ATOM     33  C   UNL     1       0.019   1.475  -0.422  0.00  0.00    +0.046 A 
ATOM     34  C   UNL     1       0.785   0.316  -0.564  0.00  0.00    +0.014 A 
ATOM     35  C   UNL     1       0.171  -0.905  -0.594  0.00  0.00    +0.001 A 
ATOM     36  C   UNL     1      -1.209  -1.000  -0.485  0.00  0.00    +0.002 A 
ATOM     37  C   UNL     1      -1.983   0.132  -0.350  0.00  0.00    +0.026 A 
ATOM     38  C   UNL     1      -1.378   1.387  -0.310  0.00  0.00    +0.054 A 
ATOM     39  N   UNL     1      -2.149   2.521  -0.171  0.00  0.00    -0.331 N 
ENDBRANCH  23  39
ENDBRANCH   1  23
TORSDOF 6
