REMARK  Name = ZINC08623497
REMARK  12 active torsions:
REMARK  status: ('A' for Active; 'I' for Inactive)
REMARK    1  A    between atoms: C_1  and  C_2
REMARK    2  A    between atoms: C_4  and  C_32
REMARK    3  A    between atoms: C_6  and  C_8
REMARK    4  A    between atoms: C_16  and  C_18
REMARK    5  A    between atoms: C_18  and  O_19
REMARK    6  A    between atoms: O_19  and  C_20
REMARK    7  A    between atoms: N_22  and  C_23
REMARK    8  A    between atoms: C_26  and  C_29
REMARK    9  A    between atoms: C_29  and  C_30
REMARK   10  A    between atoms: C_29  and  C_31
REMARK   11  A    between atoms: C_37  and  O_38
REMARK   12  A    between atoms: O_38  and  C_39
REMARK                            x       y       z     vdW  Elec       q    Type
REMARK                         _______ _______ _______ _____ _____    ______ ____
ROOT
ATOM      1  C   UNL     1      -2.170  -3.993   0.859  0.00  0.00    +0.024 C 
ATOM      2  C   UNL     1      -1.118  -4.484  -0.139  0.00  0.00    -0.068 C 
ATOM      3  C   UNL     1      -0.936  -6.608   1.013  0.00  0.00    -0.078 C 
ATOM      4  C   UNL     1      -1.984  -6.177   2.043  0.00  0.00    -0.015 C 
ATOM      5  C   UNL     1      -1.911  -4.655   2.218  0.00  0.00    -0.007 C 
ATOM      6  C   UNL     1      -0.496  -4.284   2.681  0.00  0.00    -0.008 C 
ATOM      7  C   UNL     1       0.510  -4.767   1.632  0.00  0.00    -0.030 C 
ATOM      8  N   UNL     1      -0.190  -5.433   0.513  0.00  0.00    +0.384 N 
ATOM      9  H   UNL     1       0.504  -5.747  -0.175  0.00  0.00    -0.081 HD
ENDROOT
BRANCH   1  15
ATOM     10  C   UNL     1      -0.885   0.339  -1.010  0.00  0.00    +0.088 C 
ATOM     11  C   UNL     1      -1.472  -0.452   0.131  0.00  0.00    +0.127 A 
ATOM     12  N   UNL     1      -1.883   0.187   1.206  0.00  0.00    -0.232 NA
ATOM     13  C   UNL     1      -2.401  -0.480   2.236  0.00  0.00    +0.078 A 
ATOM     14  C   UNL     1      -2.513  -1.871   2.152  0.00  0.00    +0.052 A 
ATOM     15  C   UNL     1      -2.073  -2.496   1.000  0.00  0.00    +0.047 A 
ATOM     16  N   UNL     1      -1.564  -1.762   0.021  0.00  0.00    -0.237 NA
BRANCH  13  17
ATOM     17  C   UNL     1      -2.857   0.241   3.448  0.00  0.00    +0.042 A 
ATOM     18  C   UNL     1      -3.509  -0.448   4.469  0.00  0.00    +0.013 A 
ATOM     19  C   UNL     1      -3.932   0.228   5.595  0.00  0.00    +0.001 A 
ATOM     20  C   UNL     1      -3.711   1.589   5.715  0.00  0.00    +0.004 A 
ATOM     21  C   UNL     1      -3.066   2.282   4.710  0.00  0.00    +0.046 A 
ATOM     22  C   UNL     1      -2.635   1.617   3.572  0.00  0.00    +0.129 A 
BRANCH  22  23
ATOM     23  O   UNL     1      -1.996   2.296   2.586  0.00  0.00    -0.494 OA
ATOM     24  C   UNL     1      -1.805   3.698   2.782  0.00  0.00    +0.277 C 
ENDBRANCH  22  23
ENDBRANCH  13  17
ENDBRANCH   1  15
BRANCH   7  25
ATOM     25  C   UNL     1       1.294  -3.571   1.087  0.00  0.00    +0.219 C 
BRANCH  25  26
ATOM     26  O   UNL     1       2.283  -4.036   0.131  0.00  0.00    -0.452 OA
BRANCH  26  27
ATOM     27  C   UNL     1       2.992  -3.095  -0.521  0.00  0.00    +0.404 C 
ATOM     28  O   UNL     1       2.858  -1.923  -0.230  0.00  0.00    -0.226 OA
ATOM     29  N   UNL     1       3.851  -3.454  -1.495  0.00  0.00    -0.251 N 
ATOM     30  H   UNL     1       3.909  -4.381  -1.774  0.00  0.00    +0.158 HD
BRANCH  29  31
ATOM     31  C   UNL     1       4.659  -2.488  -2.106  0.00  0.00    +0.036 A 
ATOM     32  C   UNL     1       4.171  -1.206  -2.319  0.00  0.00    +0.024 A 
ATOM     33  C   UNL     1       4.973  -0.253  -2.916  0.00  0.00    +0.006 A 
ATOM     34  C   UNL     1       6.257  -0.579  -3.313  0.00  0.00    -0.045 A 
ATOM     35  C   UNL     1       6.744  -1.857  -3.108  0.00  0.00    +0.006 A 
ATOM     36  C   UNL     1       5.949  -2.812  -2.505  0.00  0.00    +0.024 A 
BRANCH  34  37
ATOM     37  C   UNL     1       7.127   0.461  -3.970  0.00  0.00    +0.013 C 
ATOM     38  C   UNL     1       6.456   0.951  -5.255  0.00  0.00    +0.012 C 
ATOM     39  C   UNL     1       7.322   1.641  -3.015  0.00  0.00    +0.012 C 
ENDBRANCH  34  37
ENDBRANCH  29  31
ENDBRANCH  26  27
ENDBRANCH  25  26
ENDBRANCH   7  25
TORSDOF 8
