REMARK  Name = ZINC40680899
REMARK  6 active torsions:
REMARK  status: ('A' for Active; 'I' for Inactive)
REMARK    1  A    between atoms: C_1  and  C_2
REMARK    2  A    between atoms: C_9  and  N_23
REMARK    3  A    between atoms: C_10  and  N_14
REMARK    4  A    between atoms: N_17  and  C_20
REMARK    5  A    between atoms: C_20  and  C_21
REMARK    6  A    between atoms: C_21  and  O_22
REMARK                            x       y       z     vdW  Elec       q    Type
REMARK                         _______ _______ _______ _____ _____    ______ ____
ROOT
ATOM      1  C   UNL     1       0.924  -1.230   3.162  0.00  0.00    +0.089 C 
ATOM      2  C   UNL     1       0.594  -1.953   1.881  0.00  0.00    +0.136 A 
ATOM      3  C   UNL     1      -0.640  -2.175   1.397  0.00  0.00    +0.091 A 
ATOM      4  C   UNL     1      -0.513  -2.881   0.179  0.00  0.00    +0.167 A 
ATOM      5  N   UNL     1       0.763  -3.069  -0.044  0.00  0.00    -0.063 NA
ATOM      6  O   UNL     1       1.482  -2.481   1.025  0.00  0.00    -0.358 OA
ATOM      7  N   UNL     1      -1.559  -3.303  -0.637  0.00  0.00    -0.282 N 
ATOM      8  C   UNL     1      -2.875  -3.167  -0.207  0.00  0.00    +0.127 A 
ATOM      9  C   UNL     1      -3.672  -4.293   0.002  0.00  0.00    +0.104 A 
ATOM     10  C   UNL     1      -4.986  -4.100   0.434  0.00  0.00    +0.147 A 
ATOM     11  N   UNL     1      -5.425  -2.858   0.628  0.00  0.00    -0.221 NA
ATOM     12  C   UNL     1      -4.638  -1.822   0.418  0.00  0.00    +0.200 A 
ATOM     13  N   UNL     1      -3.392  -1.961   0.015  0.00  0.00    -0.333 N 
ATOM     14  H   UNL     1      -1.370  -3.692  -1.505  0.00  0.00    +0.155 HD
ATOM     15  H   UNL     1      -2.843  -1.173  -0.124  0.00  0.00    +0.168 HD
ENDROOT
BRANCH  10  16
ATOM     16  N   UNL     1      -5.823  -5.187   0.658  0.00  0.00    -0.311 N 
ATOM     17  C   UNL     1      -5.983  -5.751   2.006  0.00  0.00    +0.122 C 
ATOM     18  C   UNL     1      -7.480  -5.854   2.316  0.00  0.00    +0.103 C 
ATOM     19  N   UNL     1      -8.148  -6.605   1.245  0.00  0.00    -0.297 NA
ATOM     20  C   UNL     1      -8.045  -5.904  -0.042  0.00  0.00    +0.103 C 
ATOM     21  C   UNL     1      -6.576  -5.799  -0.447  0.00  0.00    +0.122 C 
BRANCH  19  22
ATOM     22  C   UNL     1      -9.551  -6.874   1.587  0.00  0.00    +0.112 C 
BRANCH  22  23
ATOM     23  C   UNL     1     -10.142  -7.861   0.578  0.00  0.00    +0.171 C 
BRANCH  23  24
ATOM     24  O   UNL     1      -9.475  -9.120   0.697  0.00  0.00    -0.394 OA
ATOM     25  H   UNL     1      -9.799  -9.796   0.085  0.00  0.00    +0.209 HD
ENDBRANCH  23  24
ENDBRANCH  22  23
ENDBRANCH  19  22
ENDBRANCH  10  16
BRANCH   9  26
ATOM     26  N   UNL     1      -3.167  -5.585  -0.215  0.00  0.00    -0.353 N 
ATOM     27  H   UNL     1      -2.219  -5.715  -0.369  0.00  0.00    +0.143 HD
ATOM     28  H   UNL     1      -3.768  -6.347  -0.212  0.00  0.00    +0.143 HD
ENDBRANCH   9  26
TORSDOF 5
