REMARK  Name = ZINC36344461
REMARK  12 active torsions:
REMARK  status: ('A' for Active; 'I' for Inactive)
REMARK    1  A    between atoms: C_1  and  C_2
REMARK    2  A    between atoms: C_5  and  C_40
REMARK    3  A    between atoms: C_6  and  C_8
REMARK    4  A    between atoms: C_11  and  C_14
REMARK    5  A    between atoms: C_17  and  O_22
REMARK    6  A    between atoms: C_19  and  O_20
REMARK    7  A    between atoms: O_20  and  C_21
REMARK    8  A    between atoms: O_22  and  C_23
REMARK    9  A    between atoms: C_24  and  C_26
REMARK   10  A    between atoms: C_26  and  N_27
REMARK   11  A    between atoms: N_30  and  C_33
REMARK   12  A    between atoms: C_33  and  C_34
REMARK                            x       y       z     vdW  Elec       q    Type
REMARK                         _______ _______ _______ _____ _____    ______ ____
ROOT
ATOM      1  C   UNL     1       0.515  -2.651   2.511  0.00  0.00    +0.069 C 
ATOM      2  N   UNL     1       0.637  -3.920   2.696  0.00  0.00    -0.181 NA
ATOM      3  N   UNL     1       0.874  -4.282   4.021  0.00  0.00    -0.187 N 
ATOM      4  C   UNL     1       0.915  -3.064   4.846  0.00  0.00    +0.140 C 
ATOM      5  C   UNL     1       0.677  -1.930   3.830  0.00  0.00    +0.087 C 
ATOM      6  C   UNL     1       1.038  -5.541   4.472  0.00  0.00    +0.219 C 
ATOM      7  O   UNL     1       1.239  -5.741   5.651  0.00  0.00    -0.276 OA
ENDROOT
BRANCH   1  13
ATOM      8  C   UNL     1       0.013   1.496  -0.214  0.00  0.00    +0.044 C 
ATOM      9  C   UNL     1       0.018  -0.007  -0.105  0.00  0.00    -0.050 A 
ATOM     10  C   UNL     1      -0.216  -0.781  -1.228  0.00  0.00    +0.003 A 
ATOM     11  C   UNL     1      -0.213  -2.161  -1.138  0.00  0.00    +0.004 A 
ATOM     12  C   UNL     1       0.023  -2.776   0.074  0.00  0.00    -0.042 A 
ATOM     13  C   UNL     1       0.261  -2.001   1.212  0.00  0.00    +0.001 A 
ATOM     14  C   UNL     1       0.262  -0.608   1.112  0.00  0.00    +0.013 A 
ATOM     15  C   UNL     1       0.025  -4.280   0.171  0.00  0.00    +0.044 C 
ENDBRANCH   1  13
BRANCH   4  16
ATOM     16  C   UNL     1       2.264  -2.913   5.501  0.00  0.00    +0.017 A 
ATOM     17  C   UNL     1       3.374  -3.517   4.942  0.00  0.00    +0.013 A 
ATOM     18  C   UNL     1       4.612  -3.380   5.540  0.00  0.00    +0.046 A 
ATOM     19  C   UNL     1       4.744  -2.635   6.704  0.00  0.00    +0.124 A 
ATOM     20  C   UNL     1       3.632  -2.028   7.266  0.00  0.00    +0.091 A 
ATOM     21  C   UNL     1       2.392  -2.163   6.661  0.00  0.00    +0.129 A 
BRANCH  21  22
ATOM     22  O   UNL     1       1.300  -1.564   7.207  0.00  0.00    -0.495 OA
ATOM     23  C   UNL     1       1.505  -0.807   8.401  0.00  0.00    +0.277 C 
ENDBRANCH  21  22
BRANCH  19  24
ATOM     24  O   UNL     1       5.962  -2.501   7.291  0.00  0.00    -0.495 OA
ATOM     25  C   UNL     1       7.064  -3.154   6.657  0.00  0.00    +0.277 C 
ENDBRANCH  19  24
ENDBRANCH   4  16
BRANCH   6  26
ATOM     26  C   UNL     1       0.970  -6.700   3.511  0.00  0.00    +0.021 C 
BRANCH  26  27
ATOM     27  N   UNL     1       1.178  -7.956   4.245  0.00  0.00    +0.387 N 
ATOM     28  C   UNL     1       2.540  -7.983   4.793  0.00  0.00    -0.063 C 
ATOM     29  C   UNL     1       2.751  -9.283   5.573  0.00  0.00    +0.066 C 
ATOM     30  N   UNL     1       2.544 -10.428   4.676  0.00  0.00    -0.302 NA
ATOM     31  C   UNL     1       1.192 -10.401   4.099  0.00  0.00    +0.066 C 
ATOM     32  C   UNL     1       0.994  -9.092   3.332  0.00  0.00    -0.063 C 
ATOM     33  H   UNL     1       0.511  -8.020   4.999  0.00  0.00    -0.081 HD
BRANCH  30  34
ATOM     34  C   UNL     1       2.793 -11.696   5.374  0.00  0.00    +0.119 C 
BRANCH  34  35
ATOM     35  C   UNL     1       2.813 -12.824   4.375  0.00  0.00    -0.033 A 
ATOM     36  C   UNL     1       1.642 -13.489   4.060  0.00  0.00    +0.005 A 
ATOM     37  C   UNL     1       1.661 -14.524   3.144  0.00  0.00    +0.000 A 
ATOM     38  C   UNL     1       2.849 -14.894   2.543  0.00  0.00    +0.000 A 
ATOM     39  C   UNL     1       4.019 -14.229   2.858  0.00  0.00    +0.000 A 
ATOM     40  C   UNL     1       4.000 -13.191   3.771  0.00  0.00    +0.005 A 
ENDBRANCH  34  35
ENDBRANCH  30  34
ENDBRANCH  26  27
ENDBRANCH   6  26
TORSDOF 8
