REMARK  Name = ZINC57991981
REMARK  12 active torsions:
REMARK  status: ('A' for Active; 'I' for Inactive)
REMARK    1  A    between atoms: C_1  and  C_2
REMARK    2  A    between atoms: C_2  and  C_3
REMARK    3  A    between atoms: C_3  and  C_4
REMARK    4  A    between atoms: C_7  and  C_10
REMARK    5  A    between atoms: C_10  and  C_12
REMARK    6  A    between atoms: C_10  and  N_13
REMARK    7  A    between atoms: N_13  and  C_14
REMARK    8  A    between atoms: N_13  and  C_18
REMARK    9  A    between atoms: C_14  and  C_15
REMARK   10  A    between atoms: C_18  and  C_19
REMARK   11  A    between atoms: N_21  and  C_22
REMARK   12  A    between atoms: C_26  and  C_28
REMARK                            x       y       z     vdW  Elec       q    Type
REMARK                         _______ _______ _______ _____ _____    ______ ____
ROOT
ATOM      1  N   UNL     1      -0.118  -6.723  -0.926  0.00  0.00    +0.395 N 
ATOM      2  H   UNL     1      -0.407  -6.246  -1.767  0.00  0.00    -0.080 HD
ENDROOT
BRANCH   1   3
ATOM      3  C   UNL     1       1.330  -6.557  -0.742  0.00  0.00    -0.040 C 
ATOM      4  C   UNL     1       2.075  -7.309  -1.847  0.00  0.00    -0.008 C 
BRANCH   3   8
ATOM      5  C   UNL     1       2.324  -2.406  -0.926  0.00  0.00    -0.047 A 
ATOM      6  C   UNL     1       2.502  -3.108   0.252  0.00  0.00    +0.004 A 
ATOM      7  C   UNL     1       2.180  -4.451   0.312  0.00  0.00    +0.002 A 
ATOM      8  C   UNL     1       1.680  -5.092  -0.806  0.00  0.00    -0.061 A 
ATOM      9  C   UNL     1       1.501  -4.391  -1.984  0.00  0.00    +0.002 A 
ATOM     10  C   UNL     1       1.819  -3.046  -2.042  0.00  0.00    +0.004 A 
BRANCH   5  11
ATOM     11  C   UNL     1       2.675  -0.942  -0.991  0.00  0.00    +0.035 C 
BRANCH  11  13
ATOM     12  C   UNL     1       1.809   1.379  -0.667  0.00  0.00    +0.004 C 
ATOM     13  C   UNL     1       1.453  -0.107  -0.602  0.00  0.00    +0.001 C 
ENDBRANCH  11  13
ENDBRANCH   5  11
ENDBRANCH   3   8
ENDBRANCH   1   3
BRANCH   1  14
ATOM     14  C   UNL     1      -0.827  -6.154   0.228  0.00  0.00    +0.020 C 
BRANCH  14  15
ATOM     15  C   UNL     1      -1.034  -4.677   0.012  0.00  0.00    +0.194 C 
ATOM     16  O   UNL     1      -0.817  -4.187  -1.076  0.00  0.00    -0.278 OA
ATOM     17  N   UNL     1      -1.462  -3.901   1.028  0.00  0.00    -0.331 N 
ATOM     18  H   UNL     1      -1.636  -4.294   1.897  0.00  0.00    +0.145 HD
ATOM     19  H   UNL     1      -1.595  -2.951   0.889  0.00  0.00    +0.145 HD
ENDBRANCH  14  15
ENDBRANCH   1  14
BRANCH   1  20
ATOM     20  C   UNL     1      -0.436  -8.152  -1.041  0.00  0.00    +0.020 C 
BRANCH  20  21
ATOM     21  C   UNL     1      -1.901  -8.318  -1.352  0.00  0.00    +0.201 C 
ATOM     22  O   UNL     1      -2.611  -7.341  -1.468  0.00  0.00    -0.278 OA
ATOM     23  N   UNL     1      -2.424  -9.551  -1.503  0.00  0.00    -0.287 N 
ATOM     24  H   UNL     1      -1.881 -10.333  -1.317  0.00  0.00    +0.155 HD
BRANCH  23  25
ATOM     25  C   UNL     1      -3.748  -9.703  -1.928  0.00  0.00    +0.035 A 
ATOM     26  C   UNL     1      -4.510 -10.768  -1.462  0.00  0.00    +0.023 A 
ATOM     27  C   UNL     1      -5.819 -10.923  -1.878  0.00  0.00    +0.003 A 
ATOM     28  C   UNL     1      -6.378 -10.021  -2.760  0.00  0.00    +0.019 A 
ATOM     29  C   UNL     1      -5.622  -8.947  -3.234  0.00  0.00    +0.054 A 
ATOM     30  C   UNL     1      -4.302  -8.788  -2.809  0.00  0.00    +0.042 A 
BRANCH  29  31
ATOM     31  C   UNL     1      -6.200  -8.009  -4.149  0.00  0.00    +0.099 C 
ATOM     32  N   UNL     1      -6.659  -7.265  -4.874  0.00  0.00    -0.191 NA
ENDBRANCH  29  31
ENDBRANCH  23  25
ENDBRANCH  20  21
ENDBRANCH   1  20
TORSDOF 10
