REMARK  Name = ZINC56616670
REMARK  7 active torsions:
REMARK  status: ('A' for Active; 'I' for Inactive)
REMARK    1  A    between atoms: C_1  and  C_2
REMARK    2  A    between atoms: C_2  and  O_3
REMARK    3  A    between atoms: O_3  and  C_4
REMARK    4  A    between atoms: C_5  and  N_10
REMARK    5  A    between atoms: N_13  and  C_14
REMARK    6  A    between atoms: C_14  and  C_15
REMARK    7  A    between atoms: C_20  and  C_24
REMARK                            x       y       z     vdW  Elec       q    Type
REMARK                         _______ _______ _______ _____ _____    ______ ____
ROOT
ATOM      1  N   UNL     1       2.011  -1.495   3.386  0.00  0.00    -0.265 N 
ATOM      2  C   UNL     1       2.556  -2.011   4.505  0.00  0.00    +0.304 C 
ATOM      3  O   UNL     1       2.652  -3.216   4.636  0.00  0.00    -0.252 OA
ATOM      4  N   UNL     1       2.995  -1.190   5.481  0.00  0.00    -0.294 N 
ATOM      5  H   UNL     1       1.990  -0.534   3.254  0.00  0.00    +0.157 HD
ATOM      6  H   UNL     1       2.918  -0.229   5.377  0.00  0.00    +0.151 HD
ENDROOT
BRANCH   1   8
ATOM      7  C   UNL     1       0.359  -1.961   1.668  0.00  0.00    +0.237 A 
ATOM      8  C   UNL     1       1.475  -2.348   2.411  0.00  0.00    +0.097 A 
ATOM      9  C   UNL     1       2.047  -3.590   2.169  0.00  0.00    +0.030 A 
ATOM     10  C   UNL     1       1.481  -4.399   1.193  0.00  0.00    +0.022 A 
ATOM     11  C   UNL     1       0.377  -3.950   0.498  0.00  0.00    +0.115 A 
ATOM     12  N   UNL     1      -0.150  -2.766   0.752  0.00  0.00    -0.220 NA
BRANCH   7  13
ATOM     13  O   UNL     1      -0.212  -0.750   1.892  0.00  0.00    -0.475 OA
BRANCH  13  15
ATOM     14  C   UNL     1      -1.856   0.976   1.495  0.00  0.00    +0.048 C 
ATOM     15  C   UNL     1      -1.355  -0.416   1.103  0.00  0.00    +0.227 C 
ENDBRANCH  13  15
ENDBRANCH   7  13
ENDBRANCH   1   8
BRANCH   4  16
ATOM     16  C   UNL     1       3.587  -1.751   6.698  0.00  0.00    +0.160 C 
BRANCH  16  17
ATOM     17  C   UNL     1       3.992  -0.631   7.621  0.00  0.00    +0.051 A 
ATOM     18  C   UNL     1       5.222  -0.077   7.696  0.00  0.00    +0.115 A 
ATOM     19  N   UNL     1       5.168   0.901   8.651  0.00  0.00    -0.308 N 
ATOM     20  C   UNL     1       6.101   1.770   9.137  0.00  0.00    +0.093 A 
ATOM     21  C   UNL     1       5.779   2.656  10.103  0.00  0.00    +0.021 A 
ATOM     22  C   UNL     1       4.474   2.693  10.623  0.00  0.00    -0.046 A 
ATOM     23  C   UNL     1       3.534   1.833  10.148  0.00  0.00    +0.048 A 
ATOM     24  C   UNL     1       3.887   0.914   9.139  0.00  0.00    +0.116 A 
ATOM     25  N   UNL     1       3.194  -0.016   8.497  0.00  0.00    -0.342 N 
ATOM     26  C   UNL     1       4.118   3.683  11.703  0.00  0.00    +0.044 C 
ATOM     27  H   UNL     1       2.257  -0.220   8.643  0.00  0.00    +0.167 HD
ENDBRANCH  16  17
ENDBRANCH   4  16
TORSDOF 5
