REMARK  Name = ZINC21223867
REMARK  12 active torsions:
REMARK  status: ('A' for Active; 'I' for Inactive)
REMARK    1  A    between atoms: C_1  and  C_2
REMARK    2  A    between atoms: C_2  and  C_3
REMARK    3  A    between atoms: C_2  and  C_4
REMARK    4  A    between atoms: C_2  and  C_5
REMARK    5  A    between atoms: C_8  and  C_11
REMARK    6  A    between atoms: C_16  and  C_21
REMARK    7  A    between atoms: C_23  and  O_31
REMARK    8  A    between atoms: C_24  and  O_29
REMARK    9  A    between atoms: C_25  and  O_27
REMARK   10  A    between atoms: O_27  and  C_28
REMARK   11  A    between atoms: O_29  and  C_30
REMARK   12  A    between atoms: O_31  and  C_32
REMARK                            x       y       z     vdW  Elec       q    Type
REMARK                         _______ _______ _______ _____ _____    ______ ____
ROOT
ATOM      1  C   UNL     1       6.574  -0.290  -0.131  0.00  0.00    +0.136 C 
ATOM      2  C   UNL     1       5.218   0.375  -0.100  0.00  0.00    +0.036 C 
ATOM      3  C   UNL     1       4.522   0.695   1.004  0.00  0.00    +0.017 C 
ATOM      4  C   UNL     1       3.174   1.387   0.888  0.00  0.00    +0.059 C 
ATOM      5  C   UNL     1       2.454   0.914  -0.374  0.00  0.00    +0.032 C 
ATOM      6  C   UNL     1       3.337   1.271  -1.576  0.00  0.00    +0.088 C 
ATOM      7  C   UNL     1       4.686   0.648  -1.382  0.00  0.00    +0.163 C 
ATOM      8  O   UNL     1       5.348   0.367  -2.362  0.00  0.00    -0.292 OA
ATOM      9  N   UNL     1       4.926   0.450   2.276  0.00  0.00    -0.316 N 
ATOM     10  C   UNL     1       6.196   0.723   2.770  0.00  0.00    +0.052 A 
ATOM     11  C   UNL     1       6.417   1.657   3.767  0.00  0.00    +0.025 A 
ATOM     12  C   UNL     1       7.702   1.849   4.246  0.00  0.00    +0.002 A 
ATOM     13  C   UNL     1       8.754   1.111   3.734  0.00  0.00    +0.002 A 
ATOM     14  C   UNL     1       8.538   0.189   2.725  0.00  0.00    +0.025 A 
ATOM     15  C   UNL     1       7.256   0.011   2.229  0.00  0.00    +0.049 A 
ATOM     16  N   UNL     1       7.007  -0.826   1.143  0.00  0.00    -0.331 N 
ATOM     17  H   UNL     1       4.228   0.003   2.998  0.00  0.00    +0.152 HD
ATOM     18  H   UNL     1       7.145  -1.911   1.264  0.00  0.00    +0.147 HD
ENDROOT
BRANCH   1  22
ATOM     19  C   UNL     1       9.458   2.573  -1.447  0.00  0.00    -0.042 A 
ATOM     20  C   UNL     1       9.177   1.467  -2.226  0.00  0.00    +0.004 A 
ATOM     21  C   UNL     1       8.244   0.540  -1.800  0.00  0.00    +0.006 A 
ATOM     22  C   UNL     1       7.592   0.720  -0.595  0.00  0.00    -0.023 A 
ATOM     23  C   UNL     1       7.869   1.829   0.182  0.00  0.00    +0.006 A 
ATOM     24  C   UNL     1       8.806   2.753  -0.242  0.00  0.00    +0.004 A 
BRANCH  19  26
ATOM     25  C   UNL     1      10.031   4.177  -3.250  0.00  0.00    +0.015 C 
ATOM     26  C   UNL     1      10.476   3.583  -1.911  0.00  0.00    -0.013 C 
ATOM     27  C   UNL     1      10.596   4.700  -0.873  0.00  0.00    +0.015 C 
ATOM     28  C   UNL     1      11.833   2.898  -2.083  0.00  0.00    +0.015 C 
ENDBRANCH  19  26
ENDBRANCH   1  22
BRANCH   5  29
ATOM     29  C   UNL     1       1.123   1.609  -0.494  0.00  0.00    -0.036 A 
ATOM     30  C   UNL     1      -0.043   0.866  -0.516  0.00  0.00    +0.053 A 
ATOM     31  C   UNL     1      -1.270   1.501  -0.631  0.00  0.00    +0.165 A 
ATOM     32  C   UNL     1      -1.328   2.887  -0.714  0.00  0.00    +0.204 A 
ATOM     33  C   UNL     1      -0.154   3.630  -0.692  0.00  0.00    +0.165 A 
ATOM     34  C   UNL     1       1.070   2.987  -0.581  0.00  0.00    +0.053 A 
BRANCH  33  35
ATOM     35  O   UNL     1      -0.205   4.987  -0.778  0.00  0.00    -0.491 OA
ATOM     36  C   UNL     1       1.041   5.686  -0.748  0.00  0.00    +0.277 C 
ENDBRANCH  33  35
BRANCH  32  37
ATOM     37  O   UNL     1      -2.531   3.514  -0.822  0.00  0.00    -0.488 OA
ATOM     38  C   UNL     1      -3.031   3.735  -2.143  0.00  0.00    +0.277 C 
ENDBRANCH  32  37
BRANCH  31  39
ATOM     39  O   UNL     1      -2.416   0.769  -0.659  0.00  0.00    -0.491 OA
ATOM     40  C   UNL     1      -2.281  -0.651  -0.564  0.00  0.00    +0.277 C 
ENDBRANCH  31  39
ENDBRANCH   5  29
TORSDOF 6
