REMARK  Name = ZINC42352310
REMARK  7 active torsions:
REMARK  status: ('A' for Active; 'I' for Inactive)
REMARK    1  A    between atoms: C_1  and  C_2
REMARK    2  A    between atoms: C_2  and  C_3
REMARK    3  A    between atoms: C_3  and  C_5
REMARK    4  A    between atoms: C_3  and  N_13
REMARK    5  A    between atoms: C_10  and  O_11
REMARK    6  A    between atoms: N_13  and  C_14
REMARK    7  A    between atoms: C_14  and  C_15
REMARK                            x       y       z     vdW  Elec       q    Type
REMARK                         _______ _______ _______ _____ _____    ______ ____
ROOT
ATOM      1  C   UNL     1       0.728  -0.287  -1.337  0.00  0.00    -0.037 C 
ENDROOT
BRANCH   1   2
ATOM      2  C   UNL     1       0.864  -1.777  -1.153  0.00  0.00    -0.019 A 
ATOM      3  C   UNL     1      -0.103  -2.627  -1.653  0.00  0.00    +0.020 A 
ATOM      4  C   UNL     1       0.022  -3.994  -1.484  0.00  0.00    +0.018 A 
ATOM      5  C   UNL     1       1.115  -4.513  -0.815  0.00  0.00    +0.019 A 
ATOM      6  C   UNL     1       2.085  -3.667  -0.314  0.00  0.00    +0.047 A 
ATOM      7  C   UNL     1       1.964  -2.296  -0.486  0.00  0.00    +0.119 A 
ATOM      8 BR   UNL     1      -1.305  -5.155  -2.169  0.00  0.00    -0.050 Br
BRANCH   7   9
ATOM      9  O   UNL     1       2.920  -1.462   0.002  0.00  0.00    -0.507 OA
ATOM     10  H   UNL     1       2.758  -1.166   0.908  0.00  0.00    +0.292 HD
ENDBRANCH   7   9
ENDBRANCH   1   2
BRANCH   1  11
ATOM     11  N   UNL     1      -0.206  -0.014  -2.438  0.00  0.00    +0.386 N 
ATOM     12  H   UNL     1      -1.077  -0.493  -2.267  0.00  0.00    -0.085 HD
ATOM     13  H   UNL     1      -0.374   0.979  -2.497  0.00  0.00    -0.085 HD
BRANCH  11  14
ATOM     14  C   UNL     1       0.374  -0.489  -3.701  0.00  0.00    -0.046 C 
BRANCH  14  15
ATOM     15  C   UNL     1      -0.524  -0.096  -4.846  0.00  0.00    -0.064 A 
ATOM     16  C   UNL     1      -1.536  -0.945  -5.253  0.00  0.00    +0.003 A 
ATOM     17  C   UNL     1      -2.361  -0.585  -6.301  0.00  0.00    +0.015 A 
ATOM     18  C   UNL     1      -2.174   0.625  -6.944  0.00  0.00    +0.018 A 
ATOM     19  C   UNL     1      -1.161   1.475  -6.537  0.00  0.00    +0.015 A 
ATOM     20  C   UNL     1      -0.340   1.116  -5.484  0.00  0.00    +0.003 A 
ATOM     21 BR   UNL     1      -3.301   1.118  -8.380  0.00  0.00    -0.050 Br
ENDBRANCH  14  15
ENDBRANCH  11  14
ENDBRANCH   1  11
BRANCH   1  23
ATOM     22  C   UNL     1       0.177   1.862  -0.190  0.00  0.00    +0.002 C 
ATOM     23  C   UNL     1       0.194   0.339  -0.048  0.00  0.00    -0.014 C 
ENDBRANCH   1  23
TORSDOF 6
