REMARK  Name = ZINC01144880
REMARK  11 active torsions:
REMARK  status: ('A' for Active; 'I' for Inactive)
REMARK    1  A    between atoms: C_1  and  C_2
REMARK    2  A    between atoms: C_7  and  N_8
REMARK    3  A    between atoms: N_8  and  C_9
REMARK    4  A    between atoms: N_8  and  S_25
REMARK    5  A    between atoms: C_9  and  C_10
REMARK    6  A    between atoms: N_12  and  C_13
REMARK    7  A    between atoms: C_17  and  N_19
REMARK    8  A    between atoms: N_19  and  C_20
REMARK    9  A    between atoms: N_19  and  S_21
REMARK   10  A    between atoms: S_21  and  C_24
REMARK   11  A    between atoms: S_25  and  C_28
REMARK                            x       y       z     vdW  Elec       q    Type
REMARK                         _______ _______ _______ _____ _____    ______ ____
ROOT
ATOM      1  N   UNL     1       0.352   0.309  -2.701  0.00  0.00    -0.194 N 
ENDROOT
BRANCH   1   8
ATOM      2  C   UNL     1       0.809  -2.479  -3.033  0.00  0.00    +0.046 C 
ATOM      3  C   UNL     1       0.728  -1.840  -1.670  0.00  0.00    -0.028 A 
ATOM      4  C   UNL     1       0.883  -2.612  -0.535  0.00  0.00    +0.006 A 
ATOM      5  C   UNL     1       0.809  -2.027   0.716  0.00  0.00    +0.020 A 
ATOM      6  C   UNL     1       0.580  -0.667   0.835  0.00  0.00    +0.043 A 
ATOM      7  C   UNL     1       0.423   0.110  -0.297  0.00  0.00    +0.045 A 
ATOM      8  C   UNL     1       0.503  -0.474  -1.555  0.00  0.00    +0.056 A 
ATOM      9 CL   UNL     1       0.489   0.063   2.407  0.00  0.00    -0.083 Cl
ENDBRANCH   1   8
BRANCH   1  10
ATOM     10  S   UNL     1       1.682   0.966  -3.437  0.00  0.00    +0.075 S 
ATOM     11  O   UNL     1       1.256   2.180  -4.039  0.00  0.00    -0.150 OA
ATOM     12  O   UNL     1       2.738   0.916  -2.487  0.00  0.00    -0.150 OA
BRANCH  10  13
ATOM     13  C   UNL     1       2.138  -0.116  -4.752  0.00  0.00    +0.109 A 
ATOM     14  C   UNL     1       3.033  -1.144  -4.522  0.00  0.00    +0.029 A 
ATOM     15  C   UNL     1       3.386  -1.995  -5.553  0.00  0.00    +0.002 A 
ATOM     16  C   UNL     1       2.852  -1.812  -6.814  0.00  0.00    +0.000 A 
ATOM     17  C   UNL     1       1.961  -0.781  -7.045  0.00  0.00    +0.002 A 
ATOM     18  C   UNL     1       1.604   0.067  -6.014  0.00  0.00    +0.029 A 
ENDBRANCH  10  13
ENDBRANCH   1  10
BRANCH   1  19
ATOM     19  C   UNL     1      -0.984   0.550  -3.253  0.00  0.00    +0.227 C 
BRANCH  19  20
ATOM     20  C   UNL     1      -1.608   1.734  -2.559  0.00  0.00    +0.236 C 
ATOM     21  O   UNL     1      -0.960   2.381  -1.765  0.00  0.00    -0.274 OA
ATOM     22  N   UNL     1      -2.885   2.072  -2.823  0.00  0.00    -0.284 N 
ATOM     23  H   UNL     1      -3.425   1.515  -3.406  0.00  0.00    +0.155 HD
BRANCH  22  24
ATOM     24  C   UNL     1      -3.434   3.227  -2.254  0.00  0.00    +0.035 A 
ATOM     25  C   UNL     1      -4.336   3.997  -2.978  0.00  0.00    +0.023 A 
ATOM     26  C   UNL     1      -4.883   5.135  -2.416  0.00  0.00    +0.004 A 
ATOM     27  C   UNL     1      -4.527   5.515  -1.136  0.00  0.00    +0.025 A 
ATOM     28  C   UNL     1      -3.622   4.752  -0.409  0.00  0.00    +0.052 A 
ATOM     29  C   UNL     1      -3.075   3.606  -0.969  0.00  0.00    +0.048 A 
BRANCH  28  30
ATOM     30  N   UNL     1      -3.263   5.138   0.885  0.00  0.00    -0.211 N 
ATOM     31  C   UNL     1      -2.784   4.137   1.841  0.00  0.00    +0.157 C 
BRANCH  30  32
ATOM     32  S   UNL     1      -3.378   6.727   1.337  0.00  0.00    +0.042 S 
ATOM     33  O   UNL     1      -2.420   6.879   2.376  0.00  0.00    -0.155 OA
ATOM     34  O   UNL     1      -3.253   7.459   0.125  0.00  0.00    -0.155 OA
ATOM     35  C   UNL     1      -5.056   6.902   2.002  0.00  0.00    +0.218 C 
ENDBRANCH  30  32
ENDBRANCH  28  30
ENDBRANCH  22  24
ENDBRANCH  19  20
ENDBRANCH   1  19
TORSDOF 8
