REMARK  Name = ZINC22317640
REMARK  14 active torsions:
REMARK  status: ('A' for Active; 'I' for Inactive)
REMARK    1  A    between atoms: C_1  and  C_2
REMARK    2  A    between atoms: C_2  and  C_3
REMARK    3  A    between atoms: N_9  and  C_10
REMARK    4  A    between atoms: C_10  and  C_11
REMARK    5  A    between atoms: C_11  and  C_12
REMARK    6  A    between atoms: C_12  and  N_13
REMARK    7  A    between atoms: C_14  and  C_16
REMARK    8  A    between atoms: C_16  and  N_17
REMARK    9  A    between atoms: N_17  and  C_18
REMARK   10  A    between atoms: N_17  and  S_26
REMARK   11  A    between atoms: C_20  and  C_25
REMARK   12  A    between atoms: C_23  and  C_24
REMARK   13  A    between atoms: S_26  and  C_29
REMARK   14  A    between atoms: C_32  and  C_35
REMARK                            x       y       z     vdW  Elec       q    Type
REMARK                         _______ _______ _______ _____ _____    ______ ____
ROOT
ATOM      1  N   UNL     1      -7.884  -0.011   6.461  0.00  0.00    -0.194 N 
ENDROOT
BRANCH   1   2
ATOM      2  C   UNL     1      -7.964  -1.327   6.920  0.00  0.00    +0.055 A 
ATOM      3  C   UNL     1      -7.830  -2.385   6.028  0.00  0.00    +0.028 A 
ATOM      4  C   UNL     1      -7.905  -3.685   6.486  0.00  0.00    -0.049 A 
ATOM      5  C   UNL     1      -8.123  -3.936   7.829  0.00  0.00    +0.004 A 
ATOM      6  C   UNL     1      -8.261  -2.886   8.718  0.00  0.00    +0.005 A 
ATOM      7  C   UNL     1      -8.182  -1.583   8.267  0.00  0.00    -0.028 A 
ATOM      8  C   UNL     1      -8.334  -0.439   9.237  0.00  0.00    +0.046 C 
ATOM      9  C   UNL     1      -7.755  -4.832   5.521  0.00  0.00    +0.044 C 
ENDBRANCH   1   2
BRANCH   1  10
ATOM     10  S   UNL     1      -9.266   0.817   6.076  0.00  0.00    +0.075 S 
ATOM     11  O   UNL     1     -10.302   0.277   6.885  0.00  0.00    -0.150 OA
ATOM     12  O   UNL     1      -8.930   2.198   6.090  0.00  0.00    -0.150 OA
BRANCH  10  13
ATOM     13  C   UNL     1      -9.668   0.413   4.408  0.00  0.00    +0.109 A 
ATOM     14  C   UNL     1      -9.102   1.127   3.369  0.00  0.00    +0.029 A 
ATOM     15  C   UNL     1      -9.413   0.807   2.061  0.00  0.00    +0.005 A 
ATOM     16  C   UNL     1     -10.298  -0.220   1.792  0.00  0.00    -0.050 A 
ATOM     17  C   UNL     1     -10.868  -0.931   2.832  0.00  0.00    +0.005 A 
ATOM     18  C   UNL     1     -10.553  -0.614   4.140  0.00  0.00    +0.029 A 
ATOM     19  C   UNL     1     -10.642  -0.566   0.366  0.00  0.00    +0.044 C 
ENDBRANCH  10  13
ENDBRANCH   1  10
BRANCH   1  20
ATOM     20  C   UNL     1      -6.579   0.639   6.320  0.00  0.00    +0.227 C 
BRANCH  20  22
ATOM     21  N   UNL     1      -4.737   0.690   4.669  0.00  0.00    -0.314 N 
ATOM     22  C   UNL     1      -5.988   0.294   4.977  0.00  0.00    +0.232 C 
ATOM     23  O   UNL     1      -6.639  -0.340   4.174  0.00  0.00    -0.274 OA
ATOM     24  H   UNL     1      -4.147   1.265   5.398  0.00  0.00    +0.149 HD
BRANCH  21  25
ATOM     25  C   UNL     1      -4.163   0.355   3.364  0.00  0.00    +0.102 C 
BRANCH  25  26
ATOM     26  C   UNL     1      -2.744   0.919   3.271  0.00  0.00    +0.000 C 
BRANCH  26  27
ATOM     27  C   UNL     1      -2.145   0.569   1.907  0.00  0.00    -0.077 C 
BRANCH  27  33
ATOM     28  C   UNL     1      -0.135   0.703   0.564  0.00  0.00    -0.069 C 
ATOM     29  C   UNL     1       1.222   1.400   0.439  0.00  0.00    -0.015 C 
ATOM     30  C   UNL     1       2.099   1.019   1.634  0.00  0.00    -0.003 C 
ATOM     31  C   UNL     1       1.381   1.410   2.929  0.00  0.00    -0.019 C 
ATOM     32  C   UNL     1       0.020   0.712   2.983  0.00  0.00    -0.078 C 
ATOM     33  N   UNL     1      -0.782   1.110   1.818  0.00  0.00    +0.382 N 
ATOM     34  H   UNL     1      -0.852   2.208   1.818  0.00  0.00    -0.081 HD
BRANCH  28  36
ATOM     35  C   UNL     1      -0.405   0.572  -1.916  0.00  0.00    +0.002 C 
ATOM     36  C   UNL     1      -1.022   1.097  -0.618  0.00  0.00    -0.019 C 
ENDBRANCH  28  36
ENDBRANCH  27  33
ENDBRANCH  26  27
ENDBRANCH  25  26
ENDBRANCH  21  25
ENDBRANCH  20  22
ENDBRANCH   1  20
TORSDOF 10
