REMARK  Name = ZINC50693314
REMARK  5 active torsions:
REMARK  status: ('A' for Active; 'I' for Inactive)
REMARK    1  A    between atoms: C_1  and  C_2
REMARK    2  A    between atoms: C_5  and  N_9
REMARK    3  A    between atoms: C_10  and  C_12
REMARK    4  A    between atoms: C_14  and  N_19
REMARK    5  A    between atoms: C_17  and  N_18
REMARK                            x       y       z     vdW  Elec       q    Type
REMARK                         _______ _______ _______ _____ _____    ______ ____
ROOT
ATOM      1  N   UNL     1       0.069  -4.173  -0.025  0.00  0.00    -0.279 N 
ATOM      2  C   UNL     1      -0.037  -4.840  -1.192  0.00  0.00    +0.250 C 
ATOM      3  O   UNL     1      -0.054  -4.228  -2.243  0.00  0.00    -0.270 OA
ATOM      4  H   UNL     1       0.164  -4.662   0.806  0.00  0.00    +0.155 HD
ENDROOT
BRANCH   1   9
ATOM      5  C   UNL     1      -0.048   1.501   0.019  0.00  0.00    +0.044 C 
ATOM      6  C   UNL     1      -0.016  -0.005   0.008  0.00  0.00    -0.048 A 
ATOM      7  C   UNL     1      -0.612  -0.701  -1.028  0.00  0.00    +0.005 A 
ATOM      8  C   UNL     1      -0.586  -2.082  -1.042  0.00  0.00    +0.026 A 
ATOM      9  C   UNL     1       0.041  -2.773  -0.014  0.00  0.00    +0.069 A 
ATOM     10  C   UNL     1       0.640  -2.072   1.027  0.00  0.00    +0.145 A 
ATOM     11  C   UNL     1       0.614  -0.690   1.031  0.00  0.00    +0.043 A 
ATOM     12  F   UNL     1       1.250  -2.741   2.030  0.00  0.00    -0.204 F 
ENDBRANCH   1   9
BRANCH   2  13
ATOM     13  C   UNL     1      -0.131  -6.311  -1.194  0.00  0.00    +0.060 A 
ATOM     14  C   UNL     1      -0.222  -7.011   0.012  0.00  0.00    +0.047 A 
ATOM     15  C   UNL     1      -0.310  -8.386   0.003  0.00  0.00    +0.127 A 
ATOM     16  C   UNL     1      -0.310  -9.080  -1.196  0.00  0.00    +0.034 A 
ATOM     17  C   UNL     1      -0.221  -8.403  -2.395  0.00  0.00    +0.026 A 
ATOM     18  C   UNL     1      -0.137  -7.016  -2.407  0.00  0.00    +0.037 A 
BRANCH  18  19
ATOM     19  N   UNL     1      -0.054  -6.332  -3.613  0.00  0.00    -0.357 N 
ATOM     20  H   UNL     1      -0.067  -5.362  -3.622  0.00  0.00    +0.142 HD
ATOM     21  H   UNL     1       0.016  -6.824  -4.446  0.00  0.00    +0.142 HD
ENDBRANCH  18  19
BRANCH  15  22
ATOM     22  N   UNL     1      -0.405  -9.125   1.282  0.00  0.00    +0.056 N 
ATOM     23  O   UNL     1      -0.405  -8.523   2.330  0.00  0.00    -0.126 OA
ATOM     24  O   UNL     1      -0.482 -10.332   1.278  0.00  0.00    -0.126 OA
ENDBRANCH  15  22
ENDBRANCH   2  13
TORSDOF 4
