REMARK  Name = ZINC06658997
REMARK  5 active torsions:
REMARK  status: ('A' for Active; 'I' for Inactive)
REMARK    1  A    between atoms: C_8  and  C_11
REMARK    2  A    between atoms: N_13  and  C_14
REMARK    3  A    between atoms: C_14  and  C_15
REMARK    4  A    between atoms: C_19  and  C_23
REMARK    5  A    between atoms: N_25  and  C_26
REMARK                            x       y       z     vdW  Elec       q    Type
REMARK                         _______ _______ _______ _____ _____    ______ ____
ROOT
ATOM      1  C   UNL     1       1.423   1.615  -0.003  0.00  0.00    +0.107 C 
ENDROOT
BRANCH   1   2
ATOM      2  C   UNL     1      -0.013   1.086   0.008  0.00  0.00    +0.006 C 
ATOM      3  C   UNL     1      -0.753   1.593  -1.232  0.00  0.00    +0.006 C 
ATOM      4  C   UNL     1      -2.188   1.063  -1.221  0.00  0.00    +0.013 C 
ATOM      5  C   UNL     1      -2.904   1.556   0.038  0.00  0.00    +0.075 C 
ATOM      6  C   UNL     1      -2.164   1.050   1.278  0.00  0.00    +0.013 C 
ATOM      7  C   UNL     1      -0.729   1.579   1.267  0.00  0.00    +0.006 C 
BRANCH   5   8
ATOM      8  C   UNL     1      -2.925   3.063   0.046  0.00  0.00    +0.216 C 
ATOM      9  O   UNL     1      -2.399   3.672   0.954  0.00  0.00    -0.276 OA
ATOM     10  N   UNL     1      -3.527   3.735  -0.955  0.00  0.00    -0.312 N 
ATOM     11  H   UNL     1      -3.947   3.248  -1.681  0.00  0.00    +0.149 HD
BRANCH  10  12
ATOM     12  C   UNL     1      -3.547   5.199  -0.947  0.00  0.00    +0.073 C 
ATOM     13  C   UNL     1      -4.727   5.689  -0.106  0.00  0.00    +0.022 C 
ATOM     14  C   UNL     1      -4.748   7.219  -0.097  0.00  0.00    +0.002 C 
ATOM     15  C   UNL     1      -4.894   7.735  -1.530  0.00  0.00    +0.000 C 
ATOM     16  C   UNL     1      -3.714   7.245  -2.372  0.00  0.00    +0.002 C 
ATOM     17  C   UNL     1      -3.693   5.715  -2.380  0.00  0.00    +0.022 C 
ENDBRANCH  10  12
ENDBRANCH   5   8
ENDBRANCH   1   2
BRANCH   1  20
ATOM     18  C   UNL     1       3.434   1.375  -1.357  0.00  0.00    +0.199 C 
ATOM     19  O   UNL     1       3.998   2.139  -0.603  0.00  0.00    -0.278 OA
ATOM     20  N   UNL     1       2.144   1.047  -1.144  0.00  0.00    -0.316 N 
ATOM     21  H   UNL     1       1.693   0.436  -1.747  0.00  0.00    +0.149 HD
BRANCH  18  29
ATOM     22  C   UNL     1       6.730  -2.975  -4.268  0.00  0.00    +0.000 A 
ATOM     23  C   UNL     1       7.333  -2.113  -5.165  0.00  0.00    +0.000 A 
ATOM     24  C   UNL     1       7.066  -0.760  -5.104  0.00  0.00    +0.002 A 
ATOM     25  C   UNL     1       6.197  -0.259  -4.146  0.00  0.00    -0.061 A 
ATOM     26  C   UNL     1       5.599  -1.119  -3.250  0.00  0.00    -0.047 A 
ATOM     27  C   UNL     1       5.865  -2.478  -3.314  0.00  0.00    +0.004 A 
ATOM     28  C   UNL     1       4.655  -0.620  -2.185  0.00  0.00    +0.028 C 
ATOM     29  C   UNL     1       4.176   0.790  -2.531  0.00  0.00    +0.021 C 
ATOM     30  C   UNL     1       5.935   1.224  -4.122  0.00  0.00    -0.045 C 
ATOM     31  N   UNL     1       5.354   1.625  -2.832  0.00  0.00    +0.389 N 
ATOM     32  H   UNL     1       6.055   1.505  -2.092  0.00  0.00    -0.084 HD
ATOM     33  H   UNL     1       5.070   2.610  -2.879  0.00  0.00    -0.084 HD
ENDBRANCH  18  29
ENDBRANCH   1  20
TORSDOF 5
