REMARK  Name = ZINC08596794
REMARK  12 active torsions:
REMARK  status: ('A' for Active; 'I' for Inactive)
REMARK    1  A    between atoms: C_1  and  C_2
REMARK    2  A    between atoms: C_2  and  N_3
REMARK    3  A    between atoms: C_5  and  C_25
REMARK    4  A    between atoms: C_12  and  S_14
REMARK    5  A    between atoms: S_14  and  N_17
REMARK    6  A    between atoms: N_17  and  C_18
REMARK    7  A    between atoms: N_17  and  C_19
REMARK    8  A    between atoms: N_27  and  C_28
REMARK    9  A    between atoms: C_28  and  C_29
REMARK   10  A    between atoms: C_29  and  C_30
REMARK   11  A    between atoms: C_30  and  N_31
REMARK   12  A    between atoms: C_35  and  C_38
REMARK                            x       y       z     vdW  Elec       q    Type
REMARK                         _______ _______ _______ _____ _____    ______ ____
ROOT
ATOM      1  N   UNL     1       0.690  -0.459  -1.208  0.00  0.00    -0.346 N 
ATOM      2  C   UNL     1      -0.033  -0.674  -2.315  0.00  0.00    +0.103 A 
ATOM      3  C   UNL     1       0.534  -1.131  -3.487  0.00  0.00    +0.100 A 
ATOM      4  C   UNL     1       1.982  -1.392  -3.522  0.00  0.00    +0.202 A 
ATOM      5  O   UNL     1       2.530  -1.796  -4.532  0.00  0.00    -0.286 OA
ATOM      6  C   UNL     1       2.741  -1.142  -2.283  0.00  0.00    +0.048 A 
ATOM      7  C   UNL     1       2.051  -0.671  -1.153  0.00  0.00    +0.053 A 
ATOM      8  C   UNL     1       2.757  -0.428   0.022  0.00  0.00    +0.028 A 
ATOM      9  C   UNL     1       4.117  -0.645   0.065  0.00  0.00    +0.030 A 
ATOM     10  C   UNL     1       4.797  -1.104  -1.053  0.00  0.00    +0.106 A 
ATOM     11  C   UNL     1       4.117  -1.361  -2.223  0.00  0.00    +0.042 A 
ENDROOT
BRANCH   3  12
ATOM     12  C   UNL     1      -0.296  -1.355  -4.681  0.00  0.00    +0.249 C 
ATOM     13  O   UNL     1      -1.504  -1.236  -4.613  0.00  0.00    -0.270 OA
ATOM     14  N   UNL     1       0.284  -1.692  -5.851  0.00  0.00    -0.311 N 
ATOM     15  H   UNL     1       1.238  -1.859  -5.888  0.00  0.00    +0.149 HD
BRANCH  14  16
ATOM     16  C   UNL     1      -0.528  -1.806  -7.064  0.00  0.00    +0.102 C 
BRANCH  16  17
ATOM     17  C   UNL     1       0.367  -2.197  -8.242  0.00  0.00    +0.000 C 
BRANCH  17  18
ATOM     18  C   UNL     1      -0.481  -2.316  -9.510  0.00  0.00    -0.077 C 
BRANCH  18  19
ATOM     19  N   UNL     1       0.378  -2.691 -10.641  0.00  0.00    +0.380 N 
ATOM     20  C   UNL     1       1.336  -1.611 -10.904  0.00  0.00    -0.079 C 
ATOM     21  C   UNL     1       2.287  -2.031 -12.028  0.00  0.00    -0.018 C 
ATOM     22  C   UNL     1       1.475  -2.316 -13.295  0.00  0.00    -0.001 C 
ATOM     23  C   UNL     1       0.429  -3.392 -12.988  0.00  0.00    -0.031 C 
ATOM     24  C   UNL     1      -0.452  -2.922 -11.829  0.00  0.00    -0.076 C 
ATOM     25  C   UNL     1      -0.438  -3.629 -14.226  0.00  0.00    +0.005 C 
ATOM     26  H   UNL     1       0.880  -3.536 -10.414  0.00  0.00    -0.082 HD
ENDBRANCH  18  19
ENDBRANCH  17  18
ENDBRANCH  16  17
ENDBRANCH  14  16
ENDBRANCH   3  12
BRANCH  10  27
ATOM     27  S   UNL     1       6.537  -1.373  -0.973  0.00  0.00    +0.061 S 
ATOM     28  O   UNL     1       7.024  -1.282  -2.304  0.00  0.00    -0.153 OA
ATOM     29  O   UNL     1       7.027  -0.548   0.076  0.00  0.00    -0.153 OA
BRANCH  27  30
ATOM     30  N   UNL     1       6.769  -2.940  -0.490  0.00  0.00    -0.177 NA
ATOM     31  C   UNL     1       6.869  -4.007  -1.489  0.00  0.00    +0.132 C 
BRANCH  30  32
ATOM     32  C   UNL     1       6.872  -3.259   0.936  0.00  0.00    +0.080 C 
ATOM     33  C   UNL     1       8.233  -3.901   1.217  0.00  0.00    +0.020 C 
ATOM     34  C   UNL     1       8.341  -4.235   2.706  0.00  0.00    +0.002 C 
ATOM     35  C   UNL     1       7.228  -5.210   3.093  0.00  0.00    +0.000 C 
ATOM     36  C   UNL     1       5.867  -4.568   2.812  0.00  0.00    +0.002 C 
ATOM     37  C   UNL     1       5.759  -4.234   1.323  0.00  0.00    +0.020 C 
ENDBRANCH  30  32
ENDBRANCH  27  30
ENDBRANCH  10  27
BRANCH   1  39
ATOM     38  C   UNL     1      -0.002   1.558  -0.010  0.00  0.00    +0.027 C 
ATOM     39  C   UNL     1       0.007   0.028  -0.007  0.00  0.00    +0.118 C 
ENDBRANCH   1  39
TORSDOF 9
