REMARK  Name = ZINC06572626
REMARK  12 active torsions:
REMARK  status: ('A' for Active; 'I' for Inactive)
REMARK    1  A    between atoms: C_1  and  C_2
REMARK    2  A    between atoms: C_5  and  N_9
REMARK    3  A    between atoms: C_6  and  C_8
REMARK    4  A    between atoms: N_9  and  C_10
REMARK    5  A    between atoms: C_10  and  N_12
REMARK    6  A    between atoms: N_12  and  C_13
REMARK    7  A    between atoms: N_12  and  C_20
REMARK    8  A    between atoms: C_13  and  C_14
REMARK    9  A    between atoms: C_22  and  C_28
REMARK   10  A    between atoms: C_22  and  C_29
REMARK   11  A    between atoms: C_24  and  C_26
REMARK   12  A    between atoms: C_24  and  C_27
REMARK                            x       y       z     vdW  Elec       q    Type
REMARK                         _______ _______ _______ _____ _____    ______ ____
ROOT
ATOM      1  N   UNL     1      -0.470  -6.176  -1.114  0.00  0.00    -0.305 N 
ENDROOT
BRANCH   1   2
ATOM      2  C   UNL     1      -0.601  -6.886   0.165  0.00  0.00    +0.073 C 
ATOM      3  C   UNL     1      -1.704  -6.226   0.995  0.00  0.00    +0.009 C 
ATOM      4  C   UNL     1      -1.844  -6.946   2.335  0.00  0.00    -0.072 C 
ATOM      5  N   UNL     1      -0.579  -7.026   3.050  0.00  0.00    +0.386 N 
ATOM      6  C   UNL     1       0.594  -7.449   2.302  0.00  0.00    -0.072 C 
ATOM      7  C   UNL     1       0.712  -6.777   0.938  0.00  0.00    +0.009 C 
ATOM      8  C   UNL     1       1.840  -7.041   3.124  0.00  0.00    -0.010 C 
ATOM      9  C   UNL     1       0.644  -8.970   2.141  0.00  0.00    -0.010 C 
ATOM     10  C   UNL     1      -2.478  -8.322   2.132  0.00  0.00    -0.010 C 
ATOM     11  C   UNL     1      -2.819  -6.116   3.202  0.00  0.00    -0.010 C 
ATOM     12  H   UNL     1      -0.385  -6.110   3.462  0.00  0.00    -0.084 HD
ATOM     13  H   UNL     1      -0.700  -7.658   3.846  0.00  0.00    -0.084 HD
ENDBRANCH   1   2
BRANCH   1  14
ATOM     14  C   UNL     1      -0.275  -4.842  -1.127  0.00  0.00    +0.138 C 
ATOM     15  S   UNL     1      -0.245  -3.996  -2.616  0.00  0.00    -0.018 S 
BRANCH  14  16
ATOM     16  N   UNL     1      -0.105  -4.174   0.031  0.00  0.00    -0.297 N 
ATOM     17  H   UNL     1      -0.051  -4.661   0.868  0.00  0.00    +0.154 HD
BRANCH  16  22
ATOM     18  C   UNL     1       0.296   1.484   0.009  0.00  0.00    +0.044 C 
ATOM     19  C   UNL     1       0.189  -0.019   0.015  0.00  0.00    -0.050 A 
ATOM     20  C   UNL     1       0.949  -0.768  -0.865  0.00  0.00    +0.005 A 
ATOM     21  C   UNL     1       0.854  -2.145  -0.863  0.00  0.00    +0.024 A 
ATOM     22  C   UNL     1      -0.006  -2.779   0.025  0.00  0.00    +0.036 A 
ATOM     23  C   UNL     1      -0.768  -2.024   0.908  0.00  0.00    -0.029 A 
ATOM     24  C   UNL     1      -0.664  -0.646   0.903  0.00  0.00    +0.008 A 
ATOM     25  C   UNL     1      -1.702  -2.707   1.872  0.00  0.00    +0.045 C 
ENDBRANCH  16  22
ENDBRANCH  14  16
ENDBRANCH   1  14
BRANCH   1  26
ATOM     26  C   UNL     1      -0.550  -6.917  -2.375  0.00  0.00    +0.142 C 
BRANCH  26  27
ATOM     27  C   UNL     1       0.828  -7.376  -2.777  0.00  0.00    -0.027 A 
ATOM     28  C   UNL     1       1.639  -6.577  -3.567  0.00  0.00    +0.025 A 
ATOM     29  C   UNL     1       2.897  -7.031  -3.916  0.00  0.00    +0.111 A 
ATOM     30  N   UNL     1       3.327  -8.208  -3.506  0.00  0.00    -0.263 NA
ATOM     31  C   UNL     1       2.582  -8.995  -2.754  0.00  0.00    +0.111 A 
ATOM     32  C   UNL     1       1.316  -8.605  -2.361  0.00  0.00    +0.025 A 
ENDBRANCH  26  27
ENDBRANCH   1  26
TORSDOF 6
