REMARK  Name = ZINC38556666
REMARK  10 active torsions:
REMARK  status: ('A' for Active; 'I' for Inactive)
REMARK    1  A    between atoms: C_1  and  C_2
REMARK    2  A    between atoms: C_2  and  C_12
REMARK    3  A    between atoms: C_4  and  N_11
REMARK    4  A    between atoms: C_7  and  C_9
REMARK    5  A    between atoms: C_7  and  C_10
REMARK    6  A    between atoms: C_12  and  N_13
REMARK    7  A    between atoms: N_13  and  C_14
REMARK    8  A    between atoms: C_17  and  S_23
REMARK    9  A    between atoms: C_19  and  N_20
REMARK   10  A    between atoms: S_23  and  C_26
REMARK                            x       y       z     vdW  Elec       q    Type
REMARK                         _______ _______ _______ _____ _____    ______ ____
ROOT
ATOM      1  N   UNL     1      -2.123  -0.367  -1.423  0.00  0.00    -0.342 N 
ATOM      2  H   UNL     1      -1.683   0.171  -2.098  0.00  0.00    +0.146 HD
ENDROOT
BRANCH   1   3
ATOM      3  C   UNL     1      -3.516  -0.473  -1.413  0.00  0.00    +0.058 A 
ATOM      4  C   UNL     1      -4.142  -1.338  -0.524  0.00  0.00    +0.027 A 
ATOM      5  C   UNL     1      -5.519  -1.440  -0.517  0.00  0.00    +0.029 A 
ATOM      6  C   UNL     1      -6.275  -0.682  -1.393  0.00  0.00    +0.100 A 
ATOM      7  C   UNL     1      -5.655   0.179  -2.279  0.00  0.00    +0.062 A 
ATOM      8  C   UNL     1      -4.278   0.290  -2.288  0.00  0.00    +0.149 A 
BRANCH   8   9
ATOM      9  N   UNL     1      -3.616   1.217  -3.232  0.00  0.00    +0.058 N 
ATOM     10  O   UNL     1      -2.638   1.837  -2.885  0.00  0.00    -0.126 OA
ATOM     11  O   UNL     1      -4.052   1.354  -4.351  0.00  0.00    -0.126 OA
ENDBRANCH   8   9
BRANCH   6  12
ATOM     12  S   UNL     1      -8.032  -0.816  -1.381  0.00  0.00    +0.091 S 
ATOM     13  O   UNL     1      -8.433  -0.451  -2.694  0.00  0.00    -0.161 OA
ATOM     14  O   UNL     1      -8.293  -2.119  -0.879  0.00  0.00    -0.161 OA
BRANCH  12  15
ATOM     15  C   UNL     1      -8.586   0.435  -0.189  0.00  0.00    +0.526 C 
ATOM     16  F   UNL     1      -8.166   1.700  -0.612  0.00  0.00    -0.150 F 
ATOM     17  F   UNL     1      -9.982   0.411  -0.103  0.00  0.00    -0.150 F 
ATOM     18  F   UNL     1      -8.037   0.157   1.068  0.00  0.00    -0.150 F 
ENDBRANCH  12  15
ENDBRANCH   6  12
ENDBRANCH   1   3
BRANCH   1  19
ATOM     19  C   UNL     1      -1.328  -1.070  -0.412  0.00  0.00    +0.108 C 
BRANCH  19  21
ATOM     20  C   UNL     1       0.372   0.728  -0.534  0.00  0.00    +0.012 C 
ATOM     21  C   UNL     1       0.172  -0.786  -0.649  0.00  0.00    -0.018 C 
ATOM     22  C   UNL     1       0.513  -1.251  -2.060  0.00  0.00    -0.008 C 
ATOM     23  C   UNL     1       2.021  -1.212  -2.294  0.00  0.00    -0.074 C 
ATOM     24  C   UNL     1       2.698  -2.164  -1.310  0.00  0.00    -0.010 C 
ATOM     25  C   UNL     1       2.436  -1.732   0.128  0.00  0.00    -0.036 C 
ATOM     26  C   UNL     1       0.961  -1.524   0.416  0.00  0.00    +0.014 C 
ATOM     27  C   UNL     1       2.949  -2.856   1.055  0.00  0.00    +0.011 C 
ATOM     28  C   UNL     1       3.244  -0.471   0.451  0.00  0.00    +0.011 C 
BRANCH  23  29
ATOM     29  N   UNL     1       2.307  -1.657  -3.669  0.00  0.00    +0.380 N 
ATOM     30  H   UNL     1       1.846  -1.044  -4.324  0.00  0.00    -0.090 HD
ATOM     31  H   UNL     1       3.303  -1.634  -3.830  0.00  0.00    -0.090 HD
ATOM     32  H   UNL     1       1.968  -2.599  -3.795  0.00  0.00    -0.090 HD
ENDBRANCH  23  29
ENDBRANCH  19  21
ENDBRANCH   1  19
TORSDOF 7
