REMARK  Name = ZINC08924208
REMARK  6 active torsions:
REMARK  status: ('A' for Active; 'I' for Inactive)
REMARK    1  A    between atoms: C_1  and  C_2
REMARK    2  A    between atoms: C_2  and  C_4
REMARK    3  A    between atoms: C_2  and  N_58
REMARK    4  A    between atoms: N_6  and  C_7
REMARK    5  A    between atoms: C_8  and  C_15
REMARK    6  A    between atoms: C_21  and  C_23
REMARK                            x       y       z     vdW  Elec       q    Type
REMARK                         _______ _______ _______ _____ _____    ______ ____
ROOT
ATOM      1  C   UNL     1      -4.741   8.318  -0.402  0.00  0.00    -0.004 C 
ATOM      2  C   UNL     1      -4.654   7.148  -1.384  0.00  0.00    +0.017 C 
ENDROOT
BRANCH   2   7
ATOM      3  C   UNL     1      -3.105   8.497  -2.676  0.00  0.00    -0.077 C 
ATOM      4  C   UNL     1      -1.777   9.026  -2.097  0.00  0.00    -0.020 C 
ATOM      5  C   UNL     1      -1.061   7.733  -1.625  0.00  0.00    -0.013 C 
ATOM      6  C   UNL     1      -2.253   6.881  -1.123  0.00  0.00    -0.037 C 
ATOM      7  N   UNL     1      -3.340   7.172  -2.079  0.00  0.00    +0.392 N 
ATOM      8  H   UNL     1      -3.340   6.461  -2.820  0.00  0.00    -0.080 HD
BRANCH   6   9
ATOM      9  C   UNL     1      -1.906   5.416  -1.166  0.00  0.00    -0.057 A 
ATOM     10  C   UNL     1      -1.882   4.747  -2.376  0.00  0.00    +0.006 A 
ATOM     11  C   UNL     1      -1.565   3.403  -2.420  0.00  0.00    +0.049 A 
ATOM     12  C   UNL     1      -1.269   2.720  -1.249  0.00  0.00    +0.162 A 
ATOM     13  C   UNL     1      -1.291   3.393  -0.033  0.00  0.00    +0.162 A 
ATOM     14  C   UNL     1      -1.611   4.742   0.004  0.00  0.00    +0.051 A 
ATOM     15  O   UNL     1      -0.996   2.744   1.127  0.00  0.00    -0.485 OA
ATOM     16  C   UNL     1      -1.043   1.314   1.095  0.00  0.00    +0.270 C 
ATOM     17  C   UNL     1      -0.305   0.837  -0.164  0.00  0.00    +0.270 C 
ATOM     18  O   UNL     1      -0.961   1.396  -1.307  0.00  0.00    -0.485 OA
ENDBRANCH   6   9
ENDBRANCH   2   7
BRANCH   2  19
ATOM     19  C   UNL     1      -5.758   7.264  -2.403  0.00  0.00    +0.204 C 
ATOM     20  O   UNL     1      -5.488   7.362  -3.582  0.00  0.00    -0.277 OA
ATOM     21  N   UNL     1      -7.045   7.260  -2.005  0.00  0.00    -0.281 N 
ATOM     22  H   UNL     1      -7.261   7.182  -1.063  0.00  0.00    +0.155 HD
BRANCH  21  23
ATOM     23  C   UNL     1      -8.061   7.367  -2.943  0.00  0.00    +0.084 A 
ATOM     24  C   UNL     1      -9.429   7.381  -2.731  0.00  0.00    +0.068 A 
ATOM     25  C   UNL     1     -10.295   7.504  -3.904  0.00  0.00    -0.023 A 
ATOM     26  C   UNL     1      -9.651   7.594  -5.081  0.00  0.00    -0.004 A 
ATOM     27  S   UNL     1      -7.927   7.523  -4.661  0.00  0.00    -0.077 S 
ATOM     28  C   UNL     1     -10.606   7.723  -6.237  0.00  0.00    +0.043 C 
ATOM     29  C   UNL     1     -11.947   8.134  -5.591  0.00  0.00    +0.010 C 
ATOM     30  C   UNL     1     -11.800   7.558  -4.168  0.00  0.00    +0.037 C 
BRANCH  24  31
ATOM     31  C   UNL     1      -9.990   7.275  -1.381  0.00  0.00    +0.244 C 
ATOM     32  O   UNL     1     -10.198   8.281  -0.728  0.00  0.00    -0.270 OA
ATOM     33  N   UNL     1     -10.275   6.064  -0.862  0.00  0.00    -0.325 N 
ATOM     34  H   UNL     1     -10.109   5.263  -1.382  0.00  0.00    +0.145 HD
ATOM     35  H   UNL     1     -10.646   5.994   0.031  0.00  0.00    +0.145 HD
ENDBRANCH  24  31
ENDBRANCH  21  23
ENDBRANCH   2  19
TORSDOF 5
