REMARK  Name = ZINC39679068
REMARK  9 active torsions:
REMARK  status: ('A' for Active; 'I' for Inactive)
REMARK    1  A    between atoms: C_1  and  N_2
REMARK    2  A    between atoms: N_2  and  C_3
REMARK    3  A    between atoms: N_2  and  C_4
REMARK    4  A    between atoms: C_4  and  C_5
REMARK    5  A    between atoms: C_5  and  C_6
REMARK    6  A    between atoms: C_6  and  C_7
REMARK    7  A    between atoms: C_7  and  N_8
REMARK    8  A    between atoms: C_9  and  C_11
REMARK    9  A    between atoms: C_22  and  C_24
REMARK                            x       y       z     vdW  Elec       q    Type
REMARK                         _______ _______ _______ _____ _____    ______ ____
ROOT
ATOM      1  C   UNL     1       0.815  -0.981   8.579  0.00  0.00    +0.100 C 
ATOM      2  C   UNL     1       0.784  -2.525   8.630  0.00  0.00    +0.121 C 
ATOM      3  N   UNL     1       0.631  -2.849  10.068  0.00  0.00    -0.300 N 
ATOM      4  C   UNL     1      -0.319  -1.830  10.576  0.00  0.00    +0.115 C 
ATOM      5  C   UNL     1       0.090  -0.529   9.857  0.00  0.00    -0.004 C 
ATOM      6  C   UNL     1       1.031   0.287  10.738  0.00  0.00    -0.010 C 
ATOM      7  C   UNL     1       0.271   0.773  11.976  0.00  0.00    -0.082 C 
ATOM      8  N   UNL     1      -0.874   1.591  11.559  0.00  0.00    +0.379 N 
ATOM      9  C   UNL     1      -1.820   0.774  10.790  0.00  0.00    -0.082 C 
ATOM     10  C   UNL     1      -1.149   0.288   9.502  0.00  0.00    -0.010 C 
ATOM     11  C   UNL     1       1.221  -3.845  10.757  0.00  0.00    +0.219 C 
ATOM     12  O   UNL     1       0.992  -3.982  11.940  0.00  0.00    -0.275 OA
ATOM     13  H   UNL     1      -1.337   1.960  12.376  0.00  0.00    -0.086 HD
ATOM     14  H   UNL     1      -0.549   2.356  10.986  0.00  0.00    -0.086 HD
ENDROOT
BRANCH  11  15
ATOM     15  C   UNL     1       2.166  -4.788  10.059  0.00  0.00    +0.079 C 
ATOM     16  C   UNL     1       2.689  -5.828  11.058  0.00  0.00    +0.017 C 
ATOM     17  C   UNL     1       3.776  -6.657  10.369  0.00  0.00    +0.027 C 
ATOM     18  C   UNL     1       3.289  -7.142   9.036  0.00  0.00    -0.031 C 
ATOM     19  C   UNL     1       2.269  -6.646   8.412  0.00  0.00    -0.030 C 
ATOM     20  C   UNL     1       1.427  -5.519   8.935  0.00  0.00    +0.039 C 
ENDBRANCH  11  15
BRANCH   1  22
ATOM     21  N   UNL     1       0.441   0.690   6.793  0.00  0.00    -0.315 N 
ATOM     22  C   UNL     1       0.086  -0.481   7.358  0.00  0.00    +0.218 C 
ATOM     23  O   UNL     1      -0.820  -1.134   6.883  0.00  0.00    -0.275 OA
ATOM     24  H   UNL     1       1.165   1.211   7.172  0.00  0.00    +0.149 HD
BRANCH  21  25
ATOM     25  C   UNL     1      -0.268   1.175   5.606  0.00  0.00    +0.104 C 
BRANCH  25  26
ATOM     26  C   UNL     1       0.327   2.516   5.170  0.00  0.00    +0.017 C 
BRANCH  26  27
ATOM     27  C   UNL     1      -0.413   3.022   3.930  0.00  0.00    -0.017 C 
BRANCH  27  28
ATOM     28  C   UNL     1       0.181   4.363   3.494  0.00  0.00    -0.080 C 
BRANCH  28  30
ATOM     29  C   UNL     1      -1.927   5.139   2.652  0.00  0.00    -0.097 C 
ATOM     30  N   UNL     1      -0.529   4.850   2.304  0.00  0.00    +0.376 N 
ATOM     31  C   UNL     1       0.117   6.074   1.814  0.00  0.00    -0.097 C 
ATOM     32  H   UNL     1      -0.501   4.144   1.583  0.00  0.00    -0.083 HD
ENDBRANCH  28  30
ENDBRANCH  27  28
ENDBRANCH  26  27
ENDBRANCH  25  26
ENDBRANCH  21  25
ENDBRANCH   1  22
TORSDOF 7
