REMARK  Name = ZINC20465319
REMARK  10 active torsions:
REMARK  status: ('A' for Active; 'I' for Inactive)
REMARK    1  A    between atoms: C_1  and  O_2
REMARK    2  A    between atoms: O_2  and  C_3
REMARK    3  A    between atoms: C_3  and  C_4
REMARK    4  A    between atoms: N_9  and  C_10
REMARK    5  A    between atoms: C_12  and  C_22
REMARK    6  A    between atoms: C_15  and  C_20
REMARK    7  A    between atoms: C_17  and  O_19
REMARK    8  A    between atoms: C_20  and  O_21
REMARK    9  A    between atoms: C_22  and  N_23
REMARK   10  A    between atoms: N_26  and  C_27
REMARK                            x       y       z     vdW  Elec       q    Type
REMARK                         _______ _______ _______ _____ _____    ______ ____
ROOT
ATOM      1  C   UNL     1       0.178   3.823   4.416  0.00  0.00    -0.006 C 
ATOM      2  C   UNL     1       0.928   3.461   5.718  0.00  0.00    +0.125 C 
ATOM      3  O   UNL     1       2.247   3.064   5.285  0.00  0.00    -0.369 OA
ATOM      4  C   UNL     1       2.601   3.995   4.239  0.00  0.00    +0.171 C 
ATOM      5  C   UNL     1       1.304   4.182   3.421  0.00  0.00    +0.135 C 
ENDROOT
BRANCH   1  10
ATOM      6  C   UNL     1      -0.486   2.546   2.458  0.00  0.00    -0.042 C 
ATOM      7  C   UNL     1      -1.835   2.009   1.948  0.00  0.00    -0.015 C 
ATOM      8  C   UNL     1      -2.716   1.864   3.210  0.00  0.00    -0.020 C 
ATOM      9  C   UNL     1      -2.043   2.833   4.215  0.00  0.00    -0.078 C 
ATOM     10  N   UNL     1      -0.592   2.671   3.928  0.00  0.00    +0.388 N 
ATOM     11  H   UNL     1      -0.168   1.794   4.441  0.00  0.00    -0.081 HD
BRANCH   6  12
ATOM     12  C   UNL     1       0.635   1.570   2.097  0.00  0.00    +0.144 C 
BRANCH  12  14
ATOM     13  C   UNL     1       1.171  -0.765   2.023  0.00  0.00    +0.193 C 
ATOM     14  O   UNL     1       0.194   0.231   2.330  0.00  0.00    -0.385 OA
ENDBRANCH  12  14
ENDBRANCH   6  12
ENDBRANCH   1  10
BRANCH   5  15
ATOM     15  O   UNL     1       1.285   3.294   2.302  0.00  0.00    -0.391 OA
ATOM     16  H   UNL     1       2.024   3.411   1.495  0.00  0.00    +0.210 HD
ENDBRANCH   5  15
BRANCH   4  17
ATOM     17  C   UNL     1       3.708   3.414   3.357  0.00  0.00    +0.190 C 
BRANCH  17  18
ATOM     18  O   UNL     1       4.928   3.358   4.099  0.00  0.00    -0.392 OA
ATOM     19  H   UNL     1       5.841   2.966   3.627  0.00  0.00    +0.210 HD
ENDBRANCH  17  18
ENDBRANCH   4  17
BRANCH   2  20
ATOM     20  C   UNL     1       0.229   2.301   6.430  0.00  0.00    +0.135 C 
BRANCH  20  21
ATOM     21  N   UNL     1       0.949   1.982   7.665  0.00  0.00    -0.297 N 
ATOM     22  C   UNL     1       0.513   0.987   8.462  0.00  0.00    +0.304 C 
ATOM     23  O   UNL     1      -0.479   0.353   8.156  0.00  0.00    -0.253 OA
ATOM     24  N   UNL     1       1.175   0.693   9.598  0.00  0.00    -0.269 N 
ATOM     25  H   UNL     1       1.847   2.555   7.942  0.00  0.00    +0.150 HD
ATOM     26  H   UNL     1       2.023   1.317   9.917  0.00  0.00    +0.156 HD
BRANCH  24  27
ATOM     27  C   UNL     1       0.784  -0.405  10.372  0.00  0.00    +0.036 A 
ATOM     28  C   UNL     1       0.898  -0.357  11.756  0.00  0.00    +0.023 A 
ATOM     29  C   UNL     1       0.507  -1.441  12.518  0.00  0.00    +0.003 A 
ATOM     30  C   UNL     1       0.012  -2.577  11.905  0.00  0.00    +0.020 A 
ATOM     31  C   UNL     1      -0.098  -2.630  10.526  0.00  0.00    +0.043 A 
ATOM     32  C   UNL     1       0.287  -1.547   9.759  0.00  0.00    +0.043 A 
ATOM     33 CL   UNL     1      -0.720  -4.059   9.761  0.00  0.00    -0.083 Cl
ENDBRANCH  24  27
ENDBRANCH  20  21
ENDBRANCH   2  20
TORSDOF 9
