REMARK  Name = ZINC39937709
REMARK  11 active torsions:
REMARK  status: ('A' for Active; 'I' for Inactive)
REMARK    1  A    between atoms: C_1  and  C_2
REMARK    2  A    between atoms: C_2  and  N_3
REMARK    3  A    between atoms: N_3  and  C_4
REMARK    4  A    between atoms: C_8  and  S_10
REMARK    5  A    between atoms: S_10  and  C_11
REMARK    6  A    between atoms: C_11  and  C_12
REMARK    7  A    between atoms: C_17  and  C_34
REMARK    8  A    between atoms: C_18  and  C_23
REMARK    9  A    between atoms: N_25  and  C_26
REMARK   10  A    between atoms: C_29  and  C_33
REMARK   11  A    between atoms: C_31  and  C_32
REMARK                            x       y       z     vdW  Elec       q    Type
REMARK                         _______ _______ _______ _____ _____    ______ ____
ROOT
ATOM      1  C   UNL     1      -0.415  -5.737   6.782  0.00  0.00    +0.134 C 
ATOM      2  N   UNL     1      -1.705  -5.968   6.735  0.00  0.00    -0.160 NA
ATOM      3  C   UNL     1      -2.345  -6.693   7.659  0.00  0.00    +0.271 C 
ATOM      4  O   UNL     1      -3.547  -6.889   7.584  0.00  0.00    -0.268 OA
ATOM      5  C   UNL     1      -1.539  -7.256   8.788  0.00  0.00    +0.071 C 
ATOM      6  C   UNL     1      -1.960  -8.005   9.818  0.00  0.00    -0.036 C 
ATOM      7  C   UNL     1      -0.931  -8.449  10.832  0.00  0.00    +0.165 C 
ATOM      8  S   UNL     1       0.606  -7.701  10.156  0.00  0.00    -0.088 S 
ATOM      9  C   UNL     1      -0.100  -6.923   8.725  0.00  0.00    +0.112 C 
ATOM     10  N   UNL     1       0.374  -6.199   7.739  0.00  0.00    -0.227 NA
ATOM     11  C   UNL     1      -3.411  -8.390   9.960  0.00  0.00    +0.041 C 
ENDROOT
BRANCH   7  12
ATOM     12  C   UNL     1      -0.828  -9.952  10.873  0.00  0.00    +0.235 C 
ATOM     13  O   UNL     1      -0.965 -10.598   9.856  0.00  0.00    -0.274 OA
ATOM     14  N   UNL     1      -0.584 -10.579  12.041  0.00  0.00    -0.284 N 
ATOM     15  H   UNL     1      -0.395 -10.062  12.839  0.00  0.00    +0.155 HD
BRANCH  14  16
ATOM     16  C   UNL     1      -0.603 -11.977  12.102  0.00  0.00    +0.036 A 
ATOM     17  C   UNL     1      -1.342 -12.704  11.178  0.00  0.00    +0.024 A 
ATOM     18  C   UNL     1      -1.358 -14.084  11.241  0.00  0.00    +0.005 A 
ATOM     19  C   UNL     1      -0.640 -14.741  12.223  0.00  0.00    -0.050 A 
ATOM     20  C   UNL     1       0.096 -14.020  13.145  0.00  0.00    +0.008 A 
ATOM     21  C   UNL     1       0.122 -12.641  13.083  0.00  0.00    -0.029 A 
ATOM     22  C   UNL     1       0.930 -11.856  14.084  0.00  0.00    +0.045 C 
ATOM     23  C   UNL     1      -0.661 -16.247  12.289  0.00  0.00    +0.044 C 
ENDBRANCH  14  16
ENDBRANCH   7  12
BRANCH   1  24
ATOM     24  C   UNL     1       0.202  -4.907   5.687  0.00  0.00    +0.150 C 
BRANCH  24  25
ATOM     25  S   UNL     1      -1.086  -4.403   4.512  0.00  0.00    -0.090 S 
BRANCH  25  29
ATOM     26  C   UNL     1       0.701  -1.931   1.234  0.00  0.00    +0.222 C 
ATOM     27  N   UNL     1       1.630  -2.421   2.277  0.00  0.00    -0.241 N 
ATOM     28  N   UNL     1       1.051  -3.178   3.271  0.00  0.00    -0.171 NA
ATOM     29  C   UNL     1      -0.217  -3.453   3.309  0.00  0.00    +0.151 C 
ATOM     30  S   UNL     1      -0.876  -2.646   1.857  0.00  0.00    -0.058 S 
ATOM     31  H   UNL     1       2.580  -2.223   2.261  0.00  0.00    +0.171 HD
BRANCH  26  32
ATOM     32  N   UNL     1       0.650  -0.463   1.211  0.00  0.00    -0.289 NA
ATOM     33  H   UNL     1       1.577  -0.068   1.262  0.00  0.00    +0.124 HD
BRANCH  32  35
ATOM     34  C   UNL     1      -0.096   1.550   0.032  0.00  0.00    +0.020 C 
ATOM     35  C   UNL     1      -0.063   0.020   0.021  0.00  0.00    +0.080 C 
ENDBRANCH  32  35
ENDBRANCH  26  32
ENDBRANCH  25  29
ENDBRANCH  24  25
ENDBRANCH   1  24
TORSDOF 7
