REMARK  Name = ZINC03850984
REMARK  8 active torsions:
REMARK  status: ('A' for Active; 'I' for Inactive)
REMARK    1  A    between atoms: C_4  and  C_7
REMARK    2  A    between atoms: C_7  and  C_9
REMARK    3  A    between atoms: C_7  and  N_46
REMARK    4  A    between atoms: C_9  and  C_11
REMARK    5  A    between atoms: C_9  and  N_17
REMARK    6  A    between atoms: N_17  and  S_18
REMARK    7  A    between atoms: S_18  and  C_21
REMARK    8  A    between atoms: C_24  and  O_27
REMARK                            x       y       z     vdW  Elec       q    Type
REMARK                         _______ _______ _______ _____ _____    ______ ____
ROOT
ATOM      1  C   UNL     1       2.357  -2.610  -2.474  0.00  0.00    +0.096 C 
ENDROOT
BRANCH   1   2
ATOM      2  C   UNL     1       2.075  -1.339  -3.234  0.00  0.00    -0.030 A 
ATOM      3  C   UNL     1       0.810  -1.104  -3.741  0.00  0.00    +0.005 A 
ATOM      4  C   UNL     1       0.550   0.064  -4.434  0.00  0.00    +0.000 A 
ATOM      5  C   UNL     1       1.557   0.992  -4.627  0.00  0.00    +0.000 A 
ATOM      6  C   UNL     1       2.822   0.754  -4.124  0.00  0.00    +0.000 A 
ATOM      7  C   UNL     1       3.081  -0.412  -3.427  0.00  0.00    +0.005 A 
ENDBRANCH   1   2
BRANCH   1   8
ATOM      8  N   UNL     1       1.219  -2.924  -1.607  0.00  0.00    -0.184 NA
ATOM      9  H   UNL     1       0.460  -3.413  -1.960  0.00  0.00    +0.149 HD
BRANCH   8  10
ATOM     10  S   UNL     1       1.228  -2.442  -0.022  0.00  0.00    +0.059 S 
ATOM     11  O   UNL     1       2.484  -2.836   0.514  0.00  0.00    -0.153 OA
ATOM     12  O   UNL     1      -0.007  -2.865   0.539  0.00  0.00    -0.153 OA
BRANCH  10  13
ATOM     13  C   UNL     1       1.208  -0.680  -0.013  0.00  0.00    +0.105 A 
ATOM     14  C   UNL     1       0.002  -0.004   0.002  0.00  0.00    +0.032 A 
ATOM     15  C   UNL     1      -0.017   1.377   0.010  0.00  0.00    +0.047 A 
ATOM     16  C   UNL     1       1.176   2.086   0.002  0.00  0.00    +0.117 A 
ATOM     17  C   UNL     1       2.385   1.405  -0.013  0.00  0.00    +0.047 A 
ATOM     18  C   UNL     1       2.398   0.024  -0.021  0.00  0.00    +0.032 A 
BRANCH  16  19
ATOM     19  O   UNL     1       1.160   3.445   0.009  0.00  0.00    -0.507 OA
ATOM     20  H   UNL     1       1.164   3.834   0.894  0.00  0.00    +0.292 HD
ENDBRANCH  16  19
ENDBRANCH  10  13
ENDBRANCH   8  10
ENDBRANCH   1   8
BRANCH   1  21
ATOM     21  C   UNL     1       2.575  -3.757  -3.463  0.00  0.00    -0.021 C 
BRANCH  21  25
ATOM     22  C   UNL     1       3.375  -7.360  -1.312  0.00  0.00    +0.000 A 
ATOM     23  C   UNL     1       2.110  -7.121  -1.814  0.00  0.00    +0.000 A 
ATOM     24  C   UNL     1       1.851  -5.956  -2.510  0.00  0.00    +0.002 A 
ATOM     25  C   UNL     1       2.857  -5.028  -2.704  0.00  0.00    -0.060 A 
ATOM     26  C   UNL     1       4.124  -5.269  -2.206  0.00  0.00    +0.002 A 
ATOM     27  C   UNL     1       4.382  -6.433  -1.506  0.00  0.00    +0.000 A 
ENDBRANCH  21  25
BRANCH  21  30
ATOM     28  H   UNL     1       3.525  -2.631  -4.901  0.00  0.00    -0.089 HD
ATOM     29  H   UNL     1       4.559  -3.317  -3.793  0.00  0.00    -0.089 HD
ATOM     30  N   UNL     1       3.717  -3.464  -4.347  0.00  0.00    +0.384 N 
ATOM     31  H   UNL     1       3.867  -4.259  -4.980  0.00  0.00    -0.089 HD
ENDBRANCH  21  30
ENDBRANCH   1  21
TORSDOF 8
