REMARK  Name = ZINC35313366
REMARK  10 active torsions:
REMARK  status: ('A' for Active; 'I' for Inactive)
REMARK    1  A    between atoms: C_1  and  C_2
REMARK    2  A    between atoms: C_12  and  N_30
REMARK    3  A    between atoms: C_13  and  C_15
REMARK    4  A    between atoms: N_17  and  C_18
REMARK    5  A    between atoms: C_18  and  C_19
REMARK    6  A    between atoms: C_19  and  C_20
REMARK    7  A    between atoms: C_23  and  O_28
REMARK    8  A    between atoms: C_24  and  O_26
REMARK    9  A    between atoms: O_26  and  C_27
REMARK   10  A    between atoms: O_28  and  C_29
REMARK                            x       y       z     vdW  Elec       q    Type
REMARK                         _______ _______ _______ _____ _____    ______ ____
ROOT
ATOM      1  C   UNL     1      -0.018   1.503   0.010  0.00  0.00    +0.046 C 
ATOM      2  C   UNL     1       0.002  -0.004   0.002  0.00  0.00    -0.027 A 
ATOM      3  C   UNL     1       0.006  -0.680  -1.179  0.00  0.00    +0.005 A 
ATOM      4  C   UNL     1       0.025  -2.074  -1.208  0.00  0.00    +0.001 A 
ATOM      5  C   UNL     1       0.041  -2.798  -0.057  0.00  0.00    +0.010 A 
ATOM      6  C   UNL     1       0.037  -2.135   1.185  0.00  0.00    -0.001 A 
ATOM      7  C   UNL     1       0.023  -0.716   1.214  0.00  0.00    +0.050 A 
ATOM      8  N   UNL     1       0.025  -0.075   2.387  0.00  0.00    -0.348 N 
ATOM      9  C   UNL     1       0.045  -0.729   3.521  0.00  0.00    +0.088 A 
ATOM     10  C   UNL     1       0.065  -2.149   3.601  0.00  0.00    +0.028 A 
ATOM     11  C   UNL     1       0.053  -2.854   2.385  0.00  0.00    +0.022 A 
ATOM     12  C   UNL     1       0.085  -2.686   4.956  0.00  0.00    +0.053 A 
ATOM     13  C   UNL     1       0.083  -1.804   6.010  0.00  0.00    +0.097 A 
ATOM     14  S   UNL     1       0.053  -0.207   5.220  0.00  0.00    -0.064 S 
ATOM     15  H   UNL     1       0.012   0.894   2.398  0.00  0.00    +0.166 HD
ENDROOT
BRANCH  13  16
ATOM     16  C   UNL     1       0.099  -2.094   7.397  0.00  0.00    +0.253 C 
ATOM     17  O   UNL     1       0.119  -3.252   7.776  0.00  0.00    -0.270 OA
ATOM     18  N   UNL     1       0.094  -1.090   8.296  0.00  0.00    -0.311 N 
ATOM     19  H   UNL     1       0.078  -0.169   7.994  0.00  0.00    +0.149 HD
BRANCH  18  20
ATOM     20  C   UNL     1       0.111  -1.391   9.730  0.00  0.00    +0.109 C 
BRANCH  20  21
ATOM     21  C   UNL     1       0.100  -0.084  10.525  0.00  0.00    +0.054 C 
BRANCH  21  22
ATOM     22  C   UNL     1       0.118  -0.393  12.000  0.00  0.00    -0.042 A 
ATOM     23  C   UNL     1      -1.072  -0.557  12.685  0.00  0.00    +0.007 A 
ATOM     24  C   UNL     1      -1.061  -0.841  14.038  0.00  0.00    +0.049 A 
ATOM     25  C   UNL     1       0.145  -0.962  14.710  0.00  0.00    +0.161 A 
ATOM     26  C   UNL     1       1.342  -0.798  14.021  0.00  0.00    +0.162 A 
ATOM     27  C   UNL     1       1.324  -0.518  12.664  0.00  0.00    +0.053 A 
BRANCH  26  28
ATOM     28  O   UNL     1       2.528  -0.916  14.677  0.00  0.00    -0.491 OA
ATOM     29  C   UNL     1       3.717  -0.735  13.905  0.00  0.00    +0.277 C 
ENDBRANCH  26  28
BRANCH  25  30
ATOM     30  O   UNL     1       0.157  -1.241  16.041  0.00  0.00    -0.491 OA
ATOM     31  C   UNL     1      -1.110  -1.396  16.684  0.00  0.00    +0.277 C 
ENDBRANCH  25  30
ENDBRANCH  21  22
ENDBRANCH  20  21
ENDBRANCH  18  20
ENDBRANCH  13  16
BRANCH  12  32
ATOM     32  N   UNL     1       0.106  -4.056   5.176  0.00  0.00    -0.356 N 
ATOM     33  H   UNL     1       0.107  -4.668   4.424  0.00  0.00    +0.142 HD
ATOM     34  H   UNL     1       0.119  -4.401   6.083  0.00  0.00    +0.142 HD
ENDBRANCH  12  32
TORSDOF 7
