REMARK  Name = ZINC39856028
REMARK  8 active torsions:
REMARK  status: ('A' for Active; 'I' for Inactive)
REMARK    1  A    between atoms: C_1  and  C_2
REMARK    2  A    between atoms: C_5  and  C_8
REMARK    3  A    between atoms: N_10  and  N_11
REMARK    4  A    between atoms: C_12  and  C_14
REMARK    5  A    between atoms: C_15  and  C_30
REMARK    6  A    between atoms: C_20  and  C_28
REMARK    7  A    between atoms: C_20  and  C_29
REMARK    8  A    between atoms: N_23  and  N_24
REMARK                            x       y       z     vdW  Elec       q    Type
REMARK                         _______ _______ _______ _____ _____    ______ ____
ROOT
ATOM      1  C   UNL     1       0.130  -8.480   2.290  0.00  0.00    +0.194 A 
ATOM      2  C   UNL     1       0.141  -9.284   3.395  0.00  0.00    +0.009 A 
ATOM      3  C   UNL     1       0.158 -10.601   2.920  0.00  0.00    +0.043 A 
ATOM      4  C   UNL     1       0.159 -10.545   1.547  0.00  0.00    +0.116 A 
ATOM      5  O   UNL     1       0.134  -9.263   1.188  0.00  0.00    -0.454 OA
ATOM      6  C   UNL     1       0.181 -11.775   0.675  0.00  0.00    +0.081 C 
ATOM      7  C   UNL     1       0.709 -12.962   1.485  0.00  0.00    -0.023 C 
ATOM      8  C   UNL     1      -0.079 -13.120   2.790  0.00  0.00    +0.064 C 
ATOM      9  C   UNL     1       0.172 -11.889   3.649  0.00  0.00    +0.073 C 
ATOM     10  N   UNL     1       0.383 -11.964   4.927  0.00  0.00    -0.175 NA
ATOM     11  C   UNL     1       0.570 -14.240   0.655  0.00  0.00    +0.011 C 
ATOM     12  C   UNL     1       2.186 -12.732   1.812  0.00  0.00    +0.011 C 
ATOM     13  C   UNL     1       0.135  -8.842   4.836  0.00  0.00    +0.048 C 
ENDROOT
BRANCH  10  14
ATOM     14  N   UNL     1       0.385 -13.211   5.565  0.00  0.00    -0.248 N 
ATOM     15  C   UNL     1       0.607 -13.290   6.913  0.00  0.00    +0.187 C 
ATOM     16  N   UNL     1       0.609 -14.476   7.520  0.00  0.00    -0.370 N 
ATOM     17  N   UNL     1       0.822 -12.180   7.619  0.00  0.00    -0.370 N 
ATOM     18  H   UNL     1       0.229 -14.019   5.051  0.00  0.00    +0.192 HD
ATOM     19  H   UNL     1       0.453 -15.284   7.006  0.00  0.00    +0.159 HD
ATOM     20  H   UNL     1       0.821 -11.316   7.177  0.00  0.00    +0.159 HD
ATOM     21  H   UNL     1       0.980 -12.236   8.575  0.00  0.00    +0.159 HD
ATOM     22  H   UNL     1       0.767 -14.532   8.476  0.00  0.00    +0.159 HD
ENDBRANCH  10  14
BRANCH   1  24
ATOM     23  N   UNL     1       0.095  -6.332   1.134  0.00  0.00    -0.228 N 
ATOM     24  C   UNL     1       0.110  -7.012   2.298  0.00  0.00    +0.296 C 
ATOM     25  O   UNL     1       0.107  -6.410   3.355  0.00  0.00    -0.265 OA
ATOM     26  H   UNL     1       0.097  -6.813   0.292  0.00  0.00    +0.173 HD
BRANCH  23  29
ATOM     27  C   UNL     1       0.061  -4.251  -0.021  0.00  0.00    +0.260 C 
ATOM     28  O   UNL     1       0.064  -4.853  -1.077  0.00  0.00    -0.269 OA
ATOM     29  N   UNL     1       0.076  -4.931   1.142  0.00  0.00    -0.230 N 
ATOM     30  H   UNL     1       0.073  -4.451   1.985  0.00  0.00    +0.173 HD
BRANCH  27  35
ATOM     31  C   UNL     1      -0.018   1.503   0.010  0.00  0.00    +0.044 C 
ATOM     32  C   UNL     1       0.002  -0.004   0.002  0.00  0.00    -0.050 A 
ATOM     33  C   UNL     1       0.006  -0.686  -1.202  0.00  0.00    +0.004 A 
ATOM     34  C   UNL     1       0.025  -2.066  -1.216  0.00  0.00    +0.013 A 
ATOM     35  C   UNL     1       0.041  -2.773  -0.013  0.00  0.00    +0.038 A 
ATOM     36  C   UNL     1       0.037  -2.079   1.198  0.00  0.00    +0.013 A 
ATOM     37  C   UNL     1       0.023  -0.699   1.198  0.00  0.00    +0.004 A 
ENDBRANCH  27  35
ENDBRANCH  23  29
ENDBRANCH   1  24
TORSDOF 4
