REMARK  Name = ZINC16000237
REMARK  3 active torsions:
REMARK  status: ('A' for Active; 'I' for Inactive)
REMARK    1  A    between atoms: C_1  and  C_2
REMARK    2  A    between atoms: C_4  and  C_33
REMARK    3  A    between atoms: N_20  and  C_23
REMARK                            x       y       z     vdW  Elec       q    Type
REMARK                         _______ _______ _______ _____ _____    ______ ____
ROOT
ATOM      1  C   UNL     1      -0.013   1.086   0.008  0.00  0.00    +0.044 C 
ATOM      2  C   UNL     1      -0.718   1.572   1.248  0.00  0.00    -0.050 A 
ATOM      3  C   UNL     1      -0.000   1.806   2.407  0.00  0.00    +0.008 A 
ATOM      4  C   UNL     1      -0.642   2.250   3.543  0.00  0.00    -0.029 A 
ATOM      5  C   UNL     1      -2.018   2.467   3.533  0.00  0.00    +0.039 A 
ATOM      6  C   UNL     1      -2.732   2.229   2.361  0.00  0.00    -0.027 A 
ATOM      7  C   UNL     1      -2.084   1.790   1.228  0.00  0.00    +0.008 A 
ATOM      8  C   UNL     1      -4.162   2.556   2.678  0.00  0.00    +0.053 C 
ATOM      9  C   UNL     1      -4.832   3.478   1.758  0.00  0.00    +0.089 C 
ATOM     10  C   UNL     1      -4.981   2.589   0.455  0.00  0.00    +0.074 C 
ATOM     11  C   UNL     1      -5.440   1.285   1.094  0.00  0.00    -0.054 C 
ATOM     12  C   UNL     1      -6.249   1.552   3.330  0.00  0.00    -0.076 C 
ATOM     13  C   UNL     1      -7.381   0.879   2.523  0.00  0.00    -0.020 C 
ATOM     14  C   UNL     1      -6.968   1.148   1.059  0.00  0.00    -0.016 C 
ATOM     15  C   UNL     1      -5.982   3.497  -0.213  0.00  0.00    +0.228 C 
ATOM     16  O   UNL     1      -6.929   3.172  -0.896  0.00  0.00    -0.275 OA
ATOM     17  N   UNL     1      -5.592   4.766   0.117  0.00  0.00    -0.210 N 
ATOM     18  C   UNL     1      -4.685   4.782   1.148  0.00  0.00    +0.229 C 
ATOM     19  O   UNL     1      -3.937   5.680   1.470  0.00  0.00    -0.275 OA
ATOM     20  C   UNL     1      -4.155   2.987   4.121  0.00  0.00    +0.212 C 
ATOM     21  O   UNL     1      -5.113   3.337   4.777  0.00  0.00    -0.277 OA
ATOM     22  N   UNL     1      -2.878   2.907   4.541  0.00  0.00    -0.286 N 
ATOM     23  C   UNL     1       0.147   2.502   4.802  0.00  0.00    +0.045 C 
ATOM     24  H   UNL     1      -2.589   3.129   5.440  0.00  0.00    +0.155 HD
ATOM     25  N   UNL     1      -5.041   1.370   2.512  0.00  0.00    +0.395 N 
ATOM     26  H   UNL     1      -4.545   0.516   2.796  0.00  0.00    -0.079 HD
ENDROOT
BRANCH  17  27
ATOM     27  C   UNL     1      -6.056   5.918  -0.536  0.00  0.00    +0.044 A 
ATOM     28  C   UNL     1      -5.614   7.171  -0.134  0.00  0.00    +0.025 A 
ATOM     29  C   UNL     1      -6.069   8.303  -0.781  0.00  0.00    +0.017 A 
ATOM     30  C   UNL     1      -6.973   8.189  -1.823  0.00  0.00    +0.018 A 
ATOM     31  C   UNL     1      -7.419   6.942  -2.222  0.00  0.00    +0.017 A 
ATOM     32  C   UNL     1      -6.963   5.806  -1.581  0.00  0.00    +0.025 A 
ATOM     33 BR   UNL     1      -7.599   9.742  -2.702  0.00  0.00    -0.050 Br
ENDBRANCH  17  27
TORSDOF 1
