REMARK  Name = ZINC05102423
REMARK  6 active torsions:
REMARK  status: ('A' for Active; 'I' for Inactive)
REMARK    1  A    between atoms: C_1  and  C_2
REMARK    2  A    between atoms: N_7  and  C_8
REMARK    3  A    between atoms: C_8  and  C_10
REMARK    4  A    between atoms: C_8  and  C_17
REMARK    5  A    between atoms: C_23  and  C_28
REMARK    6  A    between atoms: C_26  and  O_27
REMARK                            x       y       z     vdW  Elec       q    Type
REMARK                         _______ _______ _______ _____ _____    ______ ____
ROOT
ATOM      1  C   UNL     1       1.215  -2.170  -0.021  0.00  0.00    +0.136 C 
ENDROOT
BRANCH   1   2
ATOM      2  C   UNL     1       1.166  -0.667   0.076  0.00  0.00    +0.021 A 
ATOM      3  C   UNL     1       2.346   0.065  -0.018  0.00  0.00    +0.010 A 
ATOM      4  C   UNL     1       2.336   1.424   0.065  0.00  0.00    +0.010 A 
ATOM      5  C   UNL     1       1.119   2.102   0.249  0.00  0.00    +0.004 A 
ATOM      6  C   UNL     1       1.068   3.505   0.340  0.00  0.00    +0.012 A 
ATOM      7  C   UNL     1      -0.150   4.096   0.519  0.00  0.00    +0.023 A 
ATOM      8  C   UNL     1      -1.297   3.310   0.607  0.00  0.00    +0.039 A 
ATOM      9  N   UNL     1      -1.246   2.003   0.516  0.00  0.00    -0.248 NA
ATOM     10  C   UNL     1      -0.086   1.363   0.346  0.00  0.00    +0.113 A 
ATOM     11  C   UNL     1      -0.036  -0.044   0.255  0.00  0.00    +0.148 A 
ATOM     12  C   UNL     1      -2.632   3.980   0.804  0.00  0.00    +0.065 C 
BRANCH  11  13
ATOM     13  O   UNL     1      -1.178  -0.774   0.345  0.00  0.00    -0.504 OA
ATOM     14  H   UNL     1      -1.612  -0.933  -0.504  0.00  0.00    +0.292 HD
ENDBRANCH  11  13
ENDBRANCH   1   2
BRANCH   1  21
ATOM     15  C   UNL     1       5.392  -6.030   2.234  0.00  0.00    +0.063 C 
ATOM     16  C   UNL     1       4.023  -5.596   1.778  0.00  0.00    +0.014 A 
ATOM     17  C   UNL     1       2.969  -6.485   1.843  0.00  0.00    +0.021 A 
ATOM     18  C   UNL     1       1.710  -6.079   1.421  0.00  0.00    +0.005 A 
ATOM     19  C   UNL     1       1.556  -4.788   0.947  0.00  0.00    +0.041 A 
ATOM     20  C   UNL     1       2.662  -3.946   0.910  0.00  0.00    +0.097 A 
ATOM     21  N   UNL     1       2.523  -2.646   0.436  0.00  0.00    -0.320 N 
ATOM     22  H   UNL     1       3.291  -2.055   0.409  0.00  0.00    +0.148 HD
ATOM     23  N   UNL     1       3.910  -4.323   1.314  0.00  0.00    -0.347 N 
ATOM     24  H   UNL     1       4.714  -3.685   1.269  0.00  0.00    +0.167 HD
ENDBRANCH   1  21
BRANCH   1  25
ATOM     25  C   UNL     1       1.001  -2.588  -1.453  0.00  0.00    -0.023 A 
ATOM     26  C   UNL     1       2.046  -2.525  -2.355  0.00  0.00    +0.008 A 
ATOM     27  C   UNL     1       1.852  -2.913  -3.667  0.00  0.00    +0.038 A 
ATOM     28  C   UNL     1       0.607  -3.355  -4.081  0.00  0.00    +0.123 A 
ATOM     29  C   UNL     1      -0.441  -3.413  -3.178  0.00  0.00    +0.038 A 
ATOM     30  C   UNL     1      -0.243  -3.030  -1.865  0.00  0.00    +0.008 A 
ATOM     31  F   UNL     1       0.415  -3.730  -5.364  0.00  0.00    -0.205 F 
ENDBRANCH   1  25
TORSDOF 4
