REMARK  Name = ZINC25003795
REMARK  6 active torsions:
REMARK  status: ('A' for Active; 'I' for Inactive)
REMARK    1  A    between atoms: C_1  and  C_2
REMARK    2  A    between atoms: C_2  and  C_26
REMARK    3  A    between atoms: N_5  and  C_9
REMARK    4  A    between atoms: C_9  and  N_10
REMARK    5  A    between atoms: N_13  and  S_16
REMARK    6  A    between atoms: S_16  and  N_19
REMARK                            x       y       z     vdW  Elec       q    Type
REMARK                         _______ _______ _______ _____ _____    ______ ____
ROOT
ATOM      1  C   UNL     1      -3.073   4.070  -1.379  0.00  0.00    +0.047 C 
ATOM      2  C   UNL     1      -2.569   3.842   0.047  0.00  0.00    +0.135 C 
ATOM      3  C   UNL     1      -3.580   3.053   0.854  0.00  0.00    +0.252 C 
ATOM      4  O   UNL     1      -3.981   1.931   0.630  0.00  0.00    -0.272 OA
ATOM      5  N   UNL     1      -3.943   3.858   1.872  0.00  0.00    -0.210 N 
ATOM      6  C   UNL     1      -3.307   5.035   1.821  0.00  0.00    +0.311 C 
ATOM      7  O   UNL     1      -3.469   5.926   2.631  0.00  0.00    -0.252 OA
ATOM      8  N   UNL     1      -2.469   5.121   0.772  0.00  0.00    -0.281 N 
ATOM      9  H   UNL     1      -1.793   5.909   0.408  0.00  0.00    +0.152 HD
ENDROOT
BRANCH   2  10
ATOM     10  C   UNL     1      -1.237   3.137   0.031  0.00  0.00    -0.015 A 
ATOM     11  C   UNL     1      -1.198   1.744   0.017  0.00  0.00    +0.007 A 
ATOM     12  C   UNL     1      -0.013   1.076   0.008  0.00  0.00    +0.009 A 
ATOM     13  C   UNL     1       1.193   1.799   0.000  0.00  0.00    -0.018 A 
ATOM     14  C   UNL     1       2.436   1.144  -0.015  0.00  0.00    +0.008 A 
ATOM     15  C   UNL     1       3.583   1.877  -0.022  0.00  0.00    +0.001 A 
ATOM     16  C   UNL     1       3.544   3.270  -0.015  0.00  0.00    +0.001 A 
ATOM     17  C   UNL     1       2.358   3.938   0.000  0.00  0.00    +0.008 A 
ATOM     18  C   UNL     1       1.153   3.215   0.008  0.00  0.00    -0.018 A 
ATOM     19  C   UNL     1      -0.090   3.870   0.023  0.00  0.00    +0.014 A 
ENDBRANCH   2  10
BRANCH   5  20
ATOM     20  C   UNL     1      -4.913   3.492   2.906  0.00  0.00    +0.205 C 
BRANCH  20  21
ATOM     21  N   UNL     1      -6.261   3.889   2.476  0.00  0.00    -0.284 NA
ATOM     22  C   UNL     1      -6.491   5.319   2.720  0.00  0.00    +0.103 C 
ATOM     23  C   UNL     1      -7.829   5.731   2.097  0.00  0.00    +0.126 C 
ATOM     24  N   UNL     1      -8.878   4.836   2.609  0.00  0.00    -0.164 NA
ATOM     25  C   UNL     1      -8.656   3.384   2.524  0.00  0.00    +0.126 C 
ATOM     26  C   UNL     1      -7.286   3.065   3.131  0.00  0.00    +0.103 C 
BRANCH  24  27
ATOM     27  S   UNL     1     -10.271   5.447   3.264  0.00  0.00    +0.100 S 
ATOM     28  O   UNL     1     -10.441   6.747   2.716  0.00  0.00    -0.141 OA
ATOM     29  O   UNL     1     -11.258   4.432   3.138  0.00  0.00    -0.141 OA
BRANCH  27  30
ATOM     30  N   UNL     1     -10.003   5.648   4.885  0.00  0.00    -0.166 NA
ATOM     31  C   UNL     1     -10.312   4.554   5.779  0.00  0.00    +0.110 C 
ATOM     32  C   UNL     1     -11.779   4.657   6.247  0.00  0.00    +0.017 C 
ATOM     33  C   UNL     1     -11.940   5.785   7.177  0.00  0.00    +0.001 C 
ATOM     34  C   UNL     1     -11.640   7.151   6.566  0.00  0.00    +0.001 C 
ATOM     35  C   UNL     1     -10.158   7.419   6.646  0.00  0.00    +0.017 C 
ATOM     36  C   UNL     1      -9.463   6.938   5.359  0.00  0.00    +0.110 C 
ENDBRANCH  27  30
ENDBRANCH  24  27
ENDBRANCH  20  21
ENDBRANCH   5  20
TORSDOF 5
