REMARK  Name = ZINC48845963
REMARK  7 active torsions:
REMARK  status: ('A' for Active; 'I' for Inactive)
REMARK    1  A    between atoms: C_1  and  C_2
REMARK    2  A    between atoms: C_2  and  C_3
REMARK    3  A    between atoms: C_2  and  C_10
REMARK    4  A    between atoms: C_2  and  N_13
REMARK    5  A    between atoms: N_13  and  C_14
REMARK    6  A    between atoms: C_14  and  C_15
REMARK    7  A    between atoms: C_15  and  N_16
REMARK                            x       y       z     vdW  Elec       q    Type
REMARK                         _______ _______ _______ _____ _____    ______ ____
ROOT
ATOM      1  N   UNL     1      -1.413  -0.485  -0.075  0.00  0.00    +0.393 N 
ATOM      2  H   UNL     1      -1.471  -1.491  -0.025  0.00  0.00    -0.084 HD
ATOM      3  H   UNL     1      -1.897  -0.080   0.712  0.00  0.00    -0.084 HD
ENDROOT
BRANCH   1   5
ATOM      4  C   UNL     1       0.094   1.436  -0.275  0.00  0.00    +0.006 C 
ATOM      5  C   UNL     1      -0.003  -0.074  -0.047  0.00  0.00    +0.058 C 
BRANCH   5   6
ATOM      6  C   UNL     1       0.594  -0.419   1.293  0.00  0.00    -0.048 A 
ATOM      7  C   UNL     1      -0.182  -1.034   2.257  0.00  0.00    +0.004 A 
ATOM      8  C   UNL     1       0.365  -1.351   3.487  0.00  0.00    +0.015 A 
ATOM      9  C   UNL     1       1.689  -1.053   3.752  0.00  0.00    +0.018 A 
ATOM     10  C   UNL     1       2.466  -0.438   2.786  0.00  0.00    +0.015 A 
ATOM     11  C   UNL     1       1.919  -0.126   1.556  0.00  0.00    +0.004 A 
ATOM     12 BR   UNL     1       2.438  -1.486   5.433  0.00  0.00    -0.050 Br
ENDBRANCH   5   6
BRANCH   5  13
ATOM     13  C   UNL     1       0.753  -0.795  -1.134  0.00  0.00    +0.349 C 
ATOM     14  O   UNL     1       1.907  -0.490  -1.380  0.00  0.00    -0.248 OA
ATOM     15  O   UNL     1       0.209  -1.684  -1.767  0.00  0.00    -0.248 OA
ENDBRANCH   5  13
ENDBRANCH   1   5
BRANCH   1  16
ATOM     16  C   UNL     1      -2.033  -0.020  -1.323  0.00  0.00    -0.065 C 
BRANCH  16  17
ATOM     17  C   UNL     1      -3.511  -0.414  -1.336  0.00  0.00    +0.065 C 
BRANCH  17  18
ATOM     18  N   UNL     1      -4.131   0.051  -2.584  0.00  0.00    -0.308 NA
ATOM     19  C   UNL     1      -3.576  -0.660  -3.744  0.00  0.00    +0.065 C 
ATOM     20  C   UNL     1      -4.204  -0.106  -5.026  0.00  0.00    -0.067 C 
ATOM     21  N   UNL     1      -5.661  -0.282  -4.973  0.00  0.00    +0.381 N 
ATOM     22  C   UNL     1      -6.204   0.453  -3.823  0.00  0.00    -0.067 C 
ATOM     23  C   UNL     1      -5.593  -0.096  -2.532  0.00  0.00    +0.065 C 
ATOM     24  H   UNL     1      -6.073   0.071  -5.823  0.00  0.00    -0.086 HD
ATOM     25  H   UNL     1      -5.877  -1.263  -4.878  0.00  0.00    -0.086 HD
ENDBRANCH  17  18
ENDBRANCH  16  17
ENDBRANCH   1  16
TORSDOF 6
