REMARK  Name = ZINC26849661
REMARK  12 active torsions:
REMARK  status: ('A' for Active; 'I' for Inactive)
REMARK    1  A    between atoms: C_1  and  C_2
REMARK    2  A    between atoms: C_3  and  C_28
REMARK    3  A    between atoms: C_4  and  C_27
REMARK    4  A    between atoms: C_7  and  C_8
REMARK    5  A    between atoms: C_8  and  C_10
REMARK    6  A    between atoms: C_10  and  C_12
REMARK    7  A    between atoms: C_10  and  N_13
REMARK    8  A    between atoms: N_13  and  C_14
REMARK    9  A    between atoms: N_13  and  C_15
REMARK   10  A    between atoms: C_15  and  C_16
REMARK   11  A    between atoms: N_18  and  C_19
REMARK   12  A    between atoms: C_28  and  C_30
REMARK                            x       y       z     vdW  Elec       q    Type
REMARK                         _______ _______ _______ _____ _____    ______ ____
ROOT
ATOM      1  N   UNL     1      -7.894   2.792   2.433  0.00  0.00    +0.390 N 
ATOM      2  C   UNL     1      -7.887   4.123   3.054  0.00  0.00    -0.095 C 
ATOM      3  H   UNL     1      -7.750   2.047   3.229  0.00  0.00    -0.081 HD
ENDROOT
BRANCH   1   4
ATOM      4  C   UNL     1      -6.789   2.651   1.477  0.00  0.00    +0.003 C 
ATOM      5  C   UNL     1      -6.841   3.796   0.464  0.00  0.00    -0.005 C 
BRANCH   4   6
ATOM      6  C   UNL     1      -5.476   2.694   2.216  0.00  0.00    +0.166 C 
ATOM      7  O   UNL     1      -5.438   3.095   3.361  0.00  0.00    -0.292 OA
BRANCH   6  14
ATOM      8  C   UNL     1      -2.659   2.687   3.527  0.00  0.00    +0.047 C 
ATOM      9  C   UNL     1      -3.029   2.253   2.132  0.00  0.00    -0.012 A 
ATOM     10  C   UNL     1      -2.150   1.754   1.144  0.00  0.00    +0.041 A 
ATOM     11  C   UNL     1      -2.913   1.488   0.017  0.00  0.00    +0.024 A 
ATOM     12  N   UNL     1      -4.191   1.790   0.283  0.00  0.00    -0.355 N 
ATOM     13  H   UNL     1      -4.963   1.642  -0.486  0.00  0.00    +0.166 HD
ATOM     14  C   UNL     1      -4.288   2.266   1.575  0.00  0.00    +0.084 A 
ATOM     15  C   UNL     1      -2.392   0.945  -1.289  0.00  0.00    +0.064 C 
BRANCH  10  16
ATOM     16  C   UNL     1      -0.703   1.561   1.282  0.00  0.00    +0.162 C 
ATOM     17  O   UNL     1       0.055   2.486   1.079  0.00  0.00    -0.292 OA
ATOM     18  C   UNL     1      -0.157   0.213   1.677  0.00  0.00    +0.091 C 
ENDBRANCH  10  16
ENDBRANCH   6  14
ENDBRANCH   4   6
ENDBRANCH   1   4
BRANCH   1  19
ATOM     19  C   UNL     1      -9.186   2.519   1.789  0.00  0.00    +0.019 C 
BRANCH  19  20
ATOM     20  C   UNL     1     -10.263   2.431   2.839  0.00  0.00    +0.201 C 
ATOM     21  O   UNL     1      -9.982   2.580   4.010  0.00  0.00    -0.278 OA
ATOM     22  N   UNL     1     -11.538   2.185   2.478  0.00  0.00    -0.287 N 
ATOM     23  H   UNL     1     -11.781   1.974   1.427  0.00  0.00    +0.155 HD
BRANCH  22  24
ATOM     24  C   UNL     1     -12.553   2.200   3.442  0.00  0.00    +0.035 A 
ATOM     25  C   UNL     1     -12.299   1.740   4.728  0.00  0.00    +0.025 A 
ATOM     26  C   UNL     1     -13.300   1.761   5.679  0.00  0.00    +0.023 A 
ATOM     27  C   UNL     1     -14.560   2.228   5.349  0.00  0.00    +0.059 A 
ATOM     28  C   UNL     1     -14.819   2.681   4.066  0.00  0.00    +0.061 A 
ATOM     29  C   UNL     1     -13.818   2.668   3.113  0.00  0.00    +0.044 A 
ATOM     30 CL   UNL     1     -16.401   3.267   3.656  0.00  0.00    -0.082 Cl
ATOM     31 CL   UNL     1     -15.818   2.245   6.545  0.00  0.00    -0.082 Cl
ENDBRANCH  22  24
ENDBRANCH  19  20
ENDBRANCH   1  19
TORSDOF 7
