REMARK  Name = ZINC54642871
REMARK  12 active torsions:
REMARK  status: ('A' for Active; 'I' for Inactive)
REMARK    1  A    between atoms: C_1  and  C_2
REMARK    2  A    between atoms: C_2  and  C_3
REMARK    3  A    between atoms: C_3  and  O_4
REMARK    4  A    between atoms: O_4  and  C_5
REMARK    5  A    between atoms: C_8  and  C_11
REMARK    6  A    between atoms: C_13  and  C_30
REMARK    7  A    between atoms: C_14  and  C_29
REMARK    8  A    between atoms: C_19  and  S_21
REMARK    9  A    between atoms: S_21  and  C_22
REMARK   10  A    between atoms: C_22  and  C_23
REMARK   11  A    between atoms: N_32  and  C_33
REMARK   12  A    between atoms: C_38  and  C_39
REMARK                            x       y       z     vdW  Elec       q    Type
REMARK                         _______ _______ _______ _____ _____    ______ ____
ROOT
ATOM      1  C   UNL     1       3.304  -4.361  -5.736  0.00  0.00    +0.177 C 
ATOM      2  C   UNL     1       2.272  -5.216  -6.422  0.00  0.00    +0.060 C 
ATOM      3  C   UNL     1       2.275  -6.556  -6.363  0.00  0.00    +0.018 C 
ATOM      4  N   UNL     1       3.235  -7.256  -5.675  0.00  0.00    -0.287 N 
ATOM      5  C   UNL     1       4.359  -6.556  -5.256  0.00  0.00    +0.219 A 
ATOM      6  N   UNL     1       4.409  -5.202  -5.283  0.00  0.00    -0.220 N 
ATOM      7  N   UNL     1       5.668  -4.839  -4.808  0.00  0.00    -0.141 NA
ATOM      8  C   UNL     1       6.301  -5.956  -4.520  0.00  0.00    +0.211 A 
ATOM      9  N   UNL     1       5.498  -6.995  -4.795  0.00  0.00    -0.187 NA
ATOM     10  C   UNL     1       1.188  -7.318  -7.075  0.00  0.00    +0.061 C 
ATOM     11  H   UNL     1       3.132  -8.202  -5.488  0.00  0.00    +0.155 HD
ENDROOT
BRANCH   1  15
ATOM     12  C   UNL     1       1.528  -2.408  -2.375  0.00  0.00    +0.121 A 
ATOM     13  C   UNL     1       2.078  -1.658  -3.403  0.00  0.00    +0.046 A 
ATOM     14  C   UNL     1       2.652  -2.291  -4.489  0.00  0.00    +0.009 A 
ATOM     15  C   UNL     1       2.678  -3.672  -4.550  0.00  0.00    -0.018 A 
ATOM     16  C   UNL     1       2.129  -4.423  -3.527  0.00  0.00    +0.009 A 
ATOM     17  C   UNL     1       1.560  -3.794  -2.436  0.00  0.00    +0.046 A 
BRANCH  12  18
ATOM     18  O   UNL     1       0.963  -1.788  -1.306  0.00  0.00    -0.492 OA
BRANCH  18  19
ATOM     19  C   UNL     1       0.966  -0.358  -1.310  0.00  0.00    +0.229 C 
BRANCH  19  21
ATOM     20  C   UNL     1       0.296   1.686  -0.040  0.00  0.00    +0.007 C 
ATOM     21  C   UNL     1       0.293   0.156  -0.036  0.00  0.00    +0.038 C 
ENDBRANCH  19  21
ENDBRANCH  18  19
ENDBRANCH  12  18
ENDBRANCH   1  15
BRANCH   2  22
ATOM     22  C   UNL     1       1.252  -4.576  -7.164  0.00  0.00    +0.248 C 
ATOM     23  O   UNL     1       1.500  -4.100  -8.257  0.00  0.00    -0.270 OA
ATOM     24  N   UNL     1       0.004  -4.492  -6.661  0.00  0.00    -0.281 N 
ATOM     25  H   UNL     1      -0.180  -4.815  -5.765  0.00  0.00    +0.155 HD
BRANCH  24  26
ATOM     26  C   UNL     1      -1.025  -3.940  -7.431  0.00  0.00    +0.037 A 
ATOM     27  C   UNL     1      -0.756  -2.893  -8.304  0.00  0.00    +0.023 A 
ATOM     28  C   UNL     1      -1.774  -2.350  -9.062  0.00  0.00    +0.002 A 
ATOM     29  C   UNL     1      -3.060  -2.847  -8.954  0.00  0.00    +0.000 A 
ATOM     30  C   UNL     1      -3.331  -3.889  -8.086  0.00  0.00    +0.005 A 
ATOM     31  C   UNL     1      -2.316  -4.441  -7.329  0.00  0.00    -0.029 A 
ATOM     32  C   UNL     1      -2.611  -5.581  -6.388  0.00  0.00    +0.045 C 
ENDBRANCH  24  26
ENDBRANCH   2  22
BRANCH   8  33
ATOM     33  S   UNL     1       7.938  -6.069  -3.879  0.00  0.00    -0.080 S 
BRANCH  33  34
ATOM     34  C   UNL     1       8.218  -7.853  -3.703  0.00  0.00    +0.112 C 
BRANCH  34  35
ATOM     35  C   UNL     1       9.602  -8.092  -3.156  0.00  0.00    -0.037 A 
ATOM     36  C   UNL     1      10.671  -8.238  -4.020  0.00  0.00    +0.004 A 
ATOM     37  C   UNL     1      11.940  -8.458  -3.518  0.00  0.00    +0.000 A 
ATOM     38  C   UNL     1      12.140  -8.531  -2.152  0.00  0.00    +0.000 A 
ATOM     39  C   UNL     1      11.071  -8.384  -1.288  0.00  0.00    +0.000 A 
ATOM     40  C   UNL     1       9.803  -8.160  -1.790  0.00  0.00    +0.004 A 
ENDBRANCH  34  35
ENDBRANCH  33  34
ENDBRANCH   8  33
TORSDOF 9
