REMARK  Name = ZINC09780711
REMARK  7 active torsions:
REMARK  status: ('A' for Active; 'I' for Inactive)
REMARK    1  A    between atoms: C_1  and  C_2
REMARK    2  A    between atoms: C_2  and  C_4
REMARK    3  A    between atoms: C_2  and  O_33
REMARK    4  A    between atoms: C_7  and  N_10
REMARK    5  A    between atoms: C_11  and  C_13
REMARK    6  A    between atoms: C_19  and  C_28
REMARK    7  A    between atoms: C_22  and  C_24
REMARK                            x       y       z     vdW  Elec       q    Type
REMARK                         _______ _______ _______ _____ _____    ______ ____
ROOT
ATOM      1  C   UNL     1      -7.337  -2.699  -1.117  0.00  0.00    +0.096 A 
ATOM      2  C   UNL     1      -8.193  -2.787   0.010  0.00  0.00    +0.149 A 
ATOM      3  N   UNL     1      -9.369  -3.179  -0.399  0.00  0.00    -0.177 NA
ATOM      4  N   UNL     1      -9.337  -3.360  -1.781  0.00  0.00    -0.238 N 
ATOM      5  C   UNL     1      -8.090  -3.061  -2.218  0.00  0.00    +0.130 A 
ATOM      6  N   UNL     1      -7.722  -3.138  -3.550  0.00  0.00    -0.319 N 
ATOM      7  C   UNL     1      -8.666  -3.831  -4.448  0.00  0.00    +0.140 C 
ATOM      8  C   UNL     1     -10.088  -3.377  -4.103  0.00  0.00    +0.066 C 
ATOM      9  C   UNL     1     -10.426  -3.790  -2.663  0.00  0.00    +0.215 C 
ATOM     10  H   UNL     1      -6.891  -2.757  -3.874  0.00  0.00    +0.148 HD
ENDROOT
BRANCH   7  11
ATOM     11  C   UNL     1      -8.545  -5.321  -4.257  0.00  0.00    +0.125 A 
ATOM     12  C   UNL     1      -8.575  -6.245  -5.235  0.00  0.00    +0.046 A 
ATOM     13  C   UNL     1      -8.429  -7.505  -4.612  0.00  0.00    +0.041 A 
ATOM     14  C   UNL     1      -8.318  -7.277  -3.291  0.00  0.00    +0.195 A 
ATOM     15  O   UNL     1      -8.383  -5.952  -3.083  0.00  0.00    -0.466 OA
ENDBRANCH   7  11
BRANCH   1  17
ATOM     16  N   UNL     1      -5.320  -1.968   0.042  0.00  0.00    -0.281 N 
ATOM     17  C   UNL     1      -5.926  -2.296  -1.116  0.00  0.00    +0.253 C 
ATOM     18  O   UNL     1      -5.303  -2.257  -2.161  0.00  0.00    -0.270 OA
ATOM     19  H   UNL     1      -5.792  -2.072   0.883  0.00  0.00    +0.155 HD
BRANCH  16  23
ATOM     20  C   UNL     1      -1.418  -0.509   0.011  0.00  0.00    -0.019 A 
ATOM     21  C   UNL     1      -1.855  -1.287   1.067  0.00  0.00    +0.008 A 
ATOM     22  C   UNL     1      -3.148  -1.772   1.081  0.00  0.00    +0.023 A 
ATOM     23  C   UNL     1      -4.010  -1.478   0.032  0.00  0.00    +0.034 A 
ATOM     24  C   UNL     1      -3.567  -0.697  -1.028  0.00  0.00    +0.023 A 
ATOM     25  C   UNL     1      -2.275  -0.210  -1.033  0.00  0.00    +0.008 A 
BRANCH  20  27
ATOM     26  C   UNL     1       0.085   1.250   0.902  0.00  0.00    +0.043 C 
ATOM     27  C   UNL     1      -0.006   0.018  -0.001  0.00  0.00    +0.141 C 
BRANCH  27  28
ATOM     28  O   UNL     1       0.884  -0.991   0.479  0.00  0.00    -0.387 OA
ATOM     29  H   UNL     1       1.812  -0.721   0.499  0.00  0.00    +0.210 HD
ENDBRANCH  27  28
ENDBRANCH  20  27
ENDBRANCH  16  23
ENDBRANCH   1  17
BRANCH   9  30
ATOM     30  C   UNL     1     -11.729  -3.110  -2.238  0.00  0.00    +0.412 C 
ATOM     31  F   UNL     1     -11.580  -1.722  -2.325  0.00  0.00    -0.168 F 
ATOM     32  F   UNL     1     -12.767  -3.521  -3.081  0.00  0.00    -0.168 F 
ATOM     33  F   UNL     1     -12.031  -3.465  -0.919  0.00  0.00    -0.168 F 
ENDBRANCH   9  30
TORSDOF 6
