REMARK  Name = ZINC05724000
REMARK  2 active torsions:
REMARK  status: ('A' for Active; 'I' for Inactive)
REMARK    1  A    between atoms: C_1  and  C_2
REMARK    2  A    between atoms: C_12  and  C_13
REMARK                            x       y       z     vdW  Elec       q    Type
REMARK                         _______ _______ _______ _____ _____    ______ ____
ROOT
ATOM      1  C   UNL     1       1.296   3.554   0.008  0.00  0.00    +0.073 C 
ATOM      2  C   UNL     1       1.267   2.047   0.001  0.00  0.00    +0.125 A 
ATOM      3  C   UNL     1      -0.016   1.335   0.009  0.00  0.00    +0.295 A 
ATOM      4  O   UNL     1      -1.073   1.947   0.018  0.00  0.00    -0.264 OA
ATOM      5  N   UNL     1       0.002  -0.004   0.002  0.00  0.00    -0.181 NA
ATOM      6  C   UNL     1       1.139  -0.656  -0.012  0.00  0.00    +0.201 A 
ATOM      7  N   UNL     1       2.365  -0.046  -0.021  0.00  0.00    -0.170 N 
ATOM      8  N   UNL     1       2.375   1.376  -0.013  0.00  0.00    -0.161 NA
ATOM      9  C   UNL     1       3.463  -0.820  -0.036  0.00  0.00    +0.287 A 
ATOM     10  O   UNL     1       4.576  -0.327  -0.043  0.00  0.00    -0.265 OA
ATOM     11  C   UNL     1       3.283  -2.276  -0.042  0.00  0.00    +0.082 A 
ATOM     12  C   UNL     1       4.218  -3.263  -0.057  0.00  0.00    +0.031 C 
ATOM     13  S   UNL     1       1.501  -2.400  -0.025  0.00  0.00    -0.044 S 
ENDROOT
BRANCH  12  14
ATOM     14  C   UNL     1       3.800  -4.670  -0.061  0.00  0.00    +0.013 A 
ATOM     15  C   UNL     1       2.866  -5.131   0.877  0.00  0.00    +0.050 A 
ATOM     16  C   UNL     1       2.476  -6.454   0.862  0.00  0.00    +0.020 A 
ATOM     17  C   UNL     1       3.011  -7.328  -0.068  0.00  0.00    +0.003 A 
ATOM     18  C   UNL     1       3.937  -6.883  -0.995  0.00  0.00    +0.020 A 
ATOM     19  C   UNL     1       4.336  -5.562  -0.999  0.00  0.00    +0.050 A 
ATOM     20 CL   UNL     1       5.499  -5.007  -2.162  0.00  0.00    -0.083 Cl
ATOM     21 CL   UNL     1       2.199  -4.039   2.050  0.00  0.00    -0.083 Cl
ENDBRANCH  12  14
TORSDOF 1
