REMARK  Name = ZINC67490543
REMARK  7 active torsions:
REMARK  status: ('A' for Active; 'I' for Inactive)
REMARK    1  A    between atoms: C_1  and  C_2
REMARK    2  A    between atoms: C_2  and  N_3
REMARK    3  A    between atoms: C_4  and  C_6
REMARK    4  A    between atoms: C_9  and  N_26
REMARK    5  A    between atoms: N_12  and  S_13
REMARK    6  A    between atoms: S_13  and  C_16
REMARK    7  A    between atoms: C_19  and  C_21
REMARK                            x       y       z     vdW  Elec       q    Type
REMARK                         _______ _______ _______ _____ _____    ______ ____
ROOT
ATOM      1  C   UNL     1       1.532  -2.285  -2.665  0.00  0.00    +0.164 C 
ATOM      2  C   UNL     1       0.769  -1.815  -3.921  0.00  0.00    +0.015 C 
ATOM      3  C   UNL     1       0.887  -3.033  -4.875  0.00  0.00    -0.057 C 
ATOM      4  C   UNL     1       0.812  -4.216  -3.879  0.00  0.00    +0.094 C 
ATOM      5  N   UNL     1       1.551  -3.755  -2.686  0.00  0.00    -0.164 NA
ENDROOT
BRANCH   1   7
ATOM      6  N   UNL     1       0.688  -0.476  -1.203  0.00  0.00    -0.314 N 
ATOM      7  C   UNL     1       0.827  -1.799  -1.425  0.00  0.00    +0.232 C 
ATOM      8  O   UNL     1       0.384  -2.597  -0.627  0.00  0.00    -0.274 OA
ATOM      9  H   UNL     1       1.042   0.162  -1.842  0.00  0.00    +0.149 HD
BRANCH   6  11
ATOM     10  C   UNL     1      -0.019   1.526   0.010  0.00  0.00    +0.024 C 
ATOM     11  C   UNL     1       0.002  -0.004   0.002  0.00  0.00    +0.101 C 
ENDBRANCH   6  11
ENDBRANCH   1   7
BRANCH   3  12
ATOM     12  N   UNL     1      -0.235  -3.069  -5.823  0.00  0.00    +0.381 N 
ATOM     13  H   UNL     1      -0.236  -2.225  -6.375  0.00  0.00    -0.090 HD
ATOM     14  H   UNL     1      -0.135  -3.868  -6.431  0.00  0.00    -0.090 HD
ATOM     15  H   UNL     1      -1.103  -3.140  -5.314  0.00  0.00    -0.090 HD
ENDBRANCH   3  12
BRANCH   5  16
ATOM     16  S   UNL     1       2.279  -4.727  -1.560  0.00  0.00    +0.095 S 
ATOM     17  O   UNL     1       2.550  -5.963  -2.206  0.00  0.00    -0.150 OA
ATOM     18  O   UNL     1       3.297  -3.947  -0.948  0.00  0.00    -0.150 OA
BRANCH  16  19
ATOM     19  C   UNL     1       1.082  -5.063  -0.311  0.00  0.00    +0.259 A 
ATOM     20  C   UNL     1       0.224  -6.104  -0.305  0.00  0.00    +0.072 A 
ATOM     21  C   UNL     1      -0.548  -5.996   0.866  0.00  0.00    +0.055 A 
ATOM     22  C   UNL     1      -0.115  -4.881   1.520  0.00  0.00    +0.175 A 
ATOM     23  O   UNL     1       0.879  -4.330   0.795  0.00  0.00    -0.433 OA
BRANCH  22  24
ATOM     24  C   UNL     1      -0.636  -4.372   2.797  0.00  0.00    +0.202 A 
ATOM     25  C   UNL     1      -0.208  -3.254   3.454  0.00  0.00    +0.075 A 
ATOM     26  C   UNL     1      -0.964  -3.126   4.626  0.00  0.00    +0.157 A 
ATOM     27  N   UNL     1      -1.809  -4.118   4.680  0.00  0.00    -0.086 NA
ATOM     28  O   UNL     1      -1.625  -4.921   3.529  0.00  0.00    -0.352 OA
ENDBRANCH  22  24
ENDBRANCH  16  19
ENDBRANCH   5  16
TORSDOF 6
