REMARK  Name = ZINC52296425
REMARK  8 active torsions:
REMARK  status: ('A' for Active; 'I' for Inactive)
REMARK    1  A    between atoms: C_1  and  C_2
REMARK    2  A    between atoms: C_5  and  N_7
REMARK    3  A    between atoms: N_10  and  CA_11
REMARK    4  A    between atoms: CA_11  and  C_13
REMARK    5  A    between atoms: CA_11  and  C_16
REMARK    6  A    between atoms: C_16  and  C_17
REMARK    7  A    between atoms: C_16  and  C_18
REMARK    8  A    between atoms: C_16  and  C_19
REMARK                            x       y       z     vdW  Elec       q    Type
REMARK                         _______ _______ _______ _____ _____    ______ ____
ROOT
ATOM      1  N   UNL     1       0.135  -1.975   1.632  0.00  0.00    -0.296 N 
ATOM      2  C   UNL     1       0.348  -2.384   2.898  0.00  0.00    +0.301 C 
ATOM      3  O   UNL     1       1.014  -1.702   3.653  0.00  0.00    -0.253 OA
ATOM      4  N   UNL     1      -0.175  -3.550   3.326  0.00  0.00    -0.286 N 
ATOM      5  H   UNL     1      -0.396  -2.519   1.029  0.00  0.00    +0.151 HD
ATOM      6  H   UNL     1      -0.705  -4.094   2.724  0.00  0.00    +0.151 HD
ENDROOT
BRANCH   1  10
ATOM      7  C   UNL     1      -0.019   1.526   0.010  0.00  0.00    +0.009 C 
ATOM      8  C   UNL     1       0.002  -0.004   0.002  0.00  0.00    +0.008 C 
ATOM      9  C   UNL     1       1.351  -0.691  -0.221  0.00  0.00    +0.027 C 
ATOM     10  C   UNL     1       0.703  -0.708   1.166  0.00  0.00    +0.078 C 
ENDBRANCH   1  10
BRANCH   4  11
ATOM     11  CA  UNL     1       0.058  -3.995   4.703  0.00  0.00    +0.193 C 
BRANCH  11  12
ATOM     12  C   UNL     1      -1.071  -4.934   5.133  0.00  0.00    -0.009 C 
ATOM     13  C   UNL     1      -1.106  -6.149   4.203  0.00  0.00    +0.013 C 
ATOM     14  C   UNL     1      -0.828  -5.399   6.570  0.00  0.00    +0.013 C 
ATOM     15  C   UNL     1      -2.408  -4.194   5.055  0.00  0.00    +0.013 C 
ENDBRANCH  11  12
BRANCH  11  16
ATOM     16  C   UNL     1       1.375  -4.725   4.779  0.00  0.00    +0.376 C 
ATOM     17  O   UNL     1       2.055  -4.860   3.777  0.00  0.00    -0.244 OA
ATOM     18  OXT UNL     1       1.759  -5.179   5.843  0.00  0.00    -0.244 OA
ENDBRANCH  11  16
ENDBRANCH   4  11
TORSDOF 4
