REMARK  Name = ZINC40674678
REMARK  7 active torsions:
REMARK  status: ('A' for Active; 'I' for Inactive)
REMARK    1  A    between atoms: C_1  and  C_2
REMARK    2  A    between atoms: C_2  and  C_3
REMARK    3  A    between atoms: C_2  and  C_4
REMARK    4  A    between atoms: C_2  and  N_7
REMARK    5  A    between atoms: N_7  and  C_8
REMARK    6  A    between atoms: C_8  and  C_10
REMARK    7  A    between atoms: C_8  and  C_15
REMARK                            x       y       z     vdW  Elec       q    Type
REMARK                         _______ _______ _______ _____ _____    ______ ____
ROOT
ATOM      1  C   UNL     1       1.999  -0.925  -1.155  0.00  0.00    +0.035 C 
ENDROOT
BRANCH   1   2
ATOM      2  C   UNL     1       2.225  -1.776  -2.378  0.00  0.00    -0.016 A 
ATOM      3  C   UNL     1       3.183  -1.664  -3.330  0.00  0.00    +0.011 A 
ATOM      4  C   UNL     1       3.198  -2.568  -4.376  0.00  0.00    +0.028 A 
ATOM      5  C   UNL     1       2.253  -3.541  -4.418  0.00  0.00    +0.078 A 
ATOM      6  S   UNL     1       1.305  -3.197  -2.944  0.00  0.00    -0.083 S 
ATOM      7 CL   UNL     1       2.027  -4.797  -5.595  0.00  0.00    -0.076 Cl
ENDBRANCH   1   2
BRANCH   1   8
ATOM      8  C   UNL     1       2.570  -1.620   0.053  0.00  0.00    +0.096 A 
ATOM      9  C   UNL     1       3.698  -1.275   0.700  0.00  0.00    +0.043 A 
ATOM     10  C   UNL     1       3.856  -2.190   1.766  0.00  0.00    +0.041 A 
ATOM     11  C   UNL     1       2.816  -3.040   1.707  0.00  0.00    +0.195 A 
ATOM     12  O   UNL     1       2.037  -2.687   0.671  0.00  0.00    -0.469 OA
ENDBRANCH   1   8
BRANCH   1  13
ATOM     13  N   UNL     1       0.557  -0.716  -0.964  0.00  0.00    +0.398 N 
ATOM     14  H   UNL     1       0.132  -1.574  -0.647  0.00  0.00    -0.083 HD
ATOM     15  H   UNL     1       0.139  -0.436  -1.838  0.00  0.00    -0.083 HD
BRANCH  13  17
ATOM     16  C   UNL     1       1.115   1.593  -0.367  0.00  0.00    -0.001 C 
ATOM     17  C   UNL     1       0.344   0.336   0.040  0.00  0.00    +0.005 C 
ATOM     18  C   UNL     1       0.843  -0.151   1.402  0.00  0.00    -0.001 C 
BRANCH  17  19
ATOM     19  C   UNL     1      -1.126   0.655   0.128  0.00  0.00    +0.199 C 
ATOM     20  O   UNL     1      -1.619   0.951   1.196  0.00  0.00    -0.278 OA
ATOM     21  N   UNL     1      -1.893   0.611  -0.979  0.00  0.00    -0.330 N 
ATOM     22  H   UNL     1      -1.499   0.373  -1.833  0.00  0.00    +0.145 HD
ATOM     23  H   UNL     1      -2.839   0.816  -0.922  0.00  0.00    +0.145 HD
ENDBRANCH  17  19
ENDBRANCH  13  17
ENDBRANCH   1  13
TORSDOF 5
