REMARK  Name = ZINC04196491
REMARK  8 active torsions:
REMARK  status: ('A' for Active; 'I' for Inactive)
REMARK    1  A    between atoms: C_4  and  C_7
REMARK    2  A    between atoms: C_7  and  N_8
REMARK    3  A    between atoms: C_12  and  N_16
REMARK    4  A    between atoms: N_16  and  C_17
REMARK    5  A    between atoms: C_17  and  C_18
REMARK    6  A    between atoms: C_18  and  C_19
REMARK    7  A    between atoms: C_22  and  S_25
REMARK    8  A    between atoms: S_25  and  N_28
REMARK                            x       y       z     vdW  Elec       q    Type
REMARK                         _______ _______ _______ _____ _____    ______ ____
ROOT
ATOM      1  N   UNL     1       3.396  -2.010   4.433  0.00  0.00    +0.387 N 
ATOM      2  H   UNL     1       3.806  -1.789   5.328  0.00  0.00    -0.085 HD
ATOM      3  H   UNL     1       2.690  -1.324   4.208  0.00  0.00    -0.085 HD
ENDROOT
BRANCH   1   8
ATOM      4  N   UNL     1       4.152  -0.952   1.338  0.00  0.00    -0.239 N 
ATOM      5  C   UNL     1       4.915  -0.089   2.019  0.00  0.00    +0.221 C 
ATOM      6  O   UNL     1       5.323   0.972   1.597  0.00  0.00    -0.275 OA
ATOM      7  C   UNL     1       5.185  -0.645   3.400  0.00  0.00    +0.090 C 
ATOM      8  C   UNL     1       4.439  -1.995   3.398  0.00  0.00    +0.025 C 
ATOM      9  C   UNL     1       3.820  -2.056   2.019  0.00  0.00    +0.209 C 
ATOM     10  O   UNL     1       3.135  -2.963   1.597  0.00  0.00    -0.277 OA
BRANCH   4  11
ATOM     11  C   UNL     1       3.711  -0.707  -0.038  0.00  0.00    +0.151 C 
BRANCH  11  15
ATOM     12  C   UNL     1      -0.017   1.378   0.010  0.00  0.00    +0.000 A 
ATOM     13  C   UNL     1       1.171   2.086   0.002  0.00  0.00    +0.000 A 
ATOM     14  C   UNL     1       2.377   1.411  -0.013  0.00  0.00    +0.005 A 
ATOM     15  C   UNL     1       2.396   0.029  -0.020  0.00  0.00    -0.030 A 
ATOM     16  C   UNL     1       1.208  -0.679  -0.012  0.00  0.00    +0.005 A 
ATOM     17  C   UNL     1       0.002  -0.004   0.002  0.00  0.00    +0.000 A 
ENDBRANCH  11  15
ENDBRANCH   4  11
ENDBRANCH   1   8
BRANCH   1  18
ATOM     18  C   UNL     1       2.782  -3.343   4.490  0.00  0.00    -0.077 C 
BRANCH  18  19
ATOM     19  C   UNL     1       1.696  -3.359   5.567  0.00  0.00    +0.016 C 
BRANCH  19  20
ATOM     20  C   UNL     1       1.067  -4.727   5.626  0.00  0.00    -0.049 A 
ATOM     21  C   UNL     1      -0.029  -5.018   4.836  0.00  0.00    +0.005 A 
ATOM     22  C   UNL     1      -0.607  -6.273   4.890  0.00  0.00    +0.029 A 
ATOM     23  C   UNL     1      -0.087  -7.237   5.734  0.00  0.00    +0.105 A 
ATOM     24  C   UNL     1       1.009  -6.946   6.524  0.00  0.00    +0.029 A 
ATOM     25  C   UNL     1       1.589  -5.692   6.467  0.00  0.00    +0.005 A 
BRANCH  23  26
ATOM     26  S   UNL     1      -0.824  -8.836   5.804  0.00  0.00    +0.056 S 
ATOM     27  O   UNL     1      -0.488  -9.383   7.072  0.00  0.00    -0.153 OA
ATOM     28  O   UNL     1      -2.169  -8.683   5.373  0.00  0.00    -0.153 OA
BRANCH  26  29
ATOM     29  N   UNL     1      -0.067  -9.774   4.669  0.00  0.00    -0.204 NA
ATOM     30  H   UNL     1       0.018 -10.730   4.807  0.00  0.00    +0.144 HD
ATOM     31  H   UNL     1       0.293  -9.367   3.865  0.00  0.00    +0.144 HD
ENDBRANCH  26  29
ENDBRANCH  23  26
ENDBRANCH  19  20
ENDBRANCH  18  19
ENDBRANCH   1  18
TORSDOF 8
