REMARK  Name = ZINC63349972
REMARK  6 active torsions:
REMARK  status: ('A' for Active; 'I' for Inactive)
REMARK    1  A    between atoms: C_1  and  O_2
REMARK    2  A    between atoms: O_2  and  C_3
REMARK    3  A    between atoms: C_6  and  C_20
REMARK    4  A    between atoms: C_8  and  C_9
REMARK    5  A    between atoms: C_9  and  S_10
REMARK    6  A    between atoms: S_10  and  C_11
REMARK                            x       y       z     vdW  Elec       q    Type
REMARK                         _______ _______ _______ _____ _____    ______ ____
ROOT
ATOM      1  C   UNL     1      -1.200  -0.637   0.010  0.00  0.00    +0.124 A 
ATOM      2  C   UNL     1      -2.375   0.101   0.019  0.00  0.00    +0.046 A 
ATOM      3  C   UNL     1      -3.596  -0.545   0.027  0.00  0.00    +0.006 A 
ATOM      4  C   UNL     1      -3.648  -1.927   0.026  0.00  0.00    -0.055 A 
ATOM      5  C   UNL     1      -2.479  -2.665   0.017  0.00  0.00    +0.010 A 
ATOM      6  C   UNL     1      -1.255  -2.023   0.003  0.00  0.00    +0.004 A 
ENDROOT
BRANCH   4   7
ATOM      7  C   UNL     1      -4.981  -2.629   0.034  0.00  0.00    +0.007 C 
ATOM      8  C   UNL     1      -5.559  -2.637  -1.361  0.00  0.00    +0.010 A 
ATOM      9  C   UNL     1      -6.863  -2.385  -1.619  0.00  0.00    -0.022 A 
ATOM     10  C   UNL     1      -7.042  -2.477  -3.050  0.00  0.00    +0.003 A 
ATOM     11  C   UNL     1      -8.154  -2.315  -3.882  0.00  0.00    +0.010 A 
ATOM     12  C   UNL     1      -7.951  -2.481  -5.230  0.00  0.00    +0.001 A 
ATOM     13  C   UNL     1      -6.707  -2.793  -5.754  0.00  0.00    +0.002 A 
ATOM     14  C   UNL     1      -5.590  -2.959  -4.955  0.00  0.00    +0.026 A 
ATOM     15  C   UNL     1      -5.766  -2.797  -3.582  0.00  0.00    +0.047 A 
ATOM     16  N   UNL     1      -4.896  -2.887  -2.532  0.00  0.00    -0.359 N 
ATOM     17  H   UNL     1      -3.952  -3.095  -2.606  0.00  0.00    +0.166 HD
ATOM     18  C   UNL     1      -7.872  -2.077  -0.542  0.00  0.00    +0.018 C 
ATOM     19  C   UNL     1      -7.260  -2.482   0.806  0.00  0.00    -0.076 C 
ATOM     20  N   UNL     1      -5.909  -1.917   0.926  0.00  0.00    +0.387 N 
ATOM     21  H   UNL     1      -5.590  -2.004   1.879  0.00  0.00    -0.084 HD
ATOM     22  H   UNL     1      -5.934  -0.940   0.672  0.00  0.00    -0.084 HD
ENDBRANCH   4   7
BRANCH   1  24
ATOM     23  C   UNL     1      -0.017   1.425   0.010  0.00  0.00    +0.277 C 
ATOM     24  O   UNL     1       0.002  -0.004   0.002  0.00  0.00    -0.495 OA
ENDBRANCH   1  24
BRANCH   6  25
ATOM     25  C   UNL     1       0.018  -2.829  -0.013  0.00  0.00    +0.111 C 
BRANCH  25  26
ATOM     26  S   UNL     1       0.545  -3.161   1.691  0.00  0.00    -0.110 S 
BRANCH  26  27
ATOM     27  C   UNL     1       2.070  -4.125   1.499  0.00  0.00    +0.236 C 
ATOM     28  N   UNL     1       3.043  -3.374   0.697  0.00  0.00    -0.355 N 
ATOM     29  C   UNL     1       3.301  -4.079  -0.366  0.00  0.00    +0.061 A 
ATOM     30  C   UNL     1       4.180  -3.858  -1.523  0.00  0.00    +0.027 A 
ATOM     31  C   UNL     1       4.244  -4.787  -2.497  0.00  0.00    +0.002 A 
ATOM     32  C   UNL     1       3.496  -5.978  -2.459  0.00  0.00    +0.002 A 
ATOM     33  C   UNL     1       2.660  -6.279  -1.445  0.00  0.00    +0.027 A 
ATOM     34  C   UNL     1       2.509  -5.338  -0.327  0.00  0.00    +0.061 A 
ATOM     35  N   UNL     1       1.793  -5.364   0.760  0.00  0.00    -0.355 N 
ATOM     36  H   UNL     1       3.425  -2.510   0.919  0.00  0.00    +0.162 HD
ATOM     37  H   UNL     1       1.188  -6.071   1.032  0.00  0.00    +0.162 HD
ENDBRANCH  26  27
ENDBRANCH  25  26
ENDBRANCH   6  25
TORSDOF 5
