REMARK  Name = ZINC36824667
REMARK  10 active torsions:
REMARK  status: ('A' for Active; 'I' for Inactive)
REMARK    1  A    between atoms: C_1  and  C_2
REMARK    2  A    between atoms: C_2  and  O_3
REMARK    3  A    between atoms: O_3  and  C_4
REMARK    4  A    between atoms: C_6  and  C_21
REMARK    5  A    between atoms: C_9  and  O_10
REMARK    6  A    between atoms: O_10  and  C_11
REMARK    7  A    between atoms: C_11  and  C_13
REMARK    8  A    between atoms: C_11  and  C_14
REMARK    9  A    between atoms: N_16  and  C_17
REMARK   10  A    between atoms: C_21  and  N_22
REMARK                            x       y       z     vdW  Elec       q    Type
REMARK                         _______ _______ _______ _____ _____    ______ ____
ROOT
ATOM      1  C   UNL     1       0.777  -1.811  -1.336  0.00  0.00    +0.163 A 
ATOM      2  C   UNL     1       0.243  -2.669  -0.388  0.00  0.00    +0.051 A 
ATOM      3  C   UNL     1       0.352  -4.037  -0.554  0.00  0.00    -0.060 A 
ATOM      4  C   UNL     1       0.992  -4.553  -1.665  0.00  0.00    +0.021 A 
ATOM      5  C   UNL     1       1.527  -3.702  -2.616  0.00  0.00    +0.063 A 
ATOM      6  C   UNL     1       1.416  -2.329  -2.458  0.00  0.00    +0.177 A 
ATOM      7 BR   UNL     1       2.403  -4.412  -4.134  0.00  0.00    -0.046 Br
ENDROOT
BRANCH   1   8
ATOM      8  O   UNL     1       0.671  -0.465  -1.174  0.00  0.00    -0.489 OA
BRANCH   8  10
ATOM      9  C   UNL     1      -0.019   1.526   0.010  0.00  0.00    +0.048 C 
ATOM     10  C   UNL     1       0.002  -0.004   0.002  0.00  0.00    +0.226 C 
ENDBRANCH   8  10
ENDBRANCH   1   8
BRANCH   6  11
ATOM     11  O   UNL     1       1.936  -1.491  -3.394  0.00  0.00    -0.475 OA
BRANCH  11  12
ATOM     12  C   UNL     1       3.293  -1.080  -3.215  0.00  0.00    +0.256 C 
ATOM     13  C   UNL     1       3.331   0.203  -2.382  0.00  0.00    +0.062 C 
BRANCH  12  14
ATOM     14  C   UNL     1       3.922  -0.824  -4.560  0.00  0.00    +0.254 C 
ATOM     15  O   UNL     1       3.249  -0.891  -5.567  0.00  0.00    -0.272 OA
ATOM     16  N   UNL     1       5.233  -0.522  -4.644  0.00  0.00    -0.309 N 
ATOM     17  H   UNL     1       5.771  -0.469  -3.839  0.00  0.00    +0.149 HD
BRANCH  16  18
ATOM     18  C   UNL     1       5.845  -0.273  -5.952  0.00  0.00    +0.073 C 
ATOM     19  C   UNL     1       7.211  -0.905  -6.224  0.00  0.00    +0.024 C 
ATOM     20  C   UNL     1       7.099   0.603  -5.990  0.00  0.00    +0.024 C 
ENDBRANCH  16  18
ENDBRANCH  12  14
ENDBRANCH  11  12
ENDBRANCH   6  11
BRANCH   3  21
ATOM     21  C   UNL     1      -0.228  -4.968   0.479  0.00  0.00    -0.050 C 
BRANCH  21  22
ATOM     22  N   UNL     1      -1.619  -5.283   0.128  0.00  0.00    +0.381 N 
ATOM     23  H   UNL     1      -2.160  -4.432   0.101  0.00  0.00    -0.090 HD
ATOM     24  H   UNL     1      -1.646  -5.727  -0.777  0.00  0.00    -0.090 HD
ATOM     25  H   UNL     1      -2.008  -5.906   0.820  0.00  0.00    -0.090 HD
ENDBRANCH  21  22
ENDBRANCH   3  21
TORSDOF 8
