REMARK  Name = ZINC15499991
REMARK  12 active torsions:
REMARK  status: ('A' for Active; 'I' for Inactive)
REMARK    1  A    between atoms: C_1  and  C_2
REMARK    2  A    between atoms: C_5  and  O_27
REMARK    3  A    between atoms: C_6  and  C_8
REMARK    4  A    between atoms: C_8  and  C_10
REMARK    5  A    between atoms: C_8  and  N_51
REMARK    6  A    between atoms: C_11  and  C_13
REMARK    7  A    between atoms: C_11  and  C_14
REMARK    8  A    between atoms: C_11  and  N_51
REMARK    9  A    between atoms: N_16  and  C_17
REMARK   10  A    between atoms: C_20  and  S_23
REMARK   11  A    between atoms: S_23  and  N_26
REMARK   12  A    between atoms: O_27  and  C_28
REMARK                            x       y       z     vdW  Elec       q    Type
REMARK                         _______ _______ _______ _____ _____    ______ ____
ROOT
ATOM      1  C   UNL     1      -2.569   4.140   0.252  0.00  0.00    +0.014 C 
ATOM      2  C   UNL     1      -3.427   3.858  -0.983  0.00  0.00    -0.004 C 
ENDROOT
BRANCH   1   3
ATOM      3  C   UNL     1      -1.255   3.412   0.128  0.00  0.00    +0.203 C 
ATOM      4  O   UNL     1      -0.215   4.035   0.127  0.00  0.00    -0.277 OA
ATOM      5  N   UNL     1      -1.237   2.069   0.019  0.00  0.00    -0.287 N 
ATOM      6  H   UNL     1      -2.070   1.577  -0.047  0.00  0.00    +0.155 HD
BRANCH   5   7
ATOM      7  C   UNL     1      -0.017   1.385   0.002  0.00  0.00    +0.033 A 
ATOM      8  C   UNL     1       1.091   1.953  -0.615  0.00  0.00    +0.025 A 
ATOM      9  C   UNL     1       2.293   1.273  -0.635  0.00  0.00    +0.030 A 
ATOM     10  C   UNL     1       2.394   0.028  -0.042  0.00  0.00    +0.105 A 
ATOM     11  C   UNL     1       1.294  -0.540   0.572  0.00  0.00    +0.030 A 
ATOM     12  C   UNL     1       0.089   0.135   0.596  0.00  0.00    +0.025 A 
BRANCH  10  13
ATOM     13  S   UNL     1       3.929  -0.836  -0.070  0.00  0.00    +0.056 S 
ATOM     14  O   UNL     1       4.945   0.145  -0.228  0.00  0.00    -0.153 OA
ATOM     15  O   UNL     1       3.907  -1.740   1.027  0.00  0.00    -0.153 OA
BRANCH  13  16
ATOM     16  N   UNL     1       3.946  -1.760  -1.444  0.00  0.00    -0.204 NA
ATOM     17  H   UNL     1       3.188  -1.745  -2.049  0.00  0.00    +0.144 HD
ATOM     18  H   UNL     1       4.715  -2.317  -1.645  0.00  0.00    +0.144 HD
ENDBRANCH  13  16
ENDBRANCH  10  13
ENDBRANCH   5   7
ENDBRANCH   1   3
BRANCH   1  19
ATOM     19  N   UNL     1      -2.312   5.590   0.352  0.00  0.00    +0.391 N 
ATOM     20  H   UNL     1      -1.443   5.744   0.877  0.00  0.00    -0.084 HD
ATOM     21  H   UNL     1      -2.216   5.982  -0.592  0.00  0.00    -0.084 HD
BRANCH  19  22
ATOM     22  C   UNL     1      -3.426   6.261   1.047  0.00  0.00    -0.039 C 
ATOM     23  C   UNL     1      -3.208   6.180   2.559  0.00  0.00    -0.009 C 
BRANCH  22  29
ATOM     24  C   UNL     1      -1.190  10.271  -0.939  0.00  0.00    +0.044 C 
ATOM     25  C   UNL     1      -2.406   9.626  -0.328  0.00  0.00    -0.050 A 
ATOM     26  C   UNL     1      -3.565  10.360  -0.157  0.00  0.00    +0.007 A 
ATOM     27  C   UNL     1      -4.682   9.771   0.404  0.00  0.00    +0.046 A 
ATOM     28  C   UNL     1      -4.640   8.440   0.795  0.00  0.00    +0.122 A 
ATOM     29  C   UNL     1      -3.476   7.706   0.623  0.00  0.00    -0.020 A 
ATOM     30  C   UNL     1      -2.360   8.301   0.067  0.00  0.00    +0.009 A 
BRANCH  28  31
ATOM     31  O   UNL     1      -5.737   7.858   1.346  0.00  0.00    -0.495 OA
ATOM     32  C   UNL     1      -6.900   8.675   1.493  0.00  0.00    +0.277 C 
ENDBRANCH  28  31
ENDBRANCH  22  29
ENDBRANCH  19  22
ENDBRANCH   1  19
TORSDOF 8
