REMARK  Name = ZINC45684261
REMARK  11 active torsions:
REMARK  status: ('A' for Active; 'I' for Inactive)
REMARK    1  A    between atoms: C_1  and  C_2
REMARK    2  A    between atoms: C_2  and  N_3
REMARK    3  A    between atoms: N_3  and  C_4
REMARK    4  A    between atoms: N_3  and  C_6
REMARK    5  A    between atoms: C_4  and  C_5
REMARK    6  A    between atoms: C_6  and  C_7
REMARK    7  A    between atoms: C_7  and  C_9
REMARK    8  A    between atoms: C_7  and  N_10
REMARK    9  A    between atoms: N_10  and  S_11
REMARK   10  A    between atoms: S_11  and  C_14
REMARK   11  A    between atoms: C_15  and  N_22
REMARK                            x       y       z     vdW  Elec       q    Type
REMARK                         _______ _______ _______ _____ _____    ______ ____
ROOT
ATOM      1  S   UNL     1      -5.184  -1.632   1.010  0.00  0.00    +0.061 S 
ATOM      2  O   UNL     1      -5.653  -0.895   2.131  0.00  0.00    -0.153 OA
ATOM      3  O   UNL     1      -5.591  -1.337  -0.320  0.00  0.00    -0.153 OA
ENDROOT
BRANCH   1   4
ATOM      4  C   UNL     1      -5.605  -3.317   1.303  0.00  0.00    +0.140 A 
ATOM      5  C   UNL     1      -5.677  -4.211   0.242  0.00  0.00    +0.053 A 
ATOM      6  C   UNL     1      -6.008  -5.539   0.477  0.00  0.00    +0.040 A 
ATOM      7  C   UNL     1      -6.265  -5.968   1.766  0.00  0.00    +0.021 A 
ATOM      8  C   UNL     1      -6.193  -5.076   2.821  0.00  0.00    +0.032 A 
ATOM      9  C   UNL     1      -5.858  -3.753   2.590  0.00  0.00    +0.047 A 
ATOM     10 BR   UNL     1      -5.752  -2.539   4.036  0.00  0.00    -0.048 Br
ATOM     11 BR   UNL     1      -6.716  -7.776   2.087  0.00  0.00    -0.050 Br
BRANCH   5  12
ATOM     12  N   UNL     1      -5.417  -3.775  -1.059  0.00  0.00    -0.356 N 
ATOM     13  H   UNL     1      -5.061  -2.885  -1.210  0.00  0.00    +0.142 HD
ATOM     14  H   UNL     1      -5.593  -4.361  -1.812  0.00  0.00    +0.142 HD
ENDBRANCH   5  12
ENDBRANCH   1   4
BRANCH   1  15
ATOM     15  N   UNL     1      -3.532  -1.528   1.032  0.00  0.00    -0.189 NA
ATOM     16  H   UNL     1      -3.088  -1.011   1.723  0.00  0.00    +0.148 HD
BRANCH  15  17
ATOM     17  C   UNL     1      -2.740  -2.217   0.010  0.00  0.00    +0.057 C 
ATOM     18  C   UNL     1      -2.281  -3.573   0.550  0.00  0.00    +0.024 C 
BRANCH  17  19
ATOM     19  C   UNL     1      -1.518  -1.369  -0.346  0.00  0.00    -0.059 C 
BRANCH  19  20
ATOM     20  N   UNL     1      -1.955  -0.139  -1.020  0.00  0.00    +0.380 N 
ATOM     21  H   UNL     1      -2.560  -0.376  -1.792  0.00  0.00    -0.082 HD
BRANCH  20  23
ATOM     22  C   UNL     1      -3.203   1.955  -0.788  0.00  0.00    -0.017 C 
ATOM     23  C   UNL     1      -2.684   0.708  -0.068  0.00  0.00    -0.082 C 
ENDBRANCH  20  23
BRANCH  20  24
ATOM     24  C   UNL     1      -0.781   0.587  -1.523  0.00  0.00    -0.082 C 
ATOM     25  C   UNL     1      -0.085  -0.250  -2.598  0.00  0.00    -0.017 C 
ENDBRANCH  20  24
ENDBRANCH  19  20
ENDBRANCH  17  19
ENDBRANCH  15  17
ENDBRANCH   1  15
TORSDOF 8
