REMARK  Name = ZINC47619484
REMARK  10 active torsions:
REMARK  status: ('A' for Active; 'I' for Inactive)
REMARK    1  A    between atoms: C_1  and  C_2
REMARK    2  A    between atoms: C_4  and  C_26
REMARK    3  A    between atoms: N_6  and  C_8
REMARK    4  A    between atoms: C_8  and  C_9
REMARK    5  A    between atoms: C_9  and  C_10
REMARK    6  A    between atoms: C_10  and  N_11
REMARK    7  A    between atoms: N_14  and  C_15
REMARK    8  A    between atoms: C_15  and  C_16
REMARK    9  A    between atoms: C_19  and  S_22
REMARK   10  A    between atoms: S_22  and  N_25
REMARK                            x       y       z     vdW  Elec       q    Type
REMARK                         _______ _______ _______ _____ _____    ______ ____
ROOT
ATOM      1  N   UNL     1       0.411  -2.195   6.111  0.00  0.00    -0.299 N 
ATOM      2  C   UNL     1       0.808  -2.535   7.354  0.00  0.00    +0.300 C 
ATOM      3  O   UNL     1       1.841  -3.156   7.514  0.00  0.00    -0.253 OA
ATOM      4  N   UNL     1       0.058  -2.188   8.419  0.00  0.00    -0.295 N 
ATOM      5  H   UNL     1      -0.413  -1.700   5.983  0.00  0.00    +0.150 HD
ATOM      6  H   UNL     1      -0.766  -1.693   8.291  0.00  0.00    +0.151 HD
ENDROOT
BRANCH   1   7
ATOM      7  C   UNL     1       1.226  -2.573   4.954  0.00  0.00    +0.104 C 
BRANCH   7   8
ATOM      8  C   UNL     1       0.557  -2.069   3.673  0.00  0.00    +0.000 C 
BRANCH   8   9
ATOM      9  C   UNL     1       1.408  -2.463   2.464  0.00  0.00    -0.077 C 
BRANCH   9  15
ATOM     10  C   UNL     1      -0.019   1.526   0.010  0.00  0.00    +0.005 C 
ATOM     11  C   UNL     1       0.002  -0.004   0.002  0.00  0.00    -0.031 C 
ATOM     12  C   UNL     1       0.724  -0.499  -1.255  0.00  0.00    +0.003 C 
ATOM     13  C   UNL     1       0.808  -2.027  -1.215  0.00  0.00    -0.031 C 
ATOM     14  C   UNL     1       1.518  -2.460   0.070  0.00  0.00    -0.076 C 
ATOM     15  N   UNL     1       0.765  -1.980   1.235  0.00  0.00    +0.380 N 
ATOM     16  C   UNL     1       0.742  -0.512   1.241  0.00  0.00    -0.076 C 
ATOM     17  C   UNL     1       1.595  -2.527  -2.428  0.00  0.00    +0.005 C 
ATOM     18  H   UNL     1      -0.180  -2.330   1.191  0.00  0.00    -0.082 HD
ENDBRANCH   9  15
ENDBRANCH   8   9
ENDBRANCH   7   8
ENDBRANCH   1   7
BRANCH   4  19
ATOM     19  C   UNL     1       0.489  -2.558   9.769  0.00  0.00    +0.141 C 
BRANCH  19  20
ATOM     20  C   UNL     1      -0.517  -2.055  10.773  0.00  0.00    -0.030 A 
ATOM     21  C   UNL     1      -0.377  -0.792  11.318  0.00  0.00    +0.007 A 
ATOM     22  C   UNL     1      -1.300  -0.331  12.238  0.00  0.00    +0.029 A 
ATOM     23  C   UNL     1      -2.362  -1.131  12.613  0.00  0.00    +0.105 A 
ATOM     24  C   UNL     1      -2.502  -2.394  12.067  0.00  0.00    +0.029 A 
ATOM     25  C   UNL     1      -1.582  -2.854  11.143  0.00  0.00    +0.007 A 
BRANCH  23  26
ATOM     26  S   UNL     1      -3.537  -0.544  13.787  0.00  0.00    +0.056 S 
ATOM     27  O   UNL     1      -4.131  -1.692  14.377  0.00  0.00    -0.153 OA
ATOM     28  O   UNL     1      -2.879   0.454  14.555  0.00  0.00    -0.153 OA
BRANCH  26  29
ATOM     29  N   UNL     1      -4.734   0.225  12.938  0.00  0.00    -0.204 NA
ATOM     30  H   UNL     1      -5.641   0.238  13.283  0.00  0.00    +0.144 HD
ATOM     31  H   UNL     1      -4.528   0.662  12.098  0.00  0.00    +0.144 HD
ENDBRANCH  26  29
ENDBRANCH  23  26
ENDBRANCH  19  20
ENDBRANCH   4  19
TORSDOF 8
