REMARK  Name = ZINC15947151
REMARK  9 active torsions:
REMARK  status: ('A' for Active; 'I' for Inactive)
REMARK    1  A    between atoms: C_1  and  C_2
REMARK    2  A    between atoms: C_2  and  N_3
REMARK    3  A    between atoms: C_11  and  O_37
REMARK    4  A    between atoms: C_13  and  C_16
REMARK    5  A    between atoms: C_19  and  O_24
REMARK    6  A    between atoms: C_20  and  O_22
REMARK    7  A    between atoms: O_22  and  C_23
REMARK    8  A    between atoms: O_24  and  C_25
REMARK    9  A    between atoms: C_25  and  C_27
REMARK                            x       y       z     vdW  Elec       q    Type
REMARK                         _______ _______ _______ _____ _____    ______ ____
ROOT
ATOM      1  C   UNL     1       0.856  -4.289   7.553  0.00  0.00    -0.002 A 
ATOM      2  C   UNL     1      -0.309  -3.753   8.070  0.00  0.00    +0.011 A 
ATOM      3  C   UNL     1      -1.437  -4.541   8.203  0.00  0.00    +0.050 A 
ATOM      4  C   UNL     1      -1.402  -5.871   7.816  0.00  0.00    +0.173 A 
ATOM      5  C   UNL     1      -0.230  -6.411   7.295  0.00  0.00    +0.163 A 
ATOM      6  C   UNL     1       0.896  -5.614   7.161  0.00  0.00    +0.056 A 
ENDROOT
BRANCH   1  17
ATOM      7  N   UNL     1       0.632  -0.382   1.256  0.00  0.00    +0.383 N 
ATOM      8  C   UNL     1       0.752  -1.842   1.161  0.00  0.00    -0.074 C 
ATOM      9  C   UNL     1       1.762  -2.358   2.192  0.00  0.00    +0.018 C 
ATOM     10  C   UNL     1       1.366  -1.802   3.553  0.00  0.00    -0.027 A 
ATOM     11  C   UNL     1       0.518  -0.748   3.634  0.00  0.00    -0.021 A 
ATOM     12  S   UNL     1       0.340  -0.446   5.369  0.00  0.00    -0.080 S 
ATOM     13  C   UNL     1       1.325  -1.643   5.958  0.00  0.00    +0.080 A 
ATOM     14  C   UNL     1       1.825  -2.307   4.831  0.00  0.00    +0.067 A 
ATOM     15  C   UNL     1       2.764  -3.436   5.062  0.00  0.00    +0.220 C 
ATOM     16  N   UNL     1       2.869  -3.898   6.278  0.00  0.00    -0.223 NA
ATOM     17  C   UNL     1       2.083  -3.426   7.412  0.00  0.00    +0.224 C 
ATOM     18  N   UNL     1       1.665  -2.023   7.237  0.00  0.00    -0.313 N 
ATOM     19  C   UNL     1      -0.105  -0.025   2.483  0.00  0.00    -0.035 C 
ATOM     20  H   UNL     1       1.632  -1.402   7.981  0.00  0.00    +0.149 HD
ATOM     21  H   UNL     1       1.552   0.030   1.286  0.00  0.00    -0.081 HD
BRANCH   7  23
ATOM     22  C   UNL     1      -0.109   1.657   0.118  0.00  0.00    -0.017 C 
ATOM     23  C   UNL     1      -0.094   0.127   0.085  0.00  0.00    -0.082 C 
ENDBRANCH   7  23
BRANCH  15  24
ATOM     24  O   UNL     1       3.484  -3.966   4.047  0.00  0.00    -0.492 OA
ATOM     25  H   UNL     1       4.061  -4.695   4.313  0.00  0.00    +0.294 HD
ENDBRANCH  15  24
ENDBRANCH   1  17
BRANCH   5  26
ATOM     26  O   UNL     1      -0.190  -7.716   6.915  0.00  0.00    -0.491 OA
ATOM     27  C   UNL     1       1.047  -8.201   6.390  0.00  0.00    +0.277 C 
ENDBRANCH   5  26
BRANCH   4  28
ATOM     28  O   UNL     1      -2.511  -6.648   7.946  0.00  0.00    -0.419 OA
BRANCH  28  29
ATOM     29  C   UNL     1      -2.587  -7.469   9.012  0.00  0.00    +0.345 C 
ATOM     30  O   UNL     1      -1.728  -7.432   9.870  0.00  0.00    -0.245 OA
BRANCH  29  31
ATOM     31  C   UNL     1      -3.713  -8.410   9.137  0.00  0.00    +0.067 A 
ATOM     32  C   UNL     1      -4.639  -8.550   8.110  0.00  0.00    +0.015 A 
ATOM     33  C   UNL     1      -5.699  -9.437   8.231  0.00  0.00    +0.001 A 
ATOM     34  C   UNL     1      -5.875 -10.199   9.346  0.00  0.00    +0.008 A 
ATOM     35  C   UNL     1      -4.978 -10.109  10.423  0.00  0.00    -0.017 A 
ATOM     36  C   UNL     1      -3.877  -9.221  10.341  0.00  0.00    -0.004 A 
ATOM     37  C   UNL     1      -2.978  -9.134  11.410  0.00  0.00    +0.009 A 
ATOM     38  C   UNL     1      -3.167  -9.909  12.515  0.00  0.00    +0.001 A 
ATOM     39  C   UNL     1      -4.245 -10.788  12.597  0.00  0.00    +0.001 A 
ATOM     40  C   UNL     1      -5.146 -10.888  11.581  0.00  0.00    +0.008 A 
ENDBRANCH  29  31
ENDBRANCH  28  29
ENDBRANCH   4  28
TORSDOF 7
