REMARK  Name = ZINC08831332
REMARK  7 active torsions:
REMARK  status: ('A' for Active; 'I' for Inactive)
REMARK    1  A    between atoms: C_3  and  S_26
REMARK    2  A    between atoms: C_6  and  N_7
REMARK    3  A    between atoms: N_7  and  C_8
REMARK    4  A    between atoms: C_8  and  N_10
REMARK    5  A    between atoms: C_11  and  C_13
REMARK    6  A    between atoms: C_16  and  C_18
REMARK    7  A    between atoms: S_26  and  N_29
REMARK                            x       y       z     vdW  Elec       q    Type
REMARK                         _______ _______ _______ _____ _____    ______ ____
ROOT
ATOM      1  N   UNL     1       4.932  -4.777   0.346  0.00  0.00    -0.261 N 
ATOM      2  C   UNL     1       5.708  -3.746   0.736  0.00  0.00    +0.285 C 
ATOM      3  O   UNL     1       6.864  -3.943   1.061  0.00  0.00    -0.266 OA
ATOM      4  H   UNL     1       4.011  -4.619   0.087  0.00  0.00    +0.157 HD
ENDROOT
BRANCH   2   5
ATOM      5  C   UNL     1       5.161  -2.389   0.768  0.00  0.00    +0.190 A 
ATOM      6  C   UNL     1       5.841  -1.250   1.144  0.00  0.00    +0.055 A 
ATOM      7  C   UNL     1       4.942  -0.186   1.026  0.00  0.00    +0.050 A 
ATOM      8  C   UNL     1       3.758  -0.707   0.587  0.00  0.00    +0.136 A 
ATOM      9  O   UNL     1       3.900  -2.034   0.440  0.00  0.00    -0.450 OA
BRANCH   8  10
ATOM     10  C   UNL     1       2.524   0.061   0.324  0.00  0.00    +0.019 A 
ATOM     11  C   UNL     1       2.503   1.444   0.522  0.00  0.00    +0.013 A 
ATOM     12  C   UNL     1       1.348   2.156   0.276  0.00  0.00    +0.022 A 
ATOM     13  C   UNL     1       0.210   1.504  -0.169  0.00  0.00    +0.059 A 
ATOM     14  C   UNL     1       0.224   0.132  -0.368  0.00  0.00    +0.060 A 
ATOM     15  C   UNL     1       1.374  -0.592  -0.124  0.00  0.00    +0.033 A 
ATOM     16 CL   UNL     1      -1.207  -0.677  -0.925  0.00  0.00    -0.082 Cl
ATOM     17 CL   UNL     1      -1.237   2.408  -0.484  0.00  0.00    -0.082 Cl
ENDBRANCH   8  10
ENDBRANCH   2   5
BRANCH   1  18
ATOM     18  C   UNL     1       5.436  -6.026   0.317  0.00  0.00    +0.141 C 
ATOM     19  S   UNL     1       7.063  -6.304   0.774  0.00  0.00    -0.018 S 
BRANCH  18  20
ATOM     20  N   UNL     1       4.660  -7.057  -0.072  0.00  0.00    -0.297 N 
ATOM     21  H   UNL     1       3.723  -6.910  -0.272  0.00  0.00    +0.154 HD
BRANCH  20  27
ATOM     22  C   UNL     1       4.923  -9.119  -1.302  0.00  0.00    +0.025 A 
ATOM     23  C   UNL     1       5.470 -10.382  -1.416  0.00  0.00    +0.030 A 
ATOM     24  C   UNL     1       6.289 -10.876  -0.417  0.00  0.00    +0.105 A 
ATOM     25  C   UNL     1       6.568 -10.104   0.696  0.00  0.00    +0.030 A 
ATOM     26  C   UNL     1       6.030  -8.838   0.814  0.00  0.00    +0.025 A 
ATOM     27  C   UNL     1       5.207  -8.339  -0.188  0.00  0.00    +0.033 A 
BRANCH  24  28
ATOM     28  S   UNL     1       6.978 -12.491  -0.563  0.00  0.00    +0.056 S 
ATOM     29  O   UNL     1       7.005 -12.797  -1.950  0.00  0.00    -0.153 OA
ATOM     30  O   UNL     1       8.147 -12.508   0.245  0.00  0.00    -0.153 OA
BRANCH  28  31
ATOM     31  N   UNL     1       5.907 -13.545   0.133  0.00  0.00    -0.204 NA
ATOM     32  H   UNL     1       5.081 -13.213   0.519  0.00  0.00    +0.144 HD
ATOM     33  H   UNL     1       6.105 -14.494   0.155  0.00  0.00    +0.144 HD
ENDBRANCH  28  31
ENDBRANCH  24  28
ENDBRANCH  20  27
ENDBRANCH  18  20
ENDBRANCH   1  18
TORSDOF 7
