REMARK  Name = ZINC03225191
REMARK  3 active torsions:
REMARK  status: ('A' for Active; 'I' for Inactive)
REMARK    1  A    between atoms: C_3  and  C_9
REMARK    2  A    between atoms: C_15  and  S_22
REMARK    3  A    between atoms: S_22  and  N_25
REMARK                            x       y       z     vdW  Elec       q    Type
REMARK                         _______ _______ _______ _____ _____    ______ ____
ROOT
ATOM      1  C   UNL     1       1.300   2.326   0.002  0.00  0.00    +0.192 C 
ATOM      2  N   UNL     1       2.031   1.895  -1.187  0.00  0.00    -0.322 N 
ATOM      3  C   UNL     1       2.175   0.561  -1.556  0.00  0.00    +0.057 A 
ATOM      4  C   UNL     1       3.215   0.211  -2.417  0.00  0.00    +0.047 A 
ATOM      5  C   UNL     1       3.374  -1.100  -2.817  0.00  0.00    +0.069 A 
ATOM      6  C   UNL     1       2.504  -2.078  -2.366  0.00  0.00    +0.125 A 
ATOM      7  C   UNL     1       1.474  -1.739  -1.508  0.00  0.00    +0.060 A 
ATOM      8  C   UNL     1       1.314  -0.429  -1.103  0.00  0.00    +0.128 A 
ATOM      9  S   UNL     1       0.002  -0.004   0.002  0.00  0.00    +0.062 S 
ATOM     10  O   UNL     1       0.401  -0.421   1.300  0.00  0.00    -0.153 OA
ATOM     11  O   UNL     1      -1.209  -0.432  -0.606  0.00  0.00    -0.153 OA
ATOM     12  N   UNL     1      -0.021   1.664   0.011  0.00  0.00    -0.166 NA
ATOM     13 CL   UNL     1       4.670  -1.525  -3.891  0.00  0.00    -0.081 Cl
ATOM     14  H   UNL     1       2.438   2.574  -1.748  0.00  0.00    +0.148 HD
ATOM     15  H   UNL     1      -0.849   2.168   0.018  0.00  0.00    +0.150 HD
ENDROOT
BRANCH   1  18
ATOM     16  C   UNL     1       4.148   1.419   2.310  0.00  0.00    +0.002 A 
ATOM     17  C   UNL     1       3.441   1.777   1.176  0.00  0.00    +0.008 A 
ATOM     18  C   UNL     1       2.070   1.936   1.238  0.00  0.00    +0.008 A 
ATOM     19  C   UNL     1       1.404   1.742   2.435  0.00  0.00    +0.065 A 
ATOM     20  C   UNL     1       2.111   1.379   3.568  0.00  0.00    +0.060 A 
ATOM     21  C   UNL     1       3.484   1.220   3.505  0.00  0.00    +0.021 A 
ATOM     22 CL   UNL     1       1.276   1.129   5.070  0.00  0.00    -0.082 Cl
ATOM     23 CL   UNL     1      -0.318   1.948   2.514  0.00  0.00    -0.082 Cl
ENDBRANCH   1  18
BRANCH   6  24
ATOM     24  S   UNL     1       2.707  -3.749  -2.885  0.00  0.00    +0.057 S 
ATOM     25  O   UNL     1       4.077  -4.071  -2.692  0.00  0.00    -0.153 OA
ATOM     26  O   UNL     1       1.657  -4.492  -2.281  0.00  0.00    -0.153 OA
BRANCH  24  27
ATOM     27  N   UNL     1       2.437  -3.791  -4.519  0.00  0.00    -0.203 NA
ATOM     28  H   UNL     1       2.214  -2.975  -4.995  0.00  0.00    +0.144 HD
ATOM     29  H   UNL     1       2.502  -4.630  -5.000  0.00  0.00    +0.144 HD
ENDBRANCH  24  27
ENDBRANCH   6  24
TORSDOF 3
