REMARK  Name = ZINC35890870
REMARK  8 active torsions:
REMARK  status: ('A' for Active; 'I' for Inactive)
REMARK    1  A    between atoms: C_1  and  C_2
REMARK    2  A    between atoms: C_5  and  C_8
REMARK    3  A    between atoms: C_10  and  C_33
REMARK    4  A    between atoms: C_11  and  C_30
REMARK    5  A    between atoms: C_12  and  N_14
REMARK    6  A    between atoms: N_22  and  C_23
REMARK    7  A    between atoms: C_30  and  C_31
REMARK    8  A    between atoms: C_30  and  C_32
REMARK                            x       y       z     vdW  Elec       q    Type
REMARK                         _______ _______ _______ _____ _____    ______ ____
ROOT
ATOM      1  C   UNL     1      -0.232  -5.177   1.329  0.00  0.00    +0.140 A 
ATOM      2  N   UNL     1       0.409  -6.135   1.985  0.00  0.00    -0.343 N 
ATOM      3  C   UNL     1       0.652  -7.305   1.414  0.00  0.00    +0.021 A 
ATOM      4  C   UNL     1       0.231  -7.525   0.116  0.00  0.00    +0.014 A 
ATOM      5  C   UNL     1      -0.442  -6.497  -0.550  0.00  0.00    +0.129 A 
ATOM      6  N   UNL     1      -0.657  -5.351   0.085  0.00  0.00    -0.214 NA
ATOM      7  C   UNL     1       1.382  -8.384   2.171  0.00  0.00    +0.064 C 
ATOM      8  H   UNL     1       0.703  -5.977   2.895  0.00  0.00    +0.167 HD
ENDROOT
BRANCH   5   9
ATOM      9  N   UNL     1      -0.882  -6.674  -1.851  0.00  0.00    -0.312 N 
ATOM     10  C   UNL     1      -2.264  -7.095  -2.123  0.00  0.00    +0.125 C 
ATOM     11  C   UNL     1      -2.910  -6.073  -3.067  0.00  0.00    +0.128 C 
ATOM     12  N   UNL     1      -2.005  -5.842  -4.201  0.00  0.00    -0.282 N 
ATOM     13  C   UNL     1      -0.623  -5.421  -3.929  0.00  0.00    +0.128 C 
ATOM     14  C   UNL     1       0.022  -6.437  -2.986  0.00  0.00    +0.125 C 
ATOM     15  C   UNL     1      -2.433  -6.014  -5.467  0.00  0.00    +0.307 C 
ATOM     16  O   UNL     1      -3.547  -6.454  -5.678  0.00  0.00    -0.252 OA
ATOM     17  N   UNL     1      -1.627  -5.698  -6.500  0.00  0.00    -0.268 N 
ATOM     18  H   UNL     1      -0.708  -5.434  -6.335  0.00  0.00    +0.156 HD
BRANCH  17  19
ATOM     19  C   UNL     1      -2.115  -5.750  -7.811  0.00  0.00    +0.049 A 
ATOM     20  C   UNL     1      -3.483  -5.722  -8.045  0.00  0.00    +0.024 A 
ATOM     21  C   UNL     1      -3.962  -5.773  -9.340  0.00  0.00    +0.002 A 
ATOM     22  C   UNL     1      -3.081  -5.853 -10.402  0.00  0.00    +0.001 A 
ATOM     23  C   UNL     1      -1.718  -5.882 -10.173  0.00  0.00    +0.017 A 
ATOM     24  C   UNL     1      -1.232  -5.825  -8.880  0.00  0.00    +0.039 A 
ATOM     25 BR   UNL     1       0.633  -5.857  -8.568  0.00  0.00    -0.048 Br
ENDBRANCH  17  19
ENDBRANCH   5   9
BRANCH   1  30
ATOM     26  C   UNL     1      -1.212  -0.148   3.956  0.00  0.00    +0.044 C 
ATOM     27  C   UNL     1      -0.956  -1.464   3.269  0.00  0.00    -0.050 A 
ATOM     28  C   UNL     1      -1.393  -1.660   1.971  0.00  0.00    +0.004 A 
ATOM     29  C   UNL     1      -1.161  -2.863   1.336  0.00  0.00    +0.012 A 
ATOM     30  C   UNL     1      -0.484  -3.882   2.005  0.00  0.00    +0.017 A 
ATOM     31  C   UNL     1      -0.046  -3.678   3.313  0.00  0.00    +0.012 A 
ATOM     32  C   UNL     1      -0.279  -2.469   3.936  0.00  0.00    +0.004 A 
ENDBRANCH   1  30
BRANCH   4  33
ATOM     33  C   UNL     1       0.491  -8.844  -0.565  0.00  0.00    +0.018 C 
ATOM     34  C   UNL     1      -0.787  -9.320  -1.259  0.00  0.00    +0.012 C 
ATOM     35  C   UNL     1       1.601  -8.671  -1.603  0.00  0.00    +0.012 C 
ENDBRANCH   4  33
TORSDOF 4
