REMARK  Name = ZINC55808255
REMARK  8 active torsions:
REMARK  status: ('A' for Active; 'I' for Inactive)
REMARK    1  A    between atoms: C_1  and  C_2
REMARK    2  A    between atoms: C_2  and  C_3
REMARK    3  A    between atoms: C_2  and  C_4
REMARK    4  A    between atoms: C_7  and  C_10
REMARK    5  A    between atoms: N_14  and  C_22
REMARK    6  A    between atoms: C_16  and  C_17
REMARK    7  A    between atoms: C_16  and  C_19
REMARK    8  A    between atoms: C_27  and  C_28
REMARK                            x       y       z     vdW  Elec       q    Type
REMARK                         _______ _______ _______ _____ _____    ______ ____
ROOT
ATOM      1  C   UNL     1       2.693  -1.857  -4.726  0.00  0.00    +0.028 C 
ATOM      2  C   UNL     1       3.860  -2.541  -4.619  0.00  0.00    +0.079 A 
ATOM      3  C   UNL     1       4.770  -3.015  -5.681  0.00  0.00    +0.271 A 
ATOM      4  O   UNL     1       4.532  -2.816  -6.858  0.00  0.00    -0.266 OA
ATOM      5  N   UNL     1       5.854  -3.665  -5.294  0.00  0.00    -0.267 N 
ATOM      6  C   UNL     1       6.106  -3.879  -3.960  0.00  0.00    +0.116 A 
ATOM      7  C   UNL     1       7.190  -4.538  -3.376  0.00  0.00    +0.159 C 
ATOM      8  S   UNL     1       4.715  -3.103  -3.154  0.00  0.00    -0.064 S 
ENDROOT
BRANCH   1  12
ATOM      9  C   UNL     1       0.795  -0.343  -1.250  0.00  0.00    -0.045 A 
ATOM     10  C   UNL     1       2.124  -0.725  -1.197  0.00  0.00    +0.004 A 
ATOM     11  C   UNL     1       2.748  -1.219  -2.323  0.00  0.00    +0.008 A 
ATOM     12  C   UNL     1       2.035  -1.332  -3.521  0.00  0.00    -0.024 A 
ATOM     13  C   UNL     1       0.691  -0.943  -3.566  0.00  0.00    +0.008 A 
ATOM     14  C   UNL     1       0.080  -0.457  -2.430  0.00  0.00    +0.004 A 
BRANCH   9  16
ATOM     15  C   UNL     1       0.165  -0.861   1.092  0.00  0.00    +0.012 C 
ATOM     16  C   UNL     1       0.120   0.195  -0.015  0.00  0.00    +0.013 C 
ATOM     17  C   UNL     1       0.847   1.457   0.455  0.00  0.00    +0.012 C 
ENDBRANCH   9  16
ENDBRANCH   1  12
BRANCH   5  18
ATOM     18  C   UNL     1       6.753  -4.138  -6.251  0.00  0.00    +0.068 A 
ATOM     19  C   UNL     1       7.808  -3.341  -6.672  0.00  0.00    +0.027 A 
ATOM     20  C   UNL     1       8.696  -3.812  -7.619  0.00  0.00    +0.002 A 
ATOM     21  C   UNL     1       8.542  -5.079  -8.155  0.00  0.00    +0.001 A 
ATOM     22  C   UNL     1       7.500  -5.885  -7.749  0.00  0.00    +0.021 A 
ATOM     23  C   UNL     1       6.598  -5.425  -6.787  0.00  0.00    +0.076 A 
BRANCH  23  24
ATOM     24  C   UNL     1       5.517  -6.260  -6.357  0.00  0.00    +0.101 C 
ATOM     25  N   UNL     1       4.660  -6.922  -6.015  0.00  0.00    -0.191 NA
ENDBRANCH  23  24
ENDBRANCH   5  18
BRANCH   7  26
ATOM     26  C   UNL     1       7.272  -4.659  -1.952  0.00  0.00    +0.113 C 
ATOM     27  N   UNL     1       7.337  -4.755  -0.822  0.00  0.00    -0.190 NA
ENDBRANCH   7  26
BRANCH   7  28
ATOM     28  C   UNL     1       8.219  -5.093  -4.202  0.00  0.00    +0.113 C 
ATOM     29  N   UNL     1       9.036  -5.534  -4.858  0.00  0.00    -0.190 NA
ENDBRANCH   7  28
TORSDOF 6
