REMARK  Name = ZINC58953224
REMARK  2 active torsions:
REMARK  status: ('A' for Active; 'I' for Inactive)
REMARK    1  A    between atoms: C_1  and  C_2
REMARK    2  A    between atoms: C_12  and  C_14
REMARK                            x       y       z     vdW  Elec       q    Type
REMARK                         _______ _______ _______ _____ _____    ______ ____
ROOT
ATOM      1  C   UNL     1       2.612  -0.456   2.895  0.00  0.00    +0.078 C 
ATOM      2  C   UNL     1       1.820  -1.271   3.919  0.00  0.00    +0.032 C 
ATOM      3  C   UNL     1       2.754  -1.705   5.053  0.00  0.00    +0.110 C 
ATOM      4  N   UNL     1       3.409  -0.512   5.608  0.00  0.00    -0.285 N 
ATOM      5  C   UNL     1       4.123   0.391   4.694  0.00  0.00    +0.110 C 
ATOM      6  C   UNL     1       3.174   0.801   3.564  0.00  0.00    +0.032 C 
ATOM      7  C   UNL     1       3.357  -0.252   6.929  0.00  0.00    +0.305 C 
ATOM      8  O   UNL     1       2.587  -0.869   7.640  0.00  0.00    -0.252 OA
ATOM      9  N   UNL     1       4.157   0.693   7.462  0.00  0.00    -0.285 N 
ATOM     10  C   UNL     1       4.984   1.643   6.704  0.00  0.00    +0.109 C 
ATOM     11  C   UNL     1       5.743   2.510   7.730  0.00  0.00    +0.020 C 
ATOM     12  C   UNL     1       5.734   1.627   9.005  0.00  0.00    +0.020 C 
ATOM     13  C   UNL     1       4.342   0.949   8.902  0.00  0.00    +0.109 C 
ENDROOT
BRANCH   1  24
ATOM     14  C   UNL     1       0.039   0.864  -0.159  0.00  0.00    +0.033 C 
ATOM     15  C   UNL     1       0.477  -0.596  -0.286  0.00  0.00    +0.104 C 
ATOM     16  C   UNL     1      -0.753  -1.500  -0.367  0.00  0.00    -0.017 A 
ATOM     17  C   UNL     1      -1.833  -1.245  -1.210  0.00  0.00    +0.013 A 
ATOM     18  C   UNL     1      -2.888  -2.092  -1.232  0.00  0.00    +0.046 A 
ATOM     19  S   UNL     1      -2.397  -3.322  -0.034  0.00  0.00    -0.101 S 
ATOM     20  C   UNL     1      -0.831  -2.616   0.407  0.00  0.00    -0.004 A 
ATOM     21  C   UNL     1       0.169  -3.121   1.396  0.00  0.00    +0.061 C 
ATOM     22  C   UNL     1       1.510  -2.416   1.142  0.00  0.00    +0.113 C 
ATOM     23  N   UNL     1       1.246  -0.990   0.902  0.00  0.00    -0.294 N 
ATOM     24  C   UNL     1       1.703  -0.056   1.760  0.00  0.00    +0.219 C 
ATOM     25  O   UNL     1       1.384   1.105   1.620  0.00  0.00    -0.275 OA
ENDBRANCH   1  24
TORSDOF 1
