REMARK  Name = ZINC20112847
REMARK  12 active torsions:
REMARK  status: ('A' for Active; 'I' for Inactive)
REMARK    1  A    between atoms: C_1  and  C_2
REMARK    2  A    between atoms: C_2  and  C_4
REMARK    3  A    between atoms: C_2  and  N_10
REMARK    4  A    between atoms: N_10  and  C_11
REMARK    5  A    between atoms: C_19  and  N_35
REMARK    6  A    between atoms: C_25  and  O_33
REMARK    7  A    between atoms: C_26  and  O_31
REMARK    8  A    between atoms: C_27  and  O_29
REMARK    9  A    between atoms: O_29  and  C_30
REMARK   10  A    between atoms: O_31  and  C_32
REMARK   11  A    between atoms: O_33  and  C_34
REMARK   12  A    between atoms: N_35  and  C_36
REMARK                            x       y       z     vdW  Elec       q    Type
REMARK                         _______ _______ _______ _____ _____    ______ ____
ROOT
ATOM      1  C   UNL     1      -3.050  -0.915  -4.509  0.00  0.00    +0.059 A 
ATOM      2  C   UNL     1      -1.998  -1.019  -5.369  0.00  0.00    +0.026 A 
ATOM      3  C   UNL     1      -0.687  -1.111  -5.087  0.00  0.00    +0.011 A 
ATOM      4  C   UNL     1       0.016  -1.100  -3.909  0.00  0.00    -0.012 A 
ATOM      5  C   UNL     1      -0.521  -0.930  -2.632  0.00  0.00    -0.050 A 
ATOM      6  C   UNL     1      -1.832  -0.851  -2.345  0.00  0.00    +0.055 A 
ATOM      7  C   UNL     1      -2.955  -0.875  -3.119  0.00  0.00    +0.198 A 
ATOM      8  O   UNL     1      -4.019  -0.861  -2.514  0.00  0.00    -0.286 OA
ATOM      9  C   UNL     1       0.433  -0.823  -1.460  0.00  0.00    -0.040 C 
ATOM     10  C   UNL     1       0.937  -2.183  -1.020  0.00  0.00    -0.007 C 
ATOM     11  C   UNL     1       1.343  -3.033  -2.220  0.00  0.00    +0.035 C 
ATOM     12  C   UNL     1       2.143  -2.198  -3.188  0.00  0.00    -0.033 A 
ATOM     13  C   UNL     1       1.495  -1.278  -4.007  0.00  0.00    +0.031 A 
ATOM     14  C   UNL     1       2.225  -0.512  -4.920  0.00  0.00    +0.173 A 
ATOM     15  C   UNL     1       3.603  -0.669  -4.995  0.00  0.00    +0.204 A 
ATOM     16  C   UNL     1       4.244  -1.583  -4.166  0.00  0.00    +0.165 A 
ATOM     17  C   UNL     1       3.512  -2.346  -3.265  0.00  0.00    +0.054 A 
ENDROOT
BRANCH   9  18
ATOM     18  N   UNL     1      -0.262  -0.183  -0.335  0.00  0.00    +0.382 N 
ATOM     19  C   UNL     1      -0.224   1.280  -0.457  0.00  0.00    -0.100 C 
ATOM     20  H   UNL     1      -1.313  -0.509  -0.320  0.00  0.00    -0.085 HD
ATOM     21  H   UNL     1       0.225  -0.471   0.609  0.00  0.00    -0.085 HD
ENDBRANCH   9  18
BRANCH   1  22
ATOM     22  N   UNL     1      -4.318  -0.844  -5.061  0.00  0.00    -0.397 NA
ATOM     23  H   UNL     1      -4.765   0.042  -4.587  0.00  0.00    +0.124 HD
ATOM     24  H   UNL     1      -4.820  -1.750  -4.692  0.00  0.00    +0.124 HD
BRANCH  22  26
ATOM     25  C   UNL     1      -4.449  -2.159  -7.119  0.00  0.00    +0.031 C 
ATOM     26  C   UNL     1      -4.480  -0.754  -6.514  0.00  0.00    +0.081 C 
BRANCH  26  27
ATOM     27  C   UNL     1      -5.799  -0.098  -6.833  0.00  0.00    -0.029 A 
ATOM     28  C   UNL     1      -6.923  -0.411  -6.091  0.00  0.00    +0.005 A 
ATOM     29  C   UNL     1      -8.132   0.194  -6.381  0.00  0.00    +0.000 A 
ATOM     30  C   UNL     1      -8.219   1.103  -7.419  0.00  0.00    +0.000 A 
ATOM     31  C   UNL     1      -7.096   1.411  -8.164  0.00  0.00    +0.000 A 
ATOM     32  C   UNL     1      -5.886   0.810  -7.871  0.00  0.00    +0.005 A 
ENDBRANCH  26  27
ENDBRANCH  22  26
ENDBRANCH   1  22
BRANCH  16  33
ATOM     33  O   UNL     1       5.593  -1.731  -4.238  0.00  0.00    -0.491 OA
ATOM     34  C   UNL     1       6.188  -2.687  -3.358  0.00  0.00    +0.277 C 
ENDBRANCH  16  33
BRANCH  15  35
ATOM     35  O   UNL     1       4.326   0.071  -5.880  0.00  0.00    -0.488 OA
ATOM     36  C   UNL     1       4.513  -0.479  -7.185  0.00  0.00    +0.277 C 
ENDBRANCH  15  35
BRANCH  14  37
ATOM     37  O   UNL     1       1.592   0.379  -5.727  0.00  0.00    -0.491 OA
ATOM     38  C   UNL     1       1.540   1.736  -5.281  0.00  0.00    +0.277 C 
ENDBRANCH  14  37
TORSDOF 7
