REMARK  Name = ZINC00662911
REMARK  10 active torsions:
REMARK  status: ('A' for Active; 'I' for Inactive)
REMARK    1  A    between atoms: C_1  and  C_2
REMARK    2  A    between atoms: C_2  and  O_3
REMARK    3  A    between atoms: O_3  and  C_4
REMARK    4  A    between atoms: C_7  and  N_10
REMARK    5  A    between atoms: N_10  and  C_11
REMARK    6  A    between atoms: C_11  and  C_13
REMARK    7  A    between atoms: C_11  and  C_14
REMARK    8  A    between atoms: N_16  and  N_17
REMARK    9  A    between atoms: C_18  and  C_19
REMARK   10  A    between atoms: C_24  and  O_25
REMARK                            x       y       z     vdW  Elec       q    Type
REMARK                         _______ _______ _______ _____ _____    ______ ____
ROOT
ATOM      1  C   UNL     1      -3.291  -7.945  -0.616  0.00  0.00    +0.252 C 
ATOM      2  O   UNL     1      -2.239  -8.400  -1.013  0.00  0.00    -0.272 OA
ATOM      3  N   UNL     1      -4.421  -8.673  -0.718  0.00  0.00    -0.205 N 
ATOM      4  H   UNL     1      -5.262  -8.309  -0.400  0.00  0.00    +0.177 HD
ENDROOT
BRANCH   1   5
ATOM      5  C   UNL     1      -3.334  -6.567  -0.008  0.00  0.00    +0.155 C 
ATOM      6  C   UNL     1      -3.846  -6.660   1.431  0.00  0.00    +0.038 C 
BRANCH   5   7
ATOM      7  N   UNL     1      -1.988  -5.989  -0.012  0.00  0.00    -0.333 N 
ATOM      8  H   UNL     1      -1.211  -6.569  -0.018  0.00  0.00    +0.147 HD
BRANCH   7  12
ATOM      9  C   UNL     1      -1.498  -1.849   0.006  0.00  0.00    +0.121 A 
ATOM     10  C   UNL     1      -0.387  -2.679  -0.003  0.00  0.00    +0.047 A 
ATOM     11  C   UNL     1      -0.548  -4.050  -0.009  0.00  0.00    +0.026 A 
ATOM     12  C   UNL     1      -1.824  -4.599  -0.005  0.00  0.00    +0.028 A 
ATOM     13  C   UNL     1      -2.936  -3.768   0.004  0.00  0.00    +0.026 A 
ATOM     14  C   UNL     1      -2.773  -2.396   0.016  0.00  0.00    +0.047 A 
BRANCH   9  15
ATOM     15  O   UNL     1      -1.339  -0.499   0.012  0.00  0.00    -0.492 OA
BRANCH  15  17
ATOM     16  C   UNL     1      -0.019   1.526   0.010  0.00  0.00    +0.048 C 
ATOM     17  C   UNL     1       0.002  -0.004   0.002  0.00  0.00    +0.225 C 
ENDBRANCH  15  17
ENDBRANCH   9  15
ENDBRANCH   7  12
ENDBRANCH   5   7
ENDBRANCH   1   5
BRANCH   3  18
ATOM     18  N   UNL     1      -4.380  -9.954  -1.283  0.00  0.00    -0.188 NA
ATOM     19  C   UNL     1      -5.468 -10.655  -1.381  0.00  0.00    +0.142 C 
BRANCH  19  20
ATOM     20  C   UNL     1      -5.425 -12.003  -1.976  0.00  0.00    +0.038 A 
ATOM     21  C   UNL     1      -6.595 -12.758  -2.089  0.00  0.00    +0.028 A 
ATOM     22  C   UNL     1      -6.549 -14.019  -2.647  0.00  0.00    +0.020 A 
ATOM     23  C   UNL     1      -5.346 -14.540  -3.095  0.00  0.00    +0.034 A 
ATOM     24  C   UNL     1      -4.181 -13.802  -2.989  0.00  0.00    +0.061 A 
ATOM     25  C   UNL     1      -4.212 -12.531  -2.436  0.00  0.00    +0.139 A 
ATOM     26 BR   UNL     1      -2.546 -14.525  -3.605  0.00  0.00    -0.046 Br
ATOM     27 BR   UNL     1      -8.133 -15.040  -2.799  0.00  0.00    -0.050 Br
BRANCH  25  28
ATOM     28  O   UNL     1      -3.069 -11.804  -2.336  0.00  0.00    -0.505 OA
ATOM     29  H   UNL     1      -2.587 -11.940  -1.509  0.00  0.00    +0.292 HD
ENDBRANCH  25  28
ENDBRANCH  19  20
ENDBRANCH   3  18
TORSDOF 8
