REMARK  Name = ZINC38050492
REMARK  8 active torsions:
REMARK  status: ('A' for Active; 'I' for Inactive)
REMARK    1  A    between atoms: C_1  and  C_2
REMARK    2  A    between atoms: C_2  and  O_3
REMARK    3  A    between atoms: O_3  and  C_4
REMARK    4  A    between atoms: C_4  and  C_6
REMARK    5  A    between atoms: N_11  and  S_12
REMARK    6  A    between atoms: S_12  and  N_15
REMARK    7  A    between atoms: N_15  and  C_16
REMARK    8  A    between atoms: C_22  and  N_24
REMARK                            x       y       z     vdW  Elec       q    Type
REMARK                         _______ _______ _______ _____ _____    ______ ____
ROOT
ATOM      1  S   UNL     1       2.436  -4.697  -1.199  0.00  0.00    +0.098 S 
ATOM      2  O   UNL     1       3.313  -5.815  -1.211  0.00  0.00    -0.141 OA
ATOM      3  O   UNL     1       2.887  -3.379  -0.917  0.00  0.00    -0.141 OA
ENDROOT
BRANCH   1   8
ATOM      4  C   UNL     1       1.270  -3.426  -3.382  0.00  0.00    +0.189 C 
ATOM      5  C   UNL     1       0.692  -3.856  -4.747  0.00  0.00    +0.033 C 
ATOM      6  C   UNL     1       1.360  -5.236  -4.987  0.00  0.00    +0.019 C 
ATOM      7  C   UNL     1       1.419  -5.808  -3.548  0.00  0.00    +0.111 C 
ATOM      8  N   UNL     1       1.718  -4.643  -2.690  0.00  0.00    -0.153 NA
BRANCH   4   9
ATOM      9  C   UNL     1       0.205  -2.736  -2.569  0.00  0.00    +0.326 C 
ATOM     10  O   UNL     1      -0.478  -3.374  -1.803  0.00  0.00    -0.249 OA
BRANCH   9  11
ATOM     11  O   UNL     1       0.014  -1.414  -2.695  0.00  0.00    -0.464 OA
BRANCH  11  13
ATOM     12  C   UNL     1      -1.080   0.676  -2.173  0.00  0.00    +0.048 C 
ATOM     13  C   UNL     1      -1.013  -0.826  -1.894  0.00  0.00    +0.229 C 
ENDBRANCH  11  13
ENDBRANCH   9  11
ENDBRANCH   4   9
ENDBRANCH   1   8
BRANCH   1  14
ATOM     14  N   UNL     1       1.250  -5.037  -0.095  0.00  0.00    -0.178 NA
ATOM     15  H   UNL     1       0.996  -4.373   0.564  0.00  0.00    +0.149 HD
BRANCH  14  16
ATOM     16  C   UNL     1       0.583  -6.341  -0.116  0.00  0.00    +0.063 C 
ATOM     17  C   UNL     1      -0.814  -6.191  -0.722  0.00  0.00    +0.019 C 
ATOM     18  C   UNL     1      -1.633  -5.212   0.122  0.00  0.00    +0.001 C 
ATOM     19  C   UNL     1      -1.752  -5.747   1.551  0.00  0.00    -0.001 C 
ATOM     20  C   UNL     1      -0.355  -5.897   2.157  0.00  0.00    -0.015 C 
ATOM     21  C   UNL     1       0.464  -6.876   1.313  0.00  0.00    -0.056 C 
BRANCH  21  22
ATOM     22  N   UNL     1       1.805  -7.020   1.895  0.00  0.00    +0.381 N 
ATOM     23  H   UNL     1       2.264  -6.122   1.909  0.00  0.00    -0.090 HD
ATOM     24  H   UNL     1       1.726  -7.373   2.837  0.00  0.00    -0.090 HD
ATOM     25  H   UNL     1       2.345  -7.666   1.339  0.00  0.00    -0.090 HD
ENDBRANCH  21  22
ENDBRANCH  14  16
ENDBRANCH   1  14
TORSDOF 7
