REMARK  Name = ZINC62702858
REMARK  7 active torsions:
REMARK  status: ('A' for Active; 'I' for Inactive)
REMARK    1  A    between atoms: C_1  and  C_2
REMARK    2  A    between atoms: C_7  and  C_9
REMARK    3  A    between atoms: C_7  and  N_11
REMARK    4  A    between atoms: C_9  and  O_10
REMARK    5  A    between atoms: N_11  and  C_12
REMARK    6  A    between atoms: C_12  and  C_13
REMARK    7  A    between atoms: C_16  and  O_20
REMARK                            x       y       z     vdW  Elec       q    Type
REMARK                         _______ _______ _______ _____ _____    ______ ____
ROOT
ATOM      1  N   UNL     1       1.474  -2.512   2.369  0.00  0.00    +0.387 N 
ATOM      2  H   UNL     1       1.559  -3.515   2.306  0.00  0.00    -0.085 HD
ATOM      3  H   UNL     1       2.393  -2.096   2.386  0.00  0.00    -0.085 HD
ENDROOT
BRANCH   1   9
ATOM      4  C   UNL     1      -0.096   1.572   0.059  0.00  0.00    +0.007 C 
ATOM      5  C   UNL     1      -0.069   0.042   0.025  0.00  0.00    -0.015 C 
ATOM      6  C   UNL     1      -1.501  -0.494   0.063  0.00  0.00    +0.003 C 
ATOM      7  C   UNL     1      -1.474  -2.024   0.030  0.00  0.00    -0.001 C 
ATOM      8  C   UNL     1      -0.701  -2.547   1.243  0.00  0.00    -0.010 C 
ATOM      9  C   UNL     1       0.732  -2.010   1.205  0.00  0.00    -0.044 C 
ATOM     10  C   UNL     1       0.704  -0.480   1.238  0.00  0.00    -0.007 C 
BRANCH   9  11
ATOM     11  C   UNL     1       1.418  -2.480  -0.079  0.00  0.00    +0.143 C 
BRANCH  11  12
ATOM     12  O   UNL     1       1.538  -3.904  -0.062  0.00  0.00    -0.396 OA
ATOM     13  H   UNL     1       1.966  -4.272  -0.847  0.00  0.00    +0.209 HD
ENDBRANCH  11  12
ENDBRANCH   9  11
ENDBRANCH   1   9
BRANCH   1  14
ATOM     14  C   UNL     1       0.753  -2.158   3.599  0.00  0.00    -0.046 C 
BRANCH  14  15
ATOM     15  C   UNL     1       1.576  -2.557   4.796  0.00  0.00    -0.063 A 
ATOM     16  C   UNL     1       1.432  -3.819   5.343  0.00  0.00    +0.005 A 
ATOM     17  C   UNL     1       2.185  -4.187   6.441  0.00  0.00    +0.047 A 
ATOM     18  C   UNL     1       3.087  -3.291   6.995  0.00  0.00    +0.131 A 
ATOM     19  C   UNL     1       3.230  -2.025   6.444  0.00  0.00    +0.059 A 
ATOM     20  C   UNL     1       2.478  -1.663   5.343  0.00  0.00    +0.020 A 
ATOM     21 BR   UNL     1       4.458  -0.799   7.196  0.00  0.00    -0.047 Br
BRANCH  18  22
ATOM     22  O   UNL     1       3.828  -3.651   8.076  0.00  0.00    -0.506 OA
ATOM     23  H   UNL     1       4.675  -4.061   7.853  0.00  0.00    +0.292 HD
ENDBRANCH  18  22
ENDBRANCH  14  15
ENDBRANCH   1  14
TORSDOF 6
