REMARK  Name = ZINC28883022
REMARK  7 active torsions:
REMARK  status: ('A' for Active; 'I' for Inactive)
REMARK    1  A    between atoms: C_3  and  N_10
REMARK    2  A    between atoms: C_6  and  C_7
REMARK    3  A    between atoms: C_11  and  C_13
REMARK    4  A    between atoms: C_13  and  C_14
REMARK    5  A    between atoms: C_14  and  N_15
REMARK    6  A    between atoms: N_18  and  C_21
REMARK    7  A    between atoms: C_21  and  C_22
REMARK                            x       y       z     vdW  Elec       q    Type
REMARK                         _______ _______ _______ _____ _____    ______ ____
ROOT
ATOM      1  C   UNL     1       5.412  -3.410  -5.581  0.00  0.00    +0.077 C 
ENDROOT
BRANCH   1   3
ATOM      2  N   UNL     1       5.335  -4.543  -7.778  0.00  0.00    -0.286 N 
ATOM      3  C   UNL     1       5.870  -3.576  -7.007  0.00  0.00    +0.215 C 
ATOM      4  O   UNL     1       6.720  -2.840  -7.460  0.00  0.00    -0.276 OA
ATOM      5  H   UNL     1       4.629  -5.266  -7.343  0.00  0.00    +0.155 HD
BRANCH   2   8
ATOM      6  C   UNL     1       6.087  -5.958 -11.080  0.00  0.00    +0.015 A 
ATOM      7  C   UNL     1       5.750  -5.871  -9.748  0.00  0.00    +0.024 A 
ATOM      8  C   UNL     1       5.677  -4.628  -9.127  0.00  0.00    +0.033 A 
ATOM      9  C   UNL     1       5.940  -3.469  -9.851  0.00  0.00    +0.024 A 
ATOM     10  C   UNL     1       6.283  -3.550 -11.182  0.00  0.00    +0.015 A 
ATOM     11  C   UNL     1       6.356  -4.797 -11.808  0.00  0.00    +0.037 A 
BRANCH  11  12
ATOM     12  C   UNL     1       6.718  -4.886 -13.236  0.00  0.00    +0.242 C 
ATOM     13  O   UNL     1       6.782  -5.972 -13.780  0.00  0.00    -0.270 OA
ATOM     14  N   UNL     1       6.978  -3.765 -13.938  0.00  0.00    -0.325 N 
ATOM     15  H   UNL     1       7.248  -3.832 -15.002  0.00  0.00    +0.145 HD
ATOM     16  H   UNL     1       6.920  -2.783 -13.445  0.00  0.00    +0.145 HD
ENDBRANCH  11  12
ENDBRANCH   2   8
ENDBRANCH   1   3
BRANCH   1  17
ATOM     17  C   UNL     1       6.171  -2.250  -4.933  0.00  0.00    -0.069 C 
BRANCH  17  18
ATOM     18  N   UNL     1       5.724  -2.088  -3.543  0.00  0.00    +0.382 N 
ATOM     19  C   UNL     1       6.590  -1.148  -2.818  0.00  0.00    -0.063 C 
ATOM     20  C   UNL     1       6.141  -1.068  -1.357  0.00  0.00    +0.066 C 
ATOM     21  N   UNL     1       4.737  -0.637  -1.302  0.00  0.00    -0.301 NA
ATOM     22  C   UNL     1       3.871  -1.577  -2.027  0.00  0.00    +0.066 C 
ATOM     23  C   UNL     1       4.321  -1.657  -3.488  0.00  0.00    -0.063 C 
ATOM     24  H   UNL     1       5.798  -3.068  -3.049  0.00  0.00    -0.082 HD
BRANCH  21  25
ATOM     25  C   UNL     1       4.290  -0.475   0.088  0.00  0.00    +0.126 C 
BRANCH  25  26
ATOM     26  C   UNL     1       2.941   0.197   0.107  0.00  0.00    +0.005 A 
ATOM     27  C   UNL     1       1.708  -0.364   0.077  0.00  0.00    +0.014 A 
ATOM     28  C   UNL     1       0.597   0.458   0.103  0.00  0.00    +0.028 A 
ATOM     29  C   UNL     1       0.774   1.801   0.158  0.00  0.00    +0.078 A 
ATOM     30  S   UNL     1       2.554   1.938   0.175  0.00  0.00    -0.080 S 
ATOM     31 CL   UNL     1      -0.420   3.061   0.195  0.00  0.00    -0.076 Cl
ENDBRANCH  25  26
ENDBRANCH  21  25
ENDBRANCH  17  18
ENDBRANCH   1  17
TORSDOF 7
