REMARK  Name = ZINC23361972
REMARK  10 active torsions:
REMARK  status: ('A' for Active; 'I' for Inactive)
REMARK    1  A    between atoms: C_1  and  C_2
REMARK    2  A    between atoms: C_3  and  C_10
REMARK    3  A    between atoms: C_4  and  C_8
REMARK    4  A    between atoms: C_4  and  C_9
REMARK    5  A    between atoms: C_10  and  C_11
REMARK    6  A    between atoms: C_11  and  N_12
REMARK    7  A    between atoms: N_12  and  C_13
REMARK    8  A    between atoms: C_16  and  C_29
REMARK    9  A    between atoms: N_18  and  C_20
REMARK   10  A    between atoms: N_31  and  C_32
REMARK                            x       y       z     vdW  Elec       q    Type
REMARK                         _______ _______ _______ _____ _____    ______ ____
ROOT
ATOM      1  C   UNL     1      -4.275   1.424  -2.738  0.00  0.00    -0.056 C 
ATOM      2  C   UNL     1      -5.721   1.984  -2.770  0.00  0.00    +0.014 C 
ATOM      3  C   UNL     1      -5.807   2.548  -4.210  0.00  0.00    +0.142 C 
ATOM      4  N   UNL     1      -4.466   3.112  -4.475  0.00  0.00    -0.289 NA
ATOM      5  C   UNL     1      -3.488   2.432  -3.601  0.00  0.00    +0.070 C 
ENDROOT
BRANCH   4   6
ATOM      6  C   UNL     1      -4.099   2.958  -5.889  0.00  0.00    +0.066 C 
ATOM      7  C   UNL     1      -3.904   1.469  -6.246  0.00  0.00    +0.054 C 
ATOM      8  C   UNL     1      -2.774   1.448  -7.253  0.00  0.00    -0.043 A 
ATOM      9  C   UNL     1      -2.382   0.460  -8.141  0.00  0.00    +0.004 A 
ATOM     10  C   UNL     1      -1.303   0.666  -8.978  0.00  0.00    +0.000 A 
ATOM     11  C   UNL     1      -0.612   1.863  -8.930  0.00  0.00    +0.000 A 
ATOM     12  C   UNL     1      -1.001   2.849  -8.045  0.00  0.00    +0.004 A 
ATOM     13  C   UNL     1      -2.083   2.643  -7.204  0.00  0.00    -0.043 A 
ATOM     14  C   UNL     1      -2.700   3.550  -6.162  0.00  0.00    +0.054 C 
ENDBRANCH   4   6
BRANCH   3  15
ATOM     15  C   UNL     1      -6.857   3.626  -4.291  0.00  0.00    +0.230 C 
ATOM     16  O   UNL     1      -6.543   4.756  -4.600  0.00  0.00    -0.274 OA
ATOM     17  N   UNL     1      -8.144   3.334  -4.019  0.00  0.00    -0.317 N 
ATOM     18  C   UNL     1      -9.165   4.382  -4.096  0.00  0.00    +0.128 C 
ATOM     19  H   UNL     1      -8.395   2.431  -3.771  0.00  0.00    +0.148 HD
ENDBRANCH   3  15
BRANCH   1  20
ATOM     20  N   UNL     1      -3.757   1.401  -1.364  0.00  0.00    +0.382 N 
ATOM     21  H   UNL     1      -4.371   0.849  -0.782  0.00  0.00    -0.085 HD
ATOM     22  H   UNL     1      -3.712   2.343  -1.006  0.00  0.00    -0.085 HD
BRANCH  20  23
ATOM     23  C   UNL     1      -2.413   0.809  -1.357  0.00  0.00    -0.078 C 
BRANCH  23  24
ATOM     24  C   UNL     1      -1.874   0.784   0.075  0.00  0.00    +0.012 C 
BRANCH  24  27
ATOM     25  C   UNL     1       0.252   2.459  -0.024  0.00  0.00    +0.039 C 
ATOM     26  C   UNL     1       0.521   0.978   0.029  0.00  0.00    -0.073 C 
ATOM     27  C   UNL     1      -0.494   0.177   0.082  0.00  0.00    -0.067 C 
ATOM     28  C   UNL     1      -0.384  -1.318   0.150  0.00  0.00    -0.014 C 
ATOM     29  C   UNL     1       1.017  -1.763  -0.275  0.00  0.00    +0.011 C 
ATOM     30  C   UNL     1       2.046  -0.928   0.498  0.00  0.00    +0.005 C 
ATOM     31  C   UNL     1       1.951   0.522   0.012  0.00  0.00    +0.030 C 
ATOM     32  C   UNL     1      -1.421  -1.946  -0.784  0.00  0.00    +0.015 C 
ATOM     33  C   UNL     1      -0.651  -1.781   1.583  0.00  0.00    +0.015 C 
ENDBRANCH  24  27
ENDBRANCH  23  24
ENDBRANCH  20  23
ENDBRANCH   1  20
TORSDOF 6
