REMARK  Name = ZINC17162931
REMARK  8 active torsions:
REMARK  status: ('A' for Active; 'I' for Inactive)
REMARK    1  A    between atoms: C_4  and  C_7
REMARK    2  A    between atoms: C_7  and  C_8
REMARK    3  A    between atoms: C_10  and  C_16
REMARK    4  A    between atoms: C_16  and  C_31
REMARK    5  A    between atoms: N_17  and  N_18
REMARK    6  A    between atoms: N_18  and  C_19
REMARK    7  A    between atoms: C_22  and  N_28
REMARK    8  A    between atoms: C_24  and  N_25
REMARK                            x       y       z     vdW  Elec       q    Type
REMARK                         _______ _______ _______ _____ _____    ______ ____
ROOT
ATOM      1  C   UNL     1      -4.724  -0.135   0.471  0.00  0.00    +0.073 C 
ATOM      2  N   UNL     1      -3.608  -0.735   0.755  0.00  0.00    -0.186 NA
ENDROOT
BRANCH   1   4
ATOM      3  C   UNL     1      -5.690  -2.451   0.399  0.00  0.00    +0.114 C 
ATOM      4  C   UNL     1      -5.977  -0.941   0.244  0.00  0.00    +0.091 C 
ATOM      5  C   UNL     1      -7.011  -0.666   1.356  0.00  0.00    +0.242 C 
ATOM      6  O   UNL     1      -7.538  -1.979   1.717  0.00  0.00    -0.464 OA
ATOM      7  C   UNL     1      -6.557  -2.887   1.562  0.00  0.00    +0.311 C 
ATOM      8  O   UNL     1      -6.396  -3.878   2.235  0.00  0.00    -0.251 OA
BRANCH   3   9
ATOM      9  C   UNL     1      -6.086  -3.203  -0.873  0.00  0.00    +0.050 C 
BRANCH   9  13
ATOM     10  C   UNL     1      -4.952  -7.306  -0.515  0.00  0.00    +0.000 A 
ATOM     11  C   UNL     1      -6.202  -6.895  -0.091  0.00  0.00    +0.000 A 
ATOM     12  C   UNL     1      -6.569  -5.567  -0.207  0.00  0.00    +0.003 A 
ATOM     13  C   UNL     1      -5.686  -4.650  -0.747  0.00  0.00    -0.047 A 
ATOM     14  C   UNL     1      -4.438  -5.062  -1.175  0.00  0.00    +0.003 A 
ATOM     15  C   UNL     1      -4.069  -6.389  -1.055  0.00  0.00    +0.000 A 
ENDBRANCH   9  13
ENDBRANCH   3   9
ENDBRANCH   1   4
BRANCH   1  16
ATOM     16  C   UNL     1      -4.765   1.335   0.370  0.00  0.00    -0.002 A 
ATOM     17  C   UNL     1      -4.046   2.121   1.274  0.00  0.00    +0.010 A 
ATOM     18  C   UNL     1      -4.084   3.496   1.170  0.00  0.00    +0.001 A 
ATOM     19  C   UNL     1      -4.842   4.098   0.181  0.00  0.00    +0.000 A 
ATOM     20  C   UNL     1      -5.561   3.326  -0.715  0.00  0.00    +0.001 A 
ATOM     21  C   UNL     1      -5.527   1.950  -0.626  0.00  0.00    +0.010 A 
ENDBRANCH   1  16
BRANCH   2  22
ATOM     22  N   UNL     1      -2.411  -0.008   0.791  0.00  0.00    -0.235 N 
ATOM     23  H   UNL     1      -2.418   0.946   0.618  0.00  0.00    +0.174 HD
BRANCH  22  24
ATOM     24  C   UNL     1      -1.209  -0.657   1.077  0.00  0.00    +0.079 A 
ATOM     25  C   UNL     1      -1.178  -2.041   1.203  0.00  0.00    +0.029 A 
ATOM     26  C   UNL     1       0.013  -2.680   1.486  0.00  0.00    +0.035 A 
ATOM     27  C   UNL     1       1.174  -1.944   1.643  0.00  0.00    +0.128 A 
ATOM     28  C   UNL     1       1.147  -0.568   1.513  0.00  0.00    +0.067 A 
ATOM     29  C   UNL     1      -0.041   0.079   1.236  0.00  0.00    +0.151 A 
BRANCH  29  30
ATOM     30  N   UNL     1      -0.069   1.552   1.101  0.00  0.00    +0.058 N 
ATOM     31  O   UNL     1       0.927   2.206   1.351  0.00  0.00    -0.126 OA
ATOM     32  O   UNL     1      -1.088   2.111   0.735  0.00  0.00    -0.126 OA
ENDBRANCH  29  30
BRANCH  27  33
ATOM     33  N   UNL     1       2.449  -2.633   1.946  0.00  0.00    +0.056 N 
ATOM     34  O   UNL     1       2.475  -3.845   2.056  0.00  0.00    -0.126 OA
ATOM     35  O   UNL     1       3.473  -1.986   2.084  0.00  0.00    -0.126 OA
ENDBRANCH  27  33
ENDBRANCH  22  24
ENDBRANCH   2  22
TORSDOF 8
