REMARK  Name = ZINC04278493
REMARK  8 active torsions:
REMARK  status: ('A' for Active; 'I' for Inactive)
REMARK    1  A    between atoms: C_1  and  C_2
REMARK    2  A    between atoms: C_3  and  C_28
REMARK    3  A    between atoms: C_11  and  C_13
REMARK    4  A    between atoms: C_13  and  C_15
REMARK    5  A    between atoms: C_13  and  S_16
REMARK    6  A    between atoms: S_16  and  C_17
REMARK    7  A    between atoms: C_20  and  C_23
REMARK    8  A    between atoms: N_21  and  N_22
REMARK                            x       y       z     vdW  Elec       q    Type
REMARK                         _______ _______ _______ _____ _____    ______ ____
ROOT
ATOM      1  C   UNL     1       2.728   7.910  -0.045  0.00  0.00    +0.117 C 
ATOM      2  C   UNL     1       3.123   7.689   1.417  0.00  0.00    +0.027 C 
ENDROOT
BRANCH   1  13
ATOM      3  C   UNL     1       1.141  14.348  -1.039  0.00  0.00    +0.045 C 
ATOM      4  C   UNL     1       2.387  13.500  -1.072  0.00  0.00    -0.026 A 
ATOM      5  C   UNL     1       3.575  14.050  -1.367  0.00  0.00    -0.008 A 
ATOM      6  S   UNL     1       4.702  12.671  -1.279  0.00  0.00    -0.073 S 
ATOM      7  C   UNL     1       3.544  11.398  -0.849  0.00  0.00    +0.116 A 
ATOM      8  C   UNL     1       2.316  12.079  -0.786  0.00  0.00    +0.075 A 
ATOM      9  C   UNL     1       1.178  11.275  -0.451  0.00  0.00    +0.260 A 
ATOM     10  O   UNL     1       0.069  11.775  -0.371  0.00  0.00    -0.267 OA
ATOM     11  N   UNL     1       1.353   9.960  -0.224  0.00  0.00    -0.309 N 
ATOM     12  H   UNL     1       0.563   9.394   0.011  0.00  0.00    +0.170 HD
ATOM     13  C   UNL     1       2.581   9.387  -0.308  0.00  0.00    +0.124 A 
ATOM     14  N   UNL     1       3.638  10.093  -0.607  0.00  0.00    -0.225 NA
ATOM     15  C   UNL     1       3.883  15.489  -1.694  0.00  0.00    +0.052 C 
ENDBRANCH   1  13
BRANCH   1  16
ATOM     16  S   UNL     1       1.155   7.079  -0.377  0.00  0.00    -0.074 S 
BRANCH  16  17
ATOM     17  C   UNL     1       1.641   5.401  -0.145  0.00  0.00    +0.209 A 
ATOM     18  N   UNL     1       2.841   4.975   0.180  0.00  0.00    -0.120 NA
ATOM     19  N   UNL     1       2.846   3.694   0.274  0.00  0.00    -0.123 NA
ATOM     20  C   UNL     1       1.649   3.220   0.004  0.00  0.00    +0.217 A 
ATOM     21  N   UNL     1       0.840   4.301  -0.269  0.00  0.00    -0.221 N 
BRANCH  20  22
ATOM     22  C   UNL     1       1.249   1.804  -0.000  0.00  0.00    +0.173 A 
ATOM     23  C   UNL     1       2.092   0.734  -0.014  0.00  0.00    +0.053 A 
ATOM     24  C   UNL     1       1.284  -0.419  -0.013  0.00  0.00    +0.042 A 
ATOM     25  C   UNL     1       0.002  -0.004   0.002  0.00  0.00    +0.196 A 
ATOM     26  O   UNL     1      -0.016   1.339   0.009  0.00  0.00    -0.460 OA
ENDBRANCH  20  22
BRANCH  21  27
ATOM     27  N   UNL     1      -0.487   4.278  -0.595  0.00  0.00    -0.294 N 
ATOM     28  H   UNL     1      -1.063   4.333   0.231  0.00  0.00    +0.163 HD
ATOM     29  H   UNL     1      -0.712   5.017  -1.244  0.00  0.00    +0.163 HD
ENDBRANCH  21  27
ENDBRANCH  16  17
ENDBRANCH   1  16
TORSDOF 5
