REMARK  Name = ZINC39413471
REMARK  8 active torsions:
REMARK  status: ('A' for Active; 'I' for Inactive)
REMARK    1  A    between atoms: C_7  and  C_14
REMARK    2  A    between atoms: N_9  and  C_10
REMARK    3  A    between atoms: C_10  and  C_11
REMARK    4  A    between atoms: C_14  and  N_15
REMARK    5  A    between atoms: N_18  and  C_25
REMARK    6  A    between atoms: C_19  and  C_22
REMARK    7  A    between atoms: C_22  and  C_23
REMARK    8  A    between atoms: C_23  and  O_24
REMARK                            x       y       z     vdW  Elec       q    Type
REMARK                         _______ _______ _______ _____ _____    ______ ____
ROOT
ATOM      1  C   UNL     1       0.439  -2.939   0.002  0.00  0.00    +0.121 C 
ENDROOT
BRANCH   1   8
ATOM      2  C   UNL     1      -0.826   1.575  -0.039  0.00  0.00    +0.001 A 
ATOM      3  C   UNL     1       0.259   2.441  -0.002  0.00  0.00    +0.002 A 
ATOM      4  C   UNL     1       1.546   1.953   0.041  0.00  0.00    +0.026 A 
ATOM      5  C   UNL     1       1.765   0.579   0.048  0.00  0.00    +0.050 A 
ATOM      6  C   UNL     1       0.662  -0.294   0.010  0.00  0.00    +0.004 A 
ATOM      7  C   UNL     1      -0.634   0.222  -0.033  0.00  0.00    +0.010 A 
ATOM      8  C   UNL     1       1.218  -1.649   0.028  0.00  0.00    -0.008 A 
ATOM      9  C   UNL     1       2.554  -1.525   0.073  0.00  0.00    +0.092 A 
ATOM     10  N   UNL     1       2.899  -0.201   0.085  0.00  0.00    -0.338 N 
BRANCH  10  11
ATOM     11  C   UNL     1       4.271   0.311   0.132  0.00  0.00    +0.217 C 
BRANCH  11  12
ATOM     12  C   UNL     1       4.650   0.602   1.561  0.00  0.00    +0.230 C 
ATOM     13  O   UNL     1       3.853   0.401   2.453  0.00  0.00    -0.274 OA
ATOM     14  N   UNL     1       5.875   1.085   1.848  0.00  0.00    -0.328 N 
ATOM     15  H   UNL     1       6.513   1.245   1.135  0.00  0.00    +0.145 HD
ATOM     16  H   UNL     1       6.120   1.272   2.768  0.00  0.00    +0.145 HD
ENDBRANCH  11  12
ENDBRANCH  10  11
ENDBRANCH   1   8
BRANCH   1  17
ATOM     17  N   UNL     1       0.025  -3.232  -1.377  0.00  0.00    -0.301 NA
ATOM     18  C   UNL     1      -0.941  -2.236  -1.861  0.00  0.00    +0.066 C 
ATOM     19  C   UNL     1      -1.300  -2.543  -3.316  0.00  0.00    -0.062 C 
ATOM     20  N   UNL     1      -1.876  -3.891  -3.405  0.00  0.00    +0.385 N 
ATOM     21  C   UNL     1      -0.891  -4.877  -2.941  0.00  0.00    -0.052 C 
ATOM     22  C   UNL     1      -0.529  -4.590  -1.483  0.00  0.00    +0.069 C 
ATOM     23  H   UNL     1      -2.701  -3.943  -2.826  0.00  0.00    -0.081 HD
BRANCH  20  24
ATOM     24  C   UNL     1      -2.238  -4.178  -4.799  0.00  0.00    -0.068 C 
ATOM     25  C   UNL     1      -0.987  -4.089  -5.698  0.00  0.00    -0.015 C 
ATOM     26  C   UNL     1      -1.510  -3.461  -7.014  0.00  0.00    -0.002 C 
ATOM     27  C   UNL     1      -2.543  -2.423  -6.511  0.00  0.00    -0.002 C 
ATOM     28  C   UNL     1      -3.227  -3.119  -5.316  0.00  0.00    -0.015 C 
ENDBRANCH  20  24
BRANCH  21  29
ATOM     29  C   UNL     1      -1.486  -6.283  -3.051  0.00  0.00    +0.014 C 
BRANCH  29  30
ATOM     30  C   UNL     1      -0.431  -7.316  -2.652  0.00  0.00    +0.154 C 
BRANCH  30  31
ATOM     31  O   UNL     1      -0.948  -8.631  -2.863  0.00  0.00    -0.395 OA
ATOM     32  H   UNL     1      -0.331  -9.338  -2.631  0.00  0.00    +0.209 HD
ENDBRANCH  30  31
ENDBRANCH  29  30
ENDBRANCH  21  29
ENDBRANCH   1  17
TORSDOF 8
