REMARK  Name = ZINC08770917
REMARK  5 active torsions:
REMARK  status: ('A' for Active; 'I' for Inactive)
REMARK    1  A    between atoms: C_3  and  C_28
REMARK    2  A    between atoms: C_5  and  N_7
REMARK    3  A    between atoms: C_10  and  C_15
REMARK    4  A    between atoms: C_15  and  N_53
REMARK    5  A    between atoms: N_18  and  C_21
REMARK                            x       y       z     vdW  Elec       q    Type
REMARK                         _______ _______ _______ _____ _____    ______ ____
ROOT
ATOM      1  N   UNL     1      -0.069   5.241   0.029  0.00  0.00    -0.283 N 
ATOM      2  C   UNL     1       1.114   5.947   0.126  0.00  0.00    +0.224 A 
ATOM      3  N   UNL     1       1.091   7.274   0.233  0.00  0.00    -0.201 NA
ATOM      4  C   UNL     1       2.223   7.950   0.326  0.00  0.00    +0.120 A 
ATOM      5  N   UNL     1       3.381   7.313   0.312  0.00  0.00    -0.202 NA
ATOM      6  C   UNL     1       3.412   5.987   0.205  0.00  0.00    +0.217 A 
ATOM      7  N   UNL     1       2.276   5.303   0.117  0.00  0.00    -0.181 NA
ATOM      8  N   UNL     1       4.621   5.323   0.191  0.00  0.00    -0.327 N 
ATOM      9  H   UNL     1      -0.918   5.701   0.121  0.00  0.00    +0.155 HD
ATOM     10  H   UNL     1       5.450   5.822   0.259  0.00  0.00    +0.145 HD
ATOM     11  H   UNL     1       4.643   4.356   0.113  0.00  0.00    +0.145 HD
ENDROOT
BRANCH   1  16
ATOM     12  C   UNL     1       0.936   1.953  -1.274  0.00  0.00    +0.002 A 
ATOM     13  C   UNL     1       0.008   1.133  -0.657  0.00  0.00    +0.012 A 
ATOM     14  C   UNL     1      -0.948   1.674   0.182  0.00  0.00    +0.057 A 
ATOM     15  C   UNL     1      -0.973   3.035   0.416  0.00  0.00    +0.035 A 
ATOM     16  C   UNL     1      -0.043   3.862  -0.202  0.00  0.00    +0.034 A 
ATOM     17  C   UNL     1       0.913   3.315  -1.048  0.00  0.00    +0.023 A 
BRANCH  14  18
ATOM     18  C   UNL     1      -1.961   0.778   0.847  0.00  0.00    +0.417 C 
ATOM     19  F   UNL     1      -1.732  -0.548   0.463  0.00  0.00    -0.166 F 
ATOM     20  F   UNL     1      -1.841   0.889   2.236  0.00  0.00    -0.166 F 
ATOM     21  F   UNL     1      -3.249   1.160   0.457  0.00  0.00    -0.166 F 
ENDBRANCH  14  18
ENDBRANCH   1  16
BRANCH   4  22
ATOM     22  C   UNL     1       2.192   9.452   0.446  0.00  0.00    -0.001 C 
BRANCH  22  28
ATOM     23  C   UNL     1       0.867   9.406   2.472  0.00  0.00    -0.059 C 
ATOM     24  C   UNL     1       0.881   9.744   3.965  0.00  0.00    +0.086 C 
ATOM     25  N   UNL     1       1.088  11.189   4.135  0.00  0.00    -0.333 N 
ATOM     26  C   UNL     1       2.358  11.611   3.528  0.00  0.00    +0.086 C 
ATOM     27  C   UNL     1       2.344  11.273   2.036  0.00  0.00    -0.059 C 
ATOM     28  N   UNL     1       2.157   9.815   1.879  0.00  0.00    +0.386 N 
ATOM     29  H   UNL     1       2.918   9.327   2.366  0.00  0.00    -0.081 HD
BRANCH  25  30
ATOM     30  C   UNL     1       1.035  11.547   5.486  0.00  0.00    +0.030 A 
ATOM     31  C   UNL     1       2.106  12.208   6.073  0.00  0.00    +0.026 A 
ATOM     32  C   UNL     1       2.050  12.565   7.406  0.00  0.00    +0.040 A 
ATOM     33  C   UNL     1       0.930  12.255   8.160  0.00  0.00    +0.124 A 
ATOM     34  C   UNL     1      -0.137  11.592   7.578  0.00  0.00    +0.040 A 
ATOM     35  C   UNL     1      -0.087  11.237   6.244  0.00  0.00    +0.026 A 
ATOM     36  F   UNL     1       0.879  12.601   9.465  0.00  0.00    -0.205 F 
ENDBRANCH  25  30
ENDBRANCH  22  28
ENDBRANCH   4  22
TORSDOF 5
