REMARK  Name = ZINC54649941
REMARK  12 active torsions:
REMARK  status: ('A' for Active; 'I' for Inactive)
REMARK    1  A    between atoms: C_1  and  C_2
REMARK    2  A    between atoms: C_2  and  C_3
REMARK    3  A    between atoms: C_3  and  C_4
REMARK    4  A    between atoms: C_3  and  C_6
REMARK    5  A    between atoms: C_3  and  N_22
REMARK    6  A    between atoms: C_4  and  C_5
REMARK    7  A    between atoms: C_6  and  N_7
REMARK    8  A    between atoms: N_10  and  C_11
REMARK    9  A    between atoms: C_11  and  C_12
REMARK   10  A    between atoms: N_14  and  C_15
REMARK   11  A    between atoms: N_22  and  C_23
REMARK   12  A    between atoms: N_22  and  C_24
REMARK                            x       y       z     vdW  Elec       q    Type
REMARK                         _______ _______ _______ _____ _____    ______ ____
ROOT
ATOM      1  N   UNL     1       2.256  -1.236  -0.454  0.00  0.00    -0.301 N 
ATOM      2  C   UNL     1       3.363  -0.591  -0.036  0.00  0.00    +0.300 C 
ATOM      3  O   UNL     1       3.647   0.495  -0.504  0.00  0.00    -0.253 OA
ATOM      4  N   UNL     1       4.154  -1.148   0.901  0.00  0.00    -0.291 N 
ATOM      5  H   UNL     1       2.029  -2.102  -0.081  0.00  0.00    +0.150 HD
ATOM      6  H   UNL     1       3.927  -2.014   1.275  0.00  0.00    +0.151 HD
ENDROOT
BRANCH   1   7
ATOM      7  C   UNL     1       1.395  -0.629  -1.473  0.00  0.00    +0.094 C 
BRANCH   7   8
ATOM      8  C   UNL     1       0.296  -1.618  -1.866  0.00  0.00    -0.051 C 
BRANCH   8   9
ATOM      9  N   UNL     1       0.896  -2.772  -2.548  0.00  0.00    +0.381 N 
ATOM     10  C   UNL     1       1.764  -3.497  -1.611  0.00  0.00    -0.096 C 
ATOM     11  C   UNL     1      -0.168  -3.668  -3.022  0.00  0.00    -0.096 C 
ATOM     12  H   UNL     1       1.442  -2.452  -3.334  0.00  0.00    -0.082 HD
ENDBRANCH   8   9
BRANCH   8  14
ATOM     13  C   UNL     1      -1.062  -0.889   0.101  0.00  0.00    +0.002 C 
ATOM     14  C   UNL     1      -0.437  -2.092  -0.610  0.00  0.00    -0.014 C 
ENDBRANCH   8  14
BRANCH   8  15
ATOM     15  C   UNL     1      -0.697  -0.930  -2.806  0.00  0.00    -0.014 C 
ATOM     16  C   UNL     1       0.028  -0.491  -4.080  0.00  0.00    +0.002 C 
ENDBRANCH   8  15
ENDBRANCH   7   8
ENDBRANCH   1   7
BRANCH   4  17
ATOM     17  C   UNL     1       5.357  -0.447   1.356  0.00  0.00    +0.202 C 
BRANCH  17  18
ATOM     18  C   UNL     1       6.060  -1.278   2.398  0.00  0.00    +0.234 C 
ATOM     19  O   UNL     1       5.600  -2.351   2.729  0.00  0.00    -0.274 OA
ATOM     20  N   UNL     1       7.198  -0.830   2.963  0.00  0.00    -0.284 N 
ATOM     21  H   UNL     1       7.524   0.060   2.756  0.00  0.00    +0.155 HD
BRANCH  20  22
ATOM     22  C   UNL     1       7.910  -1.648   3.848  0.00  0.00    +0.034 A 
ATOM     23  C   UNL     1       8.584  -1.087   4.925  0.00  0.00    +0.025 A 
ATOM     24  C   UNL     1       9.285  -1.897   5.797  0.00  0.00    +0.022 A 
ATOM     25  C   UNL     1       9.317  -3.266   5.598  0.00  0.00    +0.041 A 
ATOM     26  C   UNL     1       8.646  -3.827   4.526  0.00  0.00    +0.022 A 
ATOM     27  C   UNL     1       7.939  -3.023   3.655  0.00  0.00    +0.025 A 
ATOM     28 CL   UNL     1      10.200  -4.280   6.696  0.00  0.00    -0.084 Cl
ENDBRANCH  20  22
ENDBRANCH  17  18
ENDBRANCH   4  17
TORSDOF 8
