REMARK  Name = ZINC39328018
REMARK  13 active torsions:
REMARK  status: ('A' for Active; 'I' for Inactive)
REMARK    1  A    between atoms: C_1  and  C_2
REMARK    2  A    between atoms: C_2  and  C_3
REMARK    3  A    between atoms: C_2  and  C_4
REMARK    4  A    between atoms: C_7  and  C_10
REMARK    5  A    between atoms: C_12  and  C_38
REMARK    6  A    between atoms: C_13  and  N_37
REMARK    7  A    between atoms: C_15  and  C_21
REMARK    8  A    between atoms: C_16  and  C_17
REMARK    9  A    between atoms: C_17  and  O_19
REMARK   10  A    between atoms: O_19  and  C_20
REMARK   11  A    between atoms: C_21  and  S_22
REMARK   12  A    between atoms: S_22  and  C_23
REMARK   13  A    between atoms: C_24  and  C_35
REMARK                            x       y       z     vdW  Elec       q    Type
REMARK                         _______ _______ _______ _____ _____    ______ ____
ROOT
ATOM      1  C   UNL     1      -5.344  -1.951  -0.017  0.00  0.00    +0.105 C 
ATOM      2  C   UNL     1      -5.221  -3.450   0.019  0.00  0.00    +0.098 C 
ATOM      3  C   UNL     1      -5.577  -4.202  -1.051  0.00  0.00    +0.198 C 
ATOM      4  O   UNL     1      -6.050  -3.639  -2.179  0.00  0.00    -0.444 OA
ATOM      5  C   UNL     1      -6.528  -2.385  -2.151  0.00  0.00    +0.128 C 
ATOM      6  C   UNL     1      -6.232  -1.538  -1.159  0.00  0.00    +0.088 C 
ENDROOT
BRANCH   1  10
ATOM      7  C   UNL     1      -1.471  -0.225  -0.535  0.00  0.00    -0.045 A 
ATOM      8  C   UNL     1      -2.217   0.076   0.589  0.00  0.00    +0.004 A 
ATOM      9  C   UNL     1      -3.471  -0.483   0.757  0.00  0.00    +0.005 A 
ATOM     10  C   UNL     1      -3.978  -1.341  -0.201  0.00  0.00    -0.034 A 
ATOM     11  C   UNL     1      -3.233  -1.641  -1.325  0.00  0.00    +0.005 A 
ATOM     12  C   UNL     1      -1.981  -1.079  -1.495  0.00  0.00    +0.004 A 
BRANCH   7  14
ATOM     13  C   UNL     1      -0.226   1.909  -0.745  0.00  0.00    +0.012 C 
ATOM     14  C   UNL     1      -0.105   0.384  -0.718  0.00  0.00    +0.013 C 
ATOM     15  C   UNL     1       0.800  -0.036   0.443  0.00  0.00    +0.012 C 
ENDBRANCH   7  14
ENDBRANCH   1  10
BRANCH   3  16
ATOM     16  N   UNL     1      -5.451  -5.567  -0.984  0.00  0.00    -0.328 N 
ATOM     17  H   UNL     1      -5.111  -5.983  -0.176  0.00  0.00    +0.145 HD
ATOM     18  H   UNL     1      -5.702  -6.115  -1.744  0.00  0.00    +0.145 HD
ENDBRANCH   3  16
BRANCH   6  19
ATOM     19  C   UNL     1      -6.767  -0.227  -1.186  0.00  0.00    +0.339 C 
ATOM     20  O   UNL     1      -7.732   0.051  -0.499  0.00  0.00    -0.245 OA
BRANCH  19  21
ATOM     21  O   UNL     1      -6.206   0.714  -1.973  0.00  0.00    -0.465 OA
ATOM     22  C   UNL     1      -6.797   2.015  -1.951  0.00  0.00    +0.280 C 
ENDBRANCH  19  21
ENDBRANCH   6  19
BRANCH   2  23
ATOM     23  C   UNL     1      -4.723  -4.090   1.199  0.00  0.00    +0.101 C 
ATOM     24  N   UNL     1      -4.327  -4.598   2.135  0.00  0.00    -0.191 NA
ENDBRANCH   2  23
BRANCH   5  25
ATOM     25  C   UNL     1      -7.423  -1.919  -3.270  0.00  0.00    +0.150 C 
BRANCH  25  26
ATOM     26  S   UNL     1      -6.423  -1.594  -4.748  0.00  0.00    -0.097 S 
BRANCH  26  27
ATOM     27  C   UNL     1      -7.598  -1.065  -5.950  0.00  0.00    +0.115 A 
ATOM     28  C   UNL     1      -7.167  -0.727  -7.246  0.00  0.00    +0.084 A 
ATOM     29  C   UNL     1      -8.119  -0.318  -8.189  0.00  0.00    +0.027 A 
ATOM     30  C   UNL     1      -9.440  -0.260  -7.795  0.00  0.00    -0.025 A 
ATOM     31  C   UNL     1      -9.787  -0.598  -6.495  0.00  0.00    +0.046 A 
ATOM     32  N   UNL     1      -8.882  -0.994  -5.628  0.00  0.00    -0.244 NA
ATOM     33  C   UNL     1     -11.243  -0.479  -6.122  0.00  0.00    +0.056 C 
ATOM     34  C   UNL     1     -12.034  -1.683  -6.518  0.00  0.00    +0.006 C 
ATOM     35  C   UNL     1     -12.457  -1.818  -7.967  0.00  0.00    +0.000 C 
ATOM     36  C   UNL     1     -11.259  -2.235  -8.840  0.00  0.00    +0.000 C 
ATOM     37  C   UNL     1     -10.839  -1.004  -9.688  0.00  0.00    +0.005 C 
ATOM     38  C   UNL     1     -10.527   0.159  -8.748  0.00  0.00    +0.037 C 
BRANCH  28  39
ATOM     39  C   UNL     1      -5.780  -0.800  -7.595  0.00  0.00    +0.102 C 
ATOM     40  N   UNL     1      -4.680  -0.858  -7.871  0.00  0.00    -0.191 NA
ENDBRANCH  28  39
ENDBRANCH  26  27
ENDBRANCH  25  26
ENDBRANCH   5  25
TORSDOF 10
