REMARK  Name = ZINC43587173
REMARK  6 active torsions:
REMARK  status: ('A' for Active; 'I' for Inactive)
REMARK    1  A    between atoms: C_1  and  C_2
REMARK    2  A    between atoms: C_2  and  C_4
REMARK    3  A    between atoms: C_2  and  N_13
REMARK    4  A    between atoms: N_9  and  C_10
REMARK    5  A    between atoms: C_10  and  C_11
REMARK    6  A    between atoms: C_16  and  C_19
REMARK                            x       y       z     vdW  Elec       q    Type
REMARK                         _______ _______ _______ _____ _____    ______ ____
ROOT
ATOM      1  N   UNL     1       0.012  -1.008  -1.235  0.00  0.00    +0.387 N 
ATOM      2  C   UNL     1      -0.554  -2.296  -0.817  0.00  0.00    -0.077 C 
ATOM      3  C   UNL     1      -0.470  -3.294  -1.974  0.00  0.00    -0.006 C 
ATOM      4  C   UNL     1      -1.260  -2.750  -3.168  0.00  0.00    +0.072 C 
ATOM      5  C   UNL     1      -0.709  -1.373  -3.548  0.00  0.00    -0.006 C 
ATOM      6  C   UNL     1      -0.784  -0.446  -2.333  0.00  0.00    -0.077 C 
ATOM      7  H   UNL     1       0.962  -1.145  -1.546  0.00  0.00    -0.081 HD
ENDROOT
BRANCH   4   8
ATOM      8  C   UNL     1      -1.117  -3.690  -4.337  0.00  0.00    +0.219 C 
ATOM      9  O   UNL     1      -0.165  -4.440  -4.400  0.00  0.00    -0.275 OA
ATOM     10  N   UNL     1      -2.046  -3.698  -5.314  0.00  0.00    -0.297 N 
ATOM     11  C   UNL     1      -3.260  -2.872  -5.211  0.00  0.00    +0.136 C 
ATOM     12  C   UNL     1      -3.412  -2.073  -6.510  0.00  0.00    +0.179 C 
ATOM     13  O   UNL     1      -3.345  -2.967  -7.623  0.00  0.00    -0.377 OA
ATOM     14  C   UNL     1      -2.096  -3.652  -7.750  0.00  0.00    +0.179 C 
ATOM     15  C   UNL     1      -1.874  -4.528  -6.517  0.00  0.00    +0.136 C 
ENDBRANCH   4   8
BRANCH   1  17
ATOM     16  C   UNL     1       0.535   1.284  -0.547  0.00  0.00    -0.004 C 
ATOM     17  C   UNL     1       0.001  -0.078  -0.098  0.00  0.00    +0.017 C 
BRANCH  17  18
ATOM     18  C   UNL     1       0.872  -0.621   1.004  0.00  0.00    +0.207 C 
ATOM     19  O   UNL     1       1.805  -1.349   0.737  0.00  0.00    -0.277 OA
ATOM     20  N   UNL     1       0.616  -0.298   2.288  0.00  0.00    -0.242 N 
ATOM     21  C   UNL     1       1.395  -0.784   3.274  0.00  0.00    +0.306 C 
ATOM     22  O   UNL     1       2.330  -1.514   3.006  0.00  0.00    -0.252 OA
ATOM     23  N   UNL     1       1.139  -0.462   4.557  0.00  0.00    -0.296 N 
ATOM     24  H   UNL     1      -0.130   0.284   2.501  0.00  0.00    +0.159 HD
ATOM     25  H   UNL     1       0.393   0.120   4.771  0.00  0.00    +0.151 HD
BRANCH  23  26
ATOM     26  C   UNL     1       1.986  -0.990   5.629  0.00  0.00    +0.132 C 
BRANCH  26  27
ATOM     27  C   UNL     1       1.490  -0.482   6.958  0.00  0.00    -0.016 C 
ATOM     28  C   UNL     1       1.192  -1.329   7.913  0.00  0.00    +0.005 C 
ENDBRANCH  26  27
ENDBRANCH  23  26
ENDBRANCH  17  18
ENDBRANCH   1  17
TORSDOF 5
