REMARK  Name = ZINC39660255
REMARK  9 active torsions:
REMARK  status: ('A' for Active; 'I' for Inactive)
REMARK    1  A    between atoms: C_1  and  C_2
REMARK    2  A    between atoms: C_2  and  C_3
REMARK    3  A    between atoms: C_3  and  C_4
REMARK    4  A    between atoms: C_4  and  C_5
REMARK    5  A    between atoms: C_5  and  C_6
REMARK    6  A    between atoms: C_6  and  N_7
REMARK    7  A    between atoms: C_8  and  C_10
REMARK    8  A    between atoms: C_21  and  C_23
REMARK    9  A    between atoms: C_26  and  C_29
REMARK                            x       y       z     vdW  Elec       q    Type
REMARK                         _______ _______ _______ _____ _____    ______ ____
ROOT
ATOM      1  C   UNL     1       2.304  -6.356  -5.165  0.00  0.00    +0.100 C 
ATOM      2  C   UNL     1       1.798  -5.961  -6.571  0.00  0.00    +0.121 C 
ATOM      3  N   UNL     1       2.071  -7.148  -7.414  0.00  0.00    -0.296 N 
ATOM      4  C   UNL     1       1.748  -8.303  -6.542  0.00  0.00    +0.115 C 
ATOM      5  C   UNL     1       2.269  -7.893  -5.150  0.00  0.00    -0.004 C 
ATOM      6  C   UNL     1       1.319  -8.389  -4.064  0.00  0.00    -0.010 C 
ATOM      7  C   UNL     1       1.346  -9.920  -4.029  0.00  0.00    -0.082 C 
ATOM      8  N   UNL     1       2.713 -10.381  -3.760  0.00  0.00    +0.379 N 
ATOM      9  C   UNL     1       3.603  -9.979  -4.856  0.00  0.00    -0.082 C 
ATOM     10  C   UNL     1       3.671  -8.451  -4.926  0.00  0.00    -0.010 C 
ATOM     11  C   UNL     1       2.514  -7.173  -8.687  0.00  0.00    +0.247 C 
ATOM     12  O   UNL     1       2.859  -6.142  -9.231  0.00  0.00    -0.270 OA
ATOM     13  H   UNL     1       3.040  -9.974  -2.897  0.00  0.00    -0.086 HD
ATOM     14  H   UNL     1       2.717 -11.387  -3.677  0.00  0.00    -0.086 HD
ENDROOT
BRANCH  11  15
ATOM     15  C   UNL     1       2.581  -8.455  -9.421  0.00  0.00    +0.037 A 
ATOM     16  C   UNL     1       1.815  -9.544  -9.002  0.00  0.00    +0.013 A 
ATOM     17  C   UNL     1       1.881 -10.736  -9.692  0.00  0.00    +0.013 A 
ATOM     18  C   UNL     1       2.705 -10.854 -10.798  0.00  0.00    +0.055 A 
ATOM     19  C   UNL     1       3.467  -9.779 -11.219  0.00  0.00    +0.013 A 
ATOM     20  C   UNL     1       3.405  -8.579 -10.541  0.00  0.00    +0.013 A 
BRANCH  18  21
ATOM     21  C   UNL     1       2.773 -12.160 -11.547  0.00  0.00    +0.417 C 
ATOM     22  F   UNL     1       1.806 -12.169 -12.557  0.00  0.00    -0.166 F 
ATOM     23  F   UNL     1       4.043 -12.306 -12.116  0.00  0.00    -0.166 F 
ATOM     24  F   UNL     1       2.534 -13.218 -10.662  0.00  0.00    -0.166 F 
ENDBRANCH  18  21
ENDBRANCH  11  15
BRANCH   1  26
ATOM     25  N   UNL     1       1.885  -5.477  -2.891  0.00  0.00    -0.315 N 
ATOM     26  C   UNL     1       1.391  -5.799  -4.103  0.00  0.00    +0.218 C 
ATOM     27  O   UNL     1       0.212  -5.642  -4.339  0.00  0.00    -0.275 OA
ATOM     28  H   UNL     1       2.828  -5.603  -2.703  0.00  0.00    +0.149 HD
BRANCH  25  29
ATOM     29  C   UNL     1       0.997  -4.936  -1.859  0.00  0.00    +0.104 C 
BRANCH  29  30
ATOM     30  C   UNL     1       1.802  -4.657  -0.589  0.00  0.00    +0.019 C 
BRANCH  30  31
ATOM     31  C   UNL     1       0.875  -4.093   0.490  0.00  0.00    +0.002 C 
BRANCH  31  32
ATOM     32  C   UNL     1       1.681  -3.814   1.760  0.00  0.00    -0.000 C 
BRANCH  32  34
ATOM     33  C   UNL     1       1.560  -2.970   4.109  0.00  0.00    +0.004 C 
ATOM     34  C   UNL     1       0.754  -3.249   2.838  0.00  0.00    -0.003 C 
ENDBRANCH  32  34
ENDBRANCH  31  32
ENDBRANCH  30  31
ENDBRANCH  29  30
ENDBRANCH  25  29
ENDBRANCH   1  26
TORSDOF 8
