REMARK  Name = ZINC03359383
REMARK  13 active torsions:
REMARK  status: ('A' for Active; 'I' for Inactive)
REMARK    1  A    between atoms: C_1  and  C_2
REMARK    2  A    between atoms: C_2  and  C_3
REMARK    3  A    between atoms: C_2  and  C_4
REMARK    4  A    between atoms: C_2  and  C_5
REMARK    5  A    between atoms: C_8  and  C_11
REMARK    6  A    between atoms: C_14  and  S_23
REMARK    7  A    between atoms: N_15  and  C_16
REMARK    8  A    between atoms: S_23  and  C_24
REMARK    9  A    between atoms: C_24  and  C_25
REMARK   10  A    between atoms: C_25  and  N_55
REMARK   11  A    between atoms: C_26  and  C_27
REMARK   12  A    between atoms: C_26  and  N_55
REMARK   13  A    between atoms: C_27  and  O_28
REMARK                            x       y       z     vdW  Elec       q    Type
REMARK                         _______ _______ _______ _____ _____    ______ ____
ROOT
ATOM      1  C   UNL     1      -2.501   0.983  -0.132  0.00  0.00    +0.169 A 
ATOM      2  N   UNL     1      -2.643  -0.300   0.108  0.00  0.00    -0.128 NA
ATOM      3  N   UNL     1      -3.890  -0.589   0.226  0.00  0.00    -0.122 NA
ATOM      4  C   UNL     1      -4.622   0.491   0.069  0.00  0.00    +0.196 A 
ATOM      5  N   UNL     1      -3.764   1.532  -0.159  0.00  0.00    -0.270 N 
ENDROOT
BRANCH   5   6
ATOM      6  C   UNL     1      -4.100   2.876  -0.377  0.00  0.00    +0.051 A 
ATOM      7  C   UNL     1      -3.775   3.837   0.571  0.00  0.00    +0.028 A 
ATOM      8  C   UNL     1      -4.102   5.160   0.351  0.00  0.00    +0.022 A 
ATOM      9  C   UNL     1      -4.763   5.528  -0.807  0.00  0.00    +0.041 A 
ATOM     10  C   UNL     1      -5.094   4.571  -1.751  0.00  0.00    +0.022 A 
ATOM     11  C   UNL     1      -4.764   3.247  -1.538  0.00  0.00    +0.028 A 
ATOM     12 CL   UNL     1      -5.179   7.191  -1.077  0.00  0.00    -0.084 Cl
ENDBRANCH   5   6
BRANCH   1  16
ATOM     13  C   UNL     1       1.164   3.056  -0.694  0.00  0.00    -0.042 A 
ATOM     14  C   UNL     1      -0.024   3.632  -1.107  0.00  0.00    +0.005 A 
ATOM     15  C   UNL     1      -1.217   2.963  -0.931  0.00  0.00    +0.012 A 
ATOM     16  C   UNL     1      -1.225   1.704  -0.329  0.00  0.00    +0.020 A 
ATOM     17  C   UNL     1      -0.023   1.126   0.081  0.00  0.00    +0.012 A 
ATOM     18  C   UNL     1       1.164   1.806  -0.101  0.00  0.00    +0.005 A 
BRANCH  13  20
ATOM     19  C   UNL     1       2.414   5.123  -0.136  0.00  0.00    +0.015 C 
ATOM     20  C   UNL     1       2.464   3.793  -0.890  0.00  0.00    -0.013 C 
ATOM     21  C   UNL     1       3.617   2.944  -0.352  0.00  0.00    +0.015 C 
ATOM     22  C   UNL     1       2.679   4.059  -2.381  0.00  0.00    +0.015 C 
ENDBRANCH  13  20
ENDBRANCH   1  16
BRANCH   4  23
ATOM     23  S   UNL     1      -6.380   0.583   0.144  0.00  0.00    -0.088 S 
BRANCH  23  24
ATOM     24  C   UNL     1      -6.771  -1.152   0.479  0.00  0.00    +0.058 C 
BRANCH  24  25
ATOM     25  C   UNL     1      -8.288  -1.321   0.590  0.00  0.00    -0.071 C 
BRANCH  25  26
ATOM     26  N   UNL     1      -8.598  -2.737   0.863  0.00  0.00    +0.381 N 
ATOM     27  H   UNL     1      -8.151  -3.018   1.744  0.00  0.00    -0.086 HD
ATOM     28  H   UNL     1      -8.237  -3.317   0.096  0.00  0.00    -0.086 HD
BRANCH  26  29
ATOM     29  C   UNL     1     -10.056  -2.930   0.974  0.00  0.00    -0.054 C 
BRANCH  29  30
ATOM     30  C   UNL     1     -10.347  -4.405   1.257  0.00  0.00    +0.137 C 
BRANCH  30  31
ATOM     31  O   UNL     1      -9.816  -4.758   2.536  0.00  0.00    -0.397 OA
ATOM     32  H   UNL     1      -9.964  -5.682   2.782  0.00  0.00    +0.209 HD
ENDBRANCH  30  31
ENDBRANCH  29  30
ENDBRANCH  26  29
ENDBRANCH  25  26
ENDBRANCH  24  25
ENDBRANCH  23  24
ENDBRANCH   4  23
TORSDOF 10
