REMARK  Name = ZINC13408519
REMARK  7 active torsions:
REMARK  status: ('A' for Active; 'I' for Inactive)
REMARK    1  A    between atoms: C_1  and  C_2
REMARK    2  A    between atoms: C_11  and  S_16
REMARK    3  A    between atoms: N_12  and  C_13
REMARK    4  A    between atoms: S_16  and  C_17
REMARK    5  A    between atoms: C_17  and  C_18
REMARK    6  A    between atoms: N_20  and  C_21
REMARK    7  A    between atoms: C_22  and  C_29
REMARK                            x       y       z     vdW  Elec       q    Type
REMARK                         _______ _______ _______ _____ _____    ______ ____
ROOT
ATOM      1  S   UNL     1       3.884  -4.371  -1.308  0.00  0.00    -0.077 S 
ENDROOT
BRANCH   1  12
ATOM      2  C   UNL     1       7.161 -13.143  -0.846  0.00  0.00    +0.007 C 
ATOM      3  C   UNL     1       6.227 -11.978  -1.178  0.00  0.00    -0.011 C 
ATOM      4  C   UNL     1       5.274 -11.736  -0.004  0.00  0.00    +0.022 C 
ATOM      5  C   UNL     1       4.383 -10.531  -0.316  0.00  0.00    +0.108 C 
ATOM      6  N   UNL     1       5.222  -9.347  -0.542  0.00  0.00    -0.300 N 
ATOM      7  C   UNL     1       6.112  -9.538  -1.694  0.00  0.00    +0.108 C 
ATOM      8  C   UNL     1       7.054 -10.713  -1.423  0.00  0.00    +0.022 C 
ATOM      9  C   UNL     1       4.442  -8.207  -0.699  0.00  0.00    +0.221 A 
ATOM     10  N   UNL     1       3.134  -8.158  -0.657  0.00  0.00    -0.112 NA
ATOM     11  N   UNL     1       2.744  -6.828  -0.860  0.00  0.00    -0.121 NA
ATOM     12  C   UNL     1       3.827  -6.108  -1.020  0.00  0.00    +0.194 A 
ATOM     13  N   UNL     1       4.906  -6.943  -0.929  0.00  0.00    -0.287 N 
BRANCH  13  14
ATOM     14  C   UNL     1       6.312  -6.551  -1.054  0.00  0.00    +0.093 C 
ATOM     15  C   UNL     1       6.648  -5.067  -0.888  0.00  0.00    +0.027 C 
ATOM     16  C   UNL     1       6.706  -5.715  -2.273  0.00  0.00    +0.027 C 
ENDBRANCH  13  14
ENDBRANCH   1  12
BRANCH   1  17
ATOM     17  C   UNL     1       2.140  -3.872  -1.323  0.00  0.00    +0.173 C 
BRANCH  17  18
ATOM     18  C   UNL     1       2.045  -2.387  -1.563  0.00  0.00    +0.228 C 
ATOM     19  O   UNL     1       3.054  -1.730  -1.710  0.00  0.00    -0.275 OA
ATOM     20  N   UNL     1       0.838  -1.789  -1.616  0.00  0.00    -0.283 N 
ATOM     21  H   UNL     1       0.036  -2.297  -1.417  0.00  0.00    +0.155 HD
BRANCH  20  22
ATOM     22  C   UNL     1       0.743  -0.441  -1.955  0.00  0.00    +0.066 A 
ATOM     23  C   UNL     1      -0.157  -0.026  -2.949  0.00  0.00    +0.087 A 
ATOM     24  C   UNL     1      -0.242   1.329  -3.280  0.00  0.00    +0.037 A 
ATOM     25  C   UNL     1       0.554   2.248  -2.630  0.00  0.00    +0.043 A 
ATOM     26  C   UNL     1       1.441   1.835  -1.648  0.00  0.00    +0.042 A 
ATOM     27  C   UNL     1       1.538   0.499  -1.310  0.00  0.00    +0.064 A 
ATOM     28 CL   UNL     1       2.652  -0.006  -0.080  0.00  0.00    -0.082 Cl
ATOM     29 CL   UNL     1       0.446   3.931  -3.043  0.00  0.00    -0.083 Cl
BRANCH  23  30
ATOM     30  C   UNL     1      -1.005  -1.013  -3.640  0.00  0.00    +0.388 C 
ATOM     31  O   UNL     1      -0.857  -2.199  -3.422  0.00  0.00    -0.241 OA
ATOM     32  O   UNL     1      -1.945  -0.600  -4.513  0.00  0.00    -0.241 OA
ENDBRANCH  23  30
ENDBRANCH  20  22
ENDBRANCH  17  18
ENDBRANCH   1  17
TORSDOF 6
