REMARK  Name = ZINC23259794
REMARK  11 active torsions:
REMARK  status: ('A' for Active; 'I' for Inactive)
REMARK    1  A    between atoms: C_1  and  C_2
REMARK    2  A    between atoms: C_2  and  C_4
REMARK    3  A    between atoms: C_2  and  N_14
REMARK    4  A    between atoms: C_7  and  S_10
REMARK    5  A    between atoms: S_10  and  N_13
REMARK    6  A    between atoms: N_14  and  C_15
REMARK    7  A    between atoms: N_14  and  C_16
REMARK    8  A    between atoms: C_16  and  C_17
REMARK    9  A    between atoms: N_19  and  C_20
REMARK   10  A    between atoms: C_22  and  C_31
REMARK   11  A    between atoms: C_25  and  N_26
REMARK                            x       y       z     vdW  Elec       q    Type
REMARK                         _______ _______ _______ _____ _____    ______ ____
ROOT
ATOM      1  C   UNL     1      -2.129   5.182   7.824  0.00  0.00    +0.201 C 
ATOM      2  O   UNL     1      -1.019   5.471   7.429  0.00  0.00    -0.278 OA
ATOM      3  N   UNL     1      -2.588   5.699   8.982  0.00  0.00    -0.285 N 
ATOM      4  H   UNL     1      -3.620   5.497   9.303  0.00  0.00    +0.155 HD
ENDROOT
BRANCH   3   5
ATOM      5  C   UNL     1      -1.751   6.492   9.775  0.00  0.00    +0.060 A 
ATOM      6  C   UNL     1      -0.823   7.335   9.181  0.00  0.00    +0.037 A 
ATOM      7  C   UNL     1      -0.001   8.121   9.966  0.00  0.00    +0.057 A 
ATOM      8  C   UNL     1      -0.092   8.062  11.345  0.00  0.00    +0.014 A 
ATOM      9  C   UNL     1      -1.010   7.221  11.945  0.00  0.00    +0.030 A 
ATOM     10  C   UNL     1      -1.843   6.432  11.165  0.00  0.00    +0.088 A 
BRANCH  10  11
ATOM     11  N   UNL     1      -2.774   5.578  11.772  0.00  0.00    -0.218 N 
ATOM     12  C   UNL     1      -3.043   5.481  13.089  0.00  0.00    +0.225 A 
ATOM     13  N   UNL     1      -3.973   4.574  13.246  0.00  0.00    -0.222 NA
ATOM     14  C   UNL     1      -4.315   4.066  12.063  0.00  0.00    +0.245 A 
ATOM     15  N   UNL     1      -3.609   4.649  11.130  0.00  0.00    -0.153 NA
ENDBRANCH  10  11
BRANCH   7  16
ATOM     16  C   UNL     1       1.002   9.040   9.318  0.00  0.00    +0.417 C 
ATOM     17  F   UNL     1       1.717   9.722  10.309  0.00  0.00    -0.166 F 
ATOM     18  F   UNL     1       1.887   8.289   8.538  0.00  0.00    -0.166 F 
ATOM     19  F   UNL     1       0.333   9.963   8.507  0.00  0.00    -0.166 F 
ENDBRANCH   7  16
ENDBRANCH   3   5
BRANCH   1  20
ATOM     20  C   UNL     1      -2.994   4.246   7.021  0.00  0.00    +0.019 C 
BRANCH  20  21
ATOM     21  N   UNL     1      -2.271   3.826   5.813  0.00  0.00    +0.388 N 
ATOM     22  C   UNL     1      -1.100   3.010   6.158  0.00  0.00    -0.095 C 
ATOM     23  H   UNL     1      -1.913   4.732   5.301  0.00  0.00    -0.081 HD
BRANCH  21  25
ATOM     24  C   UNL     1      -4.315   4.023   4.478  0.00  0.00    -0.008 C 
ATOM     25  C   UNL     1      -3.160   3.107   4.891  0.00  0.00    -0.041 C 
BRANCH  25  26
ATOM     26  C   UNL     1      -2.385   2.693   3.666  0.00  0.00    -0.061 A 
ATOM     27  C   UNL     1      -2.602   1.452   3.099  0.00  0.00    +0.004 A 
ATOM     28  C   UNL     1      -1.892   1.072   1.975  0.00  0.00    +0.029 A 
ATOM     29  C   UNL     1      -0.964   1.934   1.420  0.00  0.00    +0.105 A 
ATOM     30  C   UNL     1      -0.743   3.173   1.991  0.00  0.00    +0.029 A 
ATOM     31  C   UNL     1      -1.458   3.555   3.111  0.00  0.00    +0.004 A 
BRANCH  29  32
ATOM     32  S   UNL     1      -0.058   1.450  -0.011  0.00  0.00    +0.056 S 
ATOM     33  O   UNL     1      -0.052   0.029  -0.027  0.00  0.00    -0.153 OA
ATOM     34  O   UNL     1       1.138   2.216  -0.014  0.00  0.00    -0.153 OA
BRANCH  32  35
ATOM     35  N   UNL     1      -0.933   1.933  -1.332  0.00  0.00    -0.204 NA
ATOM     36  H   UNL     1      -0.399   1.648  -2.250  0.00  0.00    +0.144 HD
ATOM     37  H   UNL     1      -1.062   3.026  -1.306  0.00  0.00    +0.144 HD
ENDBRANCH  32  35
ENDBRANCH  29  32
ENDBRANCH  25  26
ENDBRANCH  21  25
ENDBRANCH  20  21
ENDBRANCH   1  20
TORSDOF 9
