REMARK  Name = ZINC19892875
REMARK  9 active torsions:
REMARK  status: ('A' for Active; 'I' for Inactive)
REMARK    1  A    between atoms: C_4  and  C_7
REMARK    2  A    between atoms: C_7  and  N_8
REMARK    3  A    between atoms: N_8  and  C_9
REMARK    4  A    between atoms: N_8  and  N_15
REMARK    5  A    between atoms: C_16  and  C_18
REMARK    6  A    between atoms: C_18  and  N_19
REMARK    7  A    between atoms: N_22  and  C_25
REMARK    8  A    between atoms: C_25  and  C_26
REMARK    9  A    between atoms: C_25  and  C_32
REMARK                            x       y       z     vdW  Elec       q    Type
REMARK                         _______ _______ _______ _____ _____    ______ ____
ROOT
ATOM      1  N   UNL     1       2.311  -0.176   0.749  0.00  0.00    +0.387 N 
ATOM      2  C   UNL     1       0.929  -0.616   0.984  0.00  0.00    -0.063 C 
ATOM      3  C   UNL     1       0.024  -0.058  -0.117  0.00  0.00    +0.067 C 
ATOM      4  N   UNL     1       0.113   1.409  -0.124  0.00  0.00    -0.295 NA
ATOM      5  C   UNL     1       1.496   1.849  -0.359  0.00  0.00    +0.067 C 
ATOM      6  C   UNL     1       2.400   1.291   0.742  0.00  0.00    -0.063 C 
ATOM      7  H   UNL     1       2.619  -0.540  -0.243  0.00  0.00    -0.081 HD
ENDROOT
BRANCH   1   8
ATOM      8  C   UNL     1       3.224  -0.754   1.744  0.00  0.00    +0.020 C 
BRANCH   8  10
ATOM      9  N   UNL     1       5.666  -0.928   2.100  0.00  0.00    -0.235 N 
ATOM     10  C   UNL     1       4.649  -0.487   1.333  0.00  0.00    +0.213 C 
ATOM     11  O   UNL     1       4.881   0.125   0.312  0.00  0.00    -0.276 OA
ATOM     12  H   UNL     1       5.456  -1.483   3.026  0.00  0.00    +0.173 HD
BRANCH   9  13
ATOM     13  N   UNL     1       6.991  -0.679   1.718  0.00  0.00    -0.247 N 
BRANCH  13  14
ATOM     14  C   UNL     1       7.565  -1.408   0.674  0.00  0.00    +0.048 A 
ATOM     15  C   UNL     1       8.877  -1.159   0.291  0.00  0.00    +0.025 A 
ATOM     16  C   UNL     1       9.444  -1.886  -0.738  0.00  0.00    +0.002 A 
ATOM     17  C   UNL     1       8.704  -2.853  -1.393  0.00  0.00    +0.000 A 
ATOM     18  C   UNL     1       7.396  -3.100  -1.017  0.00  0.00    +0.002 A 
ATOM     19  C   UNL     1       6.825  -2.381   0.014  0.00  0.00    +0.025 A 
ENDBRANCH  13  14
BRANCH  13  20
ATOM     20  C   UNL     1       7.773   0.346   2.413  0.00  0.00    +0.162 C 
BRANCH  20  24
ATOM     21  C   UNL     1      10.083  -1.480   5.508  0.00  0.00    +0.000 A 
ATOM     22  C   UNL     1      10.611  -1.351   4.237  0.00  0.00    +0.000 A 
ATOM     23  C   UNL     1       9.863  -0.760   3.235  0.00  0.00    +0.005 A 
ATOM     24  C   UNL     1       8.588  -0.298   3.505  0.00  0.00    -0.028 A 
ATOM     25  C   UNL     1       8.063  -0.423   4.777  0.00  0.00    +0.005 A 
ATOM     26  C   UNL     1       8.808  -1.019   5.777  0.00  0.00    +0.000 A 
ENDBRANCH  20  24
ENDBRANCH  13  20
ENDBRANCH   9  13
ENDBRANCH   8  10
ENDBRANCH   1   8
BRANCH   4  27
ATOM     27  C   UNL     1      -0.800   1.987  -1.118  0.00  0.00    +0.117 C 
BRANCH  27  28
ATOM     28  C   UNL     1      -2.209   1.536  -0.829  0.00  0.00    -0.026 A 
ATOM     29  C   UNL     1      -2.682   1.539   0.469  0.00  0.00    +0.005 A 
ATOM     30  C   UNL     1      -3.976   1.129   0.734  0.00  0.00    +0.000 A 
ATOM     31  C   UNL     1      -4.793   0.709  -0.299  0.00  0.00    +0.000 A 
ATOM     32  C   UNL     1      -4.317   0.701  -1.597  0.00  0.00    +0.000 A 
ATOM     33  C   UNL     1      -3.025   1.115  -1.862  0.00  0.00    +0.005 A 
ENDBRANCH  27  28
BRANCH  27  34
ATOM     34  C   UNL     1      -0.730   3.491  -1.050  0.00  0.00    -0.026 A 
ATOM     35  C   UNL     1      -0.737   4.129   0.176  0.00  0.00    +0.005 A 
ATOM     36  C   UNL     1      -0.668   5.508   0.239  0.00  0.00    +0.000 A 
ATOM     37  C   UNL     1      -0.602   6.250  -0.925  0.00  0.00    +0.000 A 
ATOM     38  C   UNL     1      -0.601   5.613  -2.152  0.00  0.00    +0.000 A 
ATOM     39  C   UNL     1      -0.665   4.234  -2.215  0.00  0.00    +0.005 A 
ENDBRANCH  27  34
ENDBRANCH   4  27
TORSDOF 9
