REMARK  Name = ZINC22915651
REMARK  9 active torsions:
REMARK  status: ('A' for Active; 'I' for Inactive)
REMARK    1  A    between atoms: C_1  and  C_2
REMARK    2  A    between atoms: C_7  and  N_12
REMARK    3  A    between atoms: C_9  and  C_11
REMARK    4  A    between atoms: C_13  and  C_15
REMARK    5  A    between atoms: C_15  and  N_16
REMARK    6  A    between atoms: N_19  and  C_22
REMARK    7  A    between atoms: C_22  and  C_23
REMARK    8  A    between atoms: N_25  and  C_26
REMARK    9  A    between atoms: C_31  and  C_32
REMARK                            x       y       z     vdW  Elec       q    Type
REMARK                         _______ _______ _______ _____ _____    ______ ____
ROOT
ATOM      1  N   UNL     1      -1.059   0.484  -4.678  0.00  0.00    +0.387 N 
ATOM      2  C   UNL     1       0.353   0.550  -5.079  0.00  0.00    -0.063 C 
ATOM      3  C   UNL     1       0.608  -0.452  -6.209  0.00  0.00    +0.066 C 
ATOM      4  N   UNL     1      -0.274  -0.141  -7.343  0.00  0.00    -0.298 NA
ATOM      5  C   UNL     1      -1.686  -0.207  -6.942  0.00  0.00    +0.066 C 
ATOM      6  C   UNL     1      -1.940   0.794  -5.813  0.00  0.00    -0.063 C 
ATOM      7  H   UNL     1      -1.272  -0.545  -4.354  0.00  0.00    -0.081 HD
ENDROOT
BRANCH   1   8
ATOM      8  C   UNL     1      -1.327   1.378  -3.544  0.00  0.00    +0.019 C 
BRANCH   8  10
ATOM      9  N   UNL     1      -0.686   1.548  -1.161  0.00  0.00    -0.314 N 
ATOM     10  C   UNL     1      -0.588   0.880  -2.328  0.00  0.00    +0.197 C 
ATOM     11  O   UNL     1       0.093  -0.120  -2.399  0.00  0.00    -0.278 OA
ATOM     12  H   UNL     1      -1.304   2.455  -1.096  0.00  0.00    +0.149 HD
BRANCH   9  18
ATOM     13  C   UNL     1      -1.419   3.571   2.559  0.00  0.00    +0.008 C 
ATOM     14  C   UNL     1      -0.708   3.082   1.295  0.00  0.00    -0.009 C 
ATOM     15  C   UNL     1       0.725   3.619   1.277  0.00  0.00    +0.003 C 
ATOM     16  C   UNL     1       1.436   3.131   0.014  0.00  0.00    +0.002 C 
ATOM     17  C   UNL     1       1.464   1.601   0.003  0.00  0.00    +0.022 C 
ATOM     18  C   UNL     1       0.032   1.064   0.021  0.00  0.00    +0.076 C 
ATOM     19  C   UNL     1      -0.680   1.553   1.285  0.00  0.00    +0.009 C 
ATOM     20  C   UNL     1      -2.112   1.016   1.303  0.00  0.00    +0.009 C 
ENDBRANCH   9  18
ENDBRANCH   8  10
ENDBRANCH   1   8
BRANCH   4  21
ATOM     21  C   UNL     1      -0.006  -1.035  -8.477  0.00  0.00    +0.180 C 
BRANCH  21  22
ATOM     22  C   UNL     1       1.375  -0.763  -9.016  0.00  0.00    +0.231 C 
ATOM     23  O   UNL     1       2.068   0.091  -8.505  0.00  0.00    -0.274 OA
ATOM     24  N   UNL     1       1.839  -1.470 -10.066  0.00  0.00    -0.284 N 
ATOM     25  H   UNL     1       1.242  -2.294 -10.482  0.00  0.00    +0.155 HD
BRANCH  24  26
ATOM     26  C   UNL     1       3.083  -1.155 -10.626  0.00  0.00    +0.045 A 
ATOM     27  C   UNL     1       4.119  -0.710  -9.815  0.00  0.00    +0.024 A 
ATOM     28  C   UNL     1       5.346  -0.405 -10.369  0.00  0.00    +0.002 A 
ATOM     29  C   UNL     1       5.540  -0.531 -11.733  0.00  0.00    +0.001 A 
ATOM     30  C   UNL     1       4.510  -0.969 -12.544  0.00  0.00    +0.014 A 
ATOM     31  C   UNL     1       3.281  -1.281 -11.994  0.00  0.00    +0.076 A 
BRANCH  31  32
ATOM     32  C   UNL     1       2.158  -1.757 -12.879  0.00  0.00    +0.419 C 
ATOM     33  F   UNL     1       2.597  -1.802 -14.206  0.00  0.00    -0.166 F 
ATOM     34  F   UNL     1       1.758  -3.036 -12.476  0.00  0.00    -0.166 F 
ATOM     35  F   UNL     1       1.077  -0.875 -12.774  0.00  0.00    -0.166 F 
ENDBRANCH  31  32
ENDBRANCH  24  26
ENDBRANCH  21  22
ENDBRANCH   4  21
TORSDOF 7
