REMARK  Name = ZINC64802189
REMARK  9 active torsions:
REMARK  status: ('A' for Active; 'I' for Inactive)
REMARK    1  A    between atoms: C_1  and  C_2
REMARK    2  A    between atoms: C_5  and  O_33
REMARK    3  A    between atoms: C_6  and  S_8
REMARK    4  A    between atoms: S_8  and  N_11
REMARK    5  A    between atoms: N_11  and  C_12
REMARK    6  A    between atoms: C_15  and  N_18
REMARK    7  A    between atoms: C_21  and  C_32
REMARK    8  A    between atoms: N_25  and  C_26
REMARK    9  A    between atoms: O_33  and  C_34
REMARK                            x       y       z     vdW  Elec       q    Type
REMARK                         _______ _______ _______ _____ _____    ______ ____
ROOT
ATOM      1  C   UNL     1      -1.747  -4.783   1.792  0.00  0.00    +0.048 A 
ATOM      2  C   UNL     1      -1.716  -6.150   2.036  0.00  0.00    +0.026 A 
ATOM      3  C   UNL     1      -2.134  -7.035   1.062  0.00  0.00    +0.025 A 
ATOM      4  C   UNL     1      -2.586  -6.559  -0.162  0.00  0.00    +0.032 A 
ATOM      5  C   UNL     1      -2.617  -5.192  -0.406  0.00  0.00    +0.025 A 
ATOM      6  C   UNL     1      -2.204  -4.307   0.570  0.00  0.00    +0.026 A 
ENDROOT
BRANCH   4   7
ATOM      7  N   UNL     1      -3.009  -7.457  -1.150  0.00  0.00    -0.299 N 
ATOM      8  C   UNL     1      -3.645  -8.634  -0.790  0.00  0.00    +0.128 A 
ATOM      9  C   UNL     1      -3.961  -9.593  -1.756  0.00  0.00    +0.064 A 
ATOM     10  C   UNL     1      -4.595 -10.751  -1.351  0.00  0.00    +0.019 A 
ATOM     11  N   UNL     1      -4.882 -10.919  -0.068  0.00  0.00    -0.332 N 
ATOM     12  C   UNL     1      -4.570  -9.993   0.826  0.00  0.00    +0.195 A 
ATOM     13  N   UNL     1      -3.957  -8.871   0.480  0.00  0.00    -0.201 NA
ATOM     14  N   UNL     1      -4.888 -10.206   2.156  0.00  0.00    -0.312 N 
ATOM     15  C   UNL     1      -4.956 -11.813  -2.357  0.00  0.00    +0.063 C 
ATOM     16  H   UNL     1      -2.857  -7.254  -2.086  0.00  0.00    +0.154 HD
ATOM     17  H   UNL     1      -4.665  -9.535   2.821  0.00  0.00    +0.149 HD
ATOM     18  H   UNL     1      -5.327 -11.731   0.220  0.00  0.00    +0.168 HD
BRANCH  14  19
ATOM     19  C   UNL     1      -5.560 -11.443   2.560  0.00  0.00    +0.073 C 
ATOM     20  C   UNL     1      -7.071 -11.286   2.377  0.00  0.00    +0.022 C 
ATOM     21  C   UNL     1      -7.773 -12.579   2.798  0.00  0.00    +0.002 C 
ATOM     22  C   UNL     1      -7.465 -12.870   4.269  0.00  0.00    +0.000 C 
ATOM     23  C   UNL     1      -5.954 -13.027   4.452  0.00  0.00    +0.002 C 
ATOM     24  C   UNL     1      -5.252 -11.734   4.030  0.00  0.00    +0.022 C 
ENDBRANCH  14  19
ENDBRANCH   4   7
BRANCH   1  25
ATOM     25  N   UNL     1      -1.324  -3.886   2.779  0.00  0.00    -0.216 N 
ATOM     26  H   UNL     1      -0.731  -3.154   2.547  0.00  0.00    +0.174 HD
BRANCH  25  27
ATOM     27  S   UNL     1      -1.835  -4.074   4.343  0.00  0.00    +0.076 S 
ATOM     28  O   UNL     1      -1.334  -2.962   5.071  0.00  0.00    -0.150 OA
ATOM     29  O   UNL     1      -1.543  -5.417   4.707  0.00  0.00    -0.150 OA
BRANCH  27  35
ATOM     30  C   UNL     1      -6.612  -6.069   5.060  0.00  0.00    +0.044 C 
ATOM     31  C   UNL     1      -5.755  -4.888   4.682  0.00  0.00    -0.048 A 
ATOM     32  C   UNL     1      -6.349  -3.688   4.333  0.00  0.00    +0.007 A 
ATOM     33  C   UNL     1      -5.566  -2.605   3.986  0.00  0.00    +0.048 A 
ATOM     34  C   UNL     1      -4.183  -2.720   3.988  0.00  0.00    +0.147 A 
ATOM     35  C   UNL     1      -3.591  -3.924   4.339  0.00  0.00    +0.150 A 
ATOM     36  C   UNL     1      -4.378  -5.004   4.690  0.00  0.00    +0.036 A 
BRANCH  34  37
ATOM     37  O   UNL     1      -3.411  -1.655   3.647  0.00  0.00    -0.493 OA
ATOM     38  C   UNL     1      -4.088  -0.484   3.186  0.00  0.00    +0.277 C 
ENDBRANCH  34  37
ENDBRANCH  27  35
ENDBRANCH  25  27
ENDBRANCH   1  25
TORSDOF 6
