REMARK  Name = ZINC27238596
REMARK  13 active torsions:
REMARK  status: ('A' for Active; 'I' for Inactive)
REMARK    1  A    between atoms: C_1  and  C_2
REMARK    2  A    between atoms: C_2  and  O_3
REMARK    3  A    between atoms: O_3  and  C_4
REMARK    4  A    between atoms: C_7  and  C_10
REMARK    5  A    between atoms: C_10  and  C_11
REMARK    6  A    between atoms: C_10  and  C_19
REMARK    7  A    between atoms: C_10  and  O_36
REMARK    8  A    between atoms: C_14  and  O_17
REMARK    9  A    between atoms: O_17  and  C_18
REMARK   10  A    between atoms: C_19  and  C_21
REMARK   11  A    between atoms: C_19  and  O_29
REMARK   12  A    between atoms: C_21  and  N_22
REMARK   13  A    between atoms: O_29  and  C_30
REMARK                            x       y       z     vdW  Elec       q    Type
REMARK                         _______ _______ _______ _____ _____    ______ ____
ROOT
ATOM      1  C   UNL     1      -3.888   2.081   1.619  0.00  0.00    +0.151 C 
ENDROOT
BRANCH   1   5
ATOM      2  C   UNL     1      -0.285   4.369   1.826  0.00  0.00    +0.121 A 
ATOM      3  C   UNL     1      -1.242   4.489   2.823  0.00  0.00    +0.046 A 
ATOM      4  C   UNL     1      -2.406   3.748   2.754  0.00  0.00    +0.010 A 
ATOM      5  C   UNL     1      -2.618   2.888   1.692  0.00  0.00    -0.008 A 
ATOM      6  C   UNL     1      -1.663   2.763   0.700  0.00  0.00    +0.010 A 
ATOM      7  C   UNL     1      -0.500   3.506   0.761  0.00  0.00    +0.046 A 
BRANCH   2   8
ATOM      8  O   UNL     1       0.861   5.096   1.892  0.00  0.00    -0.492 OA
BRANCH   8  10
ATOM      9  C   UNL     1       3.019   5.817   1.076  0.00  0.00    +0.048 C 
ATOM     10  C   UNL     1       1.802   4.923   0.830  0.00  0.00    +0.225 C 
ENDBRANCH   8  10
ENDBRANCH   2   8
ENDBRANCH   1   5
BRANCH   1  11
ATOM     11  C   UNL     1      -3.553   0.642   1.324  0.00  0.00    -0.008 A 
ATOM     12  C   UNL     1      -3.122   0.279   0.061  0.00  0.00    +0.010 A 
ATOM     13  C   UNL     1      -2.808  -1.039  -0.210  0.00  0.00    +0.046 A 
ATOM     14  C   UNL     1      -2.937  -2.000   0.782  0.00  0.00    +0.120 A 
ATOM     15  C   UNL     1      -3.376  -1.635   2.046  0.00  0.00    +0.046 A 
ATOM     16  C   UNL     1      -3.682  -0.314   2.314  0.00  0.00    +0.010 A 
BRANCH  14  17
ATOM     17  O   UNL     1      -2.636  -3.299   0.515  0.00  0.00    -0.495 OA
ATOM     18  C   UNL     1      -2.191  -3.603  -0.808  0.00  0.00    +0.277 C 
ENDBRANCH  14  17
ENDBRANCH   1  11
BRANCH   1  19
ATOM     19  O   UNL     1      -4.577   2.163   2.869  0.00  0.00    -0.376 OA
ATOM     20  H   UNL     1      -5.531   1.634   3.006  0.00  0.00    +0.211 HD
ENDBRANCH   1  19
BRANCH   1  21
ATOM     21  C   UNL     1      -4.781   2.635   0.507  0.00  0.00    +0.198 C 
BRANCH  21  22
ATOM     22  C   UNL     1      -6.023   1.753   0.364  0.00  0.00    -0.030 C 
BRANCH  22  23
ATOM     23  N   UNL     1      -6.881   2.285  -0.703  0.00  0.00    +0.382 N 
ATOM     24  C   UNL     1      -7.338   3.656  -0.383  0.00  0.00    -0.079 C 
ATOM     25  C   UNL     1      -8.427   4.138  -1.302  0.00  0.00    -0.019 C 
ATOM     26  C   UNL     1      -9.791   3.831  -0.649  0.00  0.00    -0.002 C 
ATOM     27  C   UNL     1     -10.171   2.431  -0.802  0.00  0.00    -0.002 C 
ATOM     28  C   UNL     1      -9.161   1.476  -0.132  0.00  0.00    -0.019 C 
ATOM     29  C   UNL     1      -7.966   1.335  -1.035  0.00  0.00    -0.079 C 
ATOM     30  H   UNL     1      -6.285   2.382  -1.623  0.00  0.00    -0.082 HD
ENDBRANCH  22  23
ENDBRANCH  21  22
BRANCH  21  31
ATOM     31  O   UNL     1      -4.058   2.643  -0.725  0.00  0.00    -0.487 OA
BRANCH  31  32
ATOM     32  C   UNL     1      -3.749   3.857  -1.251  0.00  0.00    +0.121 A 
ATOM     33  C   UNL     1      -2.945   3.942  -2.378  0.00  0.00    +0.045 A 
ATOM     34  C   UNL     1      -2.637   5.177  -2.914  0.00  0.00    +0.004 A 
ATOM     35  C   UNL     1      -3.125   6.329  -2.325  0.00  0.00    +0.000 A 
ATOM     36  C   UNL     1      -3.923   6.248  -1.199  0.00  0.00    +0.004 A 
ATOM     37  C   UNL     1      -4.234   5.015  -0.659  0.00  0.00    +0.045 A 
ENDBRANCH  31  32
ENDBRANCH  21  31
ENDBRANCH   1  21
TORSDOF 11
