REMARK  Name = ZINC46560586
REMARK  13 active torsions:
REMARK  status: ('A' for Active; 'I' for Inactive)
REMARK    1  A    between atoms: C_1  and  C_2
REMARK    2  A    between atoms: C_2  and  C_3
REMARK    3  A    between atoms: C_8  and  N_9
REMARK    4  A    between atoms: C_10  and  C_12
REMARK    5  A    between atoms: C_12  and  N_13
REMARK    6  A    between atoms: N_13  and  C_14
REMARK    7  A    between atoms: N_13  and  C_15
REMARK    8  A    between atoms: C_15  and  C_17
REMARK    9  A    between atoms: C_15  and  C_18
REMARK   10  A    between atoms: N_20  and  C_21
REMARK   11  A    between atoms: C_22  and  C_31
REMARK   12  A    between atoms: C_23  and  C_30
REMARK   13  A    between atoms: C_26  and  N_27
REMARK                            x       y       z     vdW  Elec       q    Type
REMARK                         _______ _______ _______ _____ _____    ______ ____
ROOT
ATOM      1  C   UNL     1       7.841  -0.755   2.357  0.00  0.00    +0.017 C 
ATOM      2  C   UNL     1       9.225  -0.372   2.885  0.00  0.00    -0.004 C 
ENDROOT
BRANCH   1   3
ATOM      3  C   UNL     1       7.235  -1.805   3.252  0.00  0.00    +0.203 C 
ATOM      4  O   UNL     1       7.131  -2.949   2.861  0.00  0.00    -0.277 OA
ATOM      5  N   UNL     1       6.808  -1.474   4.487  0.00  0.00    -0.285 N 
ATOM      6  H   UNL     1       6.861  -0.553   4.788  0.00  0.00    +0.155 HD
BRANCH   5   7
ATOM      7  C   UNL     1       6.288  -2.458   5.335  0.00  0.00    +0.067 A 
ATOM      8  C   UNL     1       5.196  -3.217   4.934  0.00  0.00    -0.024 A 
ATOM      9  C   UNL     1       4.686  -4.187   5.773  0.00  0.00    -0.046 A 
ATOM     10  C   UNL     1       5.261  -4.404   7.012  0.00  0.00    +0.006 A 
ATOM     11  C   UNL     1       6.347  -3.650   7.415  0.00  0.00    +0.035 A 
ATOM     12  C   UNL     1       6.866  -2.682   6.577  0.00  0.00    +0.148 A 
ATOM     13  C   UNL     1       3.501  -5.011   5.339  0.00  0.00    +0.044 C 
ATOM     14  C   UNL     1       4.569  -2.981   3.584  0.00  0.00    +0.046 C 
BRANCH  12  15
ATOM     15  N   UNL     1       8.034  -1.880   7.007  0.00  0.00    +0.058 N 
ATOM     16  O   UNL     1       8.593  -2.135   8.048  0.00  0.00    -0.126 OA
ATOM     17  O   UNL     1       8.429  -0.970   6.316  0.00  0.00    -0.126 OA
ENDBRANCH  12  15
ENDBRANCH   5   7
ENDBRANCH   1   3
BRANCH   1  18
ATOM     18  N   UNL     1       7.967  -1.287   0.994  0.00  0.00    +0.391 N 
ATOM     19  C   UNL     1       8.644  -0.299   0.144  0.00  0.00    -0.094 C 
ATOM     20  H   UNL     1       8.507  -2.139   1.014  0.00  0.00    -0.080 HD
BRANCH  18  21
ATOM     21  C   UNL     1       6.631  -1.566   0.452  0.00  0.00    +0.020 C 
BRANCH  21  23
ATOM     22  N   UNL     1       5.660  -2.636  -1.556  0.00  0.00    -0.287 N 
ATOM     23  C   UNL     1       6.763  -2.277  -0.870  0.00  0.00    +0.201 C 
ATOM     24  O   UNL     1       7.863  -2.527  -1.317  0.00  0.00    -0.278 OA
ATOM     25  H   UNL     1       4.783  -2.376  -1.234  0.00  0.00    +0.155 HD
BRANCH  22  31
ATOM     26  C   UNL     1       4.814  -4.324  -3.062  0.00  0.00    -0.026 A 
ATOM     27  C   UNL     1       4.933  -5.056  -4.228  0.00  0.00    +0.005 A 
ATOM     28  C   UNL     1       6.015  -4.856  -5.064  0.00  0.00    +0.000 A 
ATOM     29  C   UNL     1       6.982  -3.922  -4.737  0.00  0.00    +0.002 A 
ATOM     30  C   UNL     1       6.869  -3.187  -3.574  0.00  0.00    +0.023 A 
ATOM     31  C   UNL     1       5.780  -3.383  -2.733  0.00  0.00    +0.036 A 
BRANCH  26  33
ATOM     32  C   UNL     1       2.541  -3.523  -2.478  0.00  0.00    +0.009 C 
ATOM     33  C   UNL     1       3.634  -4.543  -2.151  0.00  0.00    +0.033 C 
ENDBRANCH  26  33
ENDBRANCH  22  31
ENDBRANCH  21  23
ENDBRANCH  18  21
ENDBRANCH   1  18
TORSDOF 8
