REMARK  Name = ZINC38582740
REMARK  7 active torsions:
REMARK  status: ('A' for Active; 'I' for Inactive)
REMARK    1  A    between atoms: C_1  and  C_2
REMARK    2  A    between atoms: C_2  and  C_31
REMARK    3  A    between atoms: C_3  and  N_20
REMARK    4  A    between atoms: N_5  and  N_9
REMARK    5  A    between atoms: C_10  and  C_11
REMARK    6  A    between atoms: N_20  and  O_30
REMARK    7  A    between atoms: N_23  and  C_24
REMARK                            x       y       z     vdW  Elec       q    Type
REMARK                         _______ _______ _______ _____ _____    ______ ____
ROOT
ATOM      1  C   UNL     1       0.657   1.899   0.236  0.00  0.00    +0.026 C 
ATOM      2  C   UNL     1       0.084   0.487   0.104  0.00  0.00    +0.056 C 
ATOM      3  C   UNL     1       0.620  -0.229  -1.163  0.00  0.00    +0.232 C 
ATOM      4  N   UNL     1       1.809  -1.008  -0.867  0.00  0.00    -0.187 N 
ATOM      5  C   UNL     1       2.073  -1.377   0.402  0.00  0.00    +0.132 C 
ATOM      6  S   UNL     1       3.375  -2.341   0.954  0.00  0.00    -0.026 S 
ATOM      7  S   UNL     1       0.773  -0.645   1.384  0.00  0.00    -0.091 S 
ATOM      8  C   UNL     1      -1.446   0.504   0.135  0.00  0.00    +0.026 C 
ENDROOT
BRANCH   3   9
ATOM      9  N   UNL     1      -0.417  -1.121  -1.686  0.00  0.00    -0.143 N 
ATOM     10  C   UNL     1      -0.679  -1.149  -3.008  0.00  0.00    +0.327 C 
ATOM     11  O   UNL     1       0.009  -0.506  -3.777  0.00  0.00    -0.250 OA
ATOM     12  N   UNL     1      -1.702  -1.890  -3.477  0.00  0.00    -0.295 N 
ATOM     13  H   UNL     1      -2.296  -2.343  -2.858  0.00  0.00    +0.151 HD
BRANCH  12  14
ATOM     14  C   UNL     1      -1.918  -2.010  -4.921  0.00  0.00    +0.074 C 
ATOM     15  C   UNL     1      -1.042  -3.135  -5.475  0.00  0.00    +0.022 C 
ATOM     16  C   UNL     1      -1.267  -3.261  -6.983  0.00  0.00    +0.002 C 
ATOM     17  C   UNL     1      -2.739  -3.580  -7.254  0.00  0.00    +0.000 C 
ATOM     18  C   UNL     1      -3.615  -2.455  -6.700  0.00  0.00    +0.002 C 
ATOM     19  C   UNL     1      -3.390  -2.329  -5.192  0.00  0.00    +0.022 C 
ENDBRANCH  12  14
BRANCH   9  20
ATOM     20  O   UNL     1      -1.146  -1.954  -0.802  0.00  0.00    -0.289 OA
ATOM     21  H   UNL     1      -1.754  -2.561  -1.246  0.00  0.00    +0.242 HD
ENDBRANCH   9  20
ENDBRANCH   3   9
BRANCH   4  22
ATOM     22  N   UNL     1       2.681  -1.375  -1.899  0.00  0.00    -0.185 NA
ATOM     23  C   UNL     1       3.277  -0.453  -2.614  0.00  0.00    +0.136 C 
BRANCH  23  24
ATOM     24  C   UNL     1       4.227  -0.817  -3.576  0.00  0.00    +0.000 C 
ATOM     25  C   UNL     1       4.951   0.034  -4.410  0.00  0.00    +0.004 A 
ATOM     26  C   UNL     1       4.971   1.438  -4.555  0.00  0.00    +0.010 A 
ATOM     27  C   UNL     1       5.795   2.009  -5.470  0.00  0.00    +0.001 A 
ATOM     28  C   UNL     1       6.634   1.240  -6.280  0.00  0.00    +0.002 A 
ATOM     29  C   UNL     1       6.668  -0.112  -6.195  0.00  0.00    +0.026 A 
ATOM     30  C   UNL     1       5.834  -0.782  -5.261  0.00  0.00    +0.043 A 
ATOM     31  N   UNL     1       5.682  -2.061  -4.989  0.00  0.00    -0.380 N 
ATOM     32  C   UNL     1       4.687  -2.215  -3.924  0.00  0.00    +0.150 C 
ATOM     33  H   UNL     1       6.158  -2.788  -5.422  0.00  0.00    +0.160 HD
ENDBRANCH  23  24
ENDBRANCH   4  22
TORSDOF 5
