REMARK  Name = ZINC03850988
REMARK  8 active torsions:
REMARK  status: ('A' for Active; 'I' for Inactive)
REMARK    1  A    between atoms: C_4  and  C_7
REMARK    2  A    between atoms: C_7  and  C_9
REMARK    3  A    between atoms: C_7  and  N_46
REMARK    4  A    between atoms: C_9  and  C_11
REMARK    5  A    between atoms: C_9  and  N_17
REMARK    6  A    between atoms: N_17  and  S_18
REMARK    7  A    between atoms: S_18  and  C_21
REMARK    8  A    between atoms: C_24  and  O_27
REMARK                            x       y       z     vdW  Elec       q    Type
REMARK                         _______ _______ _______ _____ _____    ______ ____
ROOT
ATOM      1  C   UNL     1       3.969   2.665  -1.444  0.00  0.00    +0.096 C 
ENDROOT
BRANCH   1   2
ATOM      2  C   UNL     1       4.207   1.477  -2.339  0.00  0.00    -0.030 A 
ATOM      3  C   UNL     1       5.437   0.847  -2.339  0.00  0.00    +0.005 A 
ATOM      4  C   UNL     1       5.654  -0.246  -3.157  0.00  0.00    +0.000 A 
ATOM      5  C   UNL     1       4.644  -0.703  -3.982  0.00  0.00    +0.000 A 
ATOM      6  C   UNL     1       3.415  -0.070  -3.986  0.00  0.00    +0.000 A 
ATOM      7  C   UNL     1       3.196   1.020  -3.165  0.00  0.00    +0.005 A 
ENDBRANCH   1   2
BRANCH   1   8
ATOM      8  N   UNL     1       5.162   3.514  -1.432  0.00  0.00    -0.184 NA
ATOM      9  H   UNL     1       5.891   3.318  -0.822  0.00  0.00    +0.149 HD
BRANCH   8  10
ATOM     10  S   UNL     1       5.268   4.809  -2.459  0.00  0.00    +0.059 S 
ATOM     11  O   UNL     1       6.513   5.439  -2.191  0.00  0.00    -0.153 OA
ATOM     12  O   UNL     1       4.918   4.332  -3.751  0.00  0.00    -0.153 OA
BRANCH  10  13
ATOM     13  C   UNL     1       4.013   5.952  -1.987  0.00  0.00    +0.105 A 
ATOM     14  C   UNL     1       2.756   5.871  -2.556  0.00  0.00    +0.032 A 
ATOM     15  C   UNL     1       1.769   6.763  -2.184  0.00  0.00    +0.047 A 
ATOM     16  C   UNL     1       2.044   7.748  -1.246  0.00  0.00    +0.117 A 
ATOM     17  C   UNL     1       3.308   7.831  -0.680  0.00  0.00    +0.047 A 
ATOM     18  C   UNL     1       4.290   6.933  -1.052  0.00  0.00    +0.032 A 
BRANCH  16  19
ATOM     19  O   UNL     1       1.076   8.630  -0.882  0.00  0.00    -0.507 OA
ATOM     20  H   UNL     1       1.049   9.431  -1.423  0.00  0.00    +0.292 HD
ENDBRANCH  16  19
ENDBRANCH  10  13
ENDBRANCH   8  10
ENDBRANCH   1   8
BRANCH   1  21
ATOM     21  C   UNL     1       3.672   2.182  -0.023  0.00  0.00    -0.021 C 
BRANCH  21  25
ATOM     22  C   UNL     1       0.002  -0.004   0.002  0.00  0.00    +0.000 A 
ATOM     23  C   UNL     1      -0.017   1.378   0.010  0.00  0.00    +0.000 A 
ATOM     24  C   UNL     1       1.171   2.086   0.002  0.00  0.00    +0.002 A 
ATOM     25  C   UNL     1       2.377   1.411  -0.015  0.00  0.00    -0.060 A 
ATOM     26  C   UNL     1       2.396   0.029  -0.022  0.00  0.00    +0.002 A 
ATOM     27  C   UNL     1       1.208  -0.679  -0.013  0.00  0.00    +0.000 A 
ENDBRANCH  21  25
BRANCH  21  30
ATOM     28  H   UNL     1       4.434   3.837   0.936  0.00  0.00    -0.089 HD
ATOM     29  H   UNL     1       2.814   3.954   0.580  0.00  0.00    -0.089 HD
ATOM     30  N   UNL     1       3.553   3.328   0.896  0.00  0.00    +0.384 N 
ATOM     31  H   UNL     1       3.321   2.984   1.835  0.00  0.00    -0.089 HD
ENDBRANCH  21  30
ENDBRANCH   1  21
TORSDOF 8
