REMARK  Name = ZINC08531711
REMARK  8 active torsions:
REMARK  status: ('A' for Active; 'I' for Inactive)
REMARK    1  A    between atoms: C_1  and  C_2
REMARK    2  A    between atoms: C_2  and  C_4
REMARK    3  A    between atoms: C_2  and  N_37
REMARK    4  A    between atoms: C_12  and  C_14
REMARK    5  A    between atoms: C_12  and  C_15
REMARK    6  A    between atoms: C_12  and  N_37
REMARK    7  A    between atoms: N_17  and  C_18
REMARK    8  A    between atoms: C_19  and  C_23
REMARK                            x       y       z     vdW  Elec       q    Type
REMARK                         _______ _______ _______ _____ _____    ______ ____
ROOT
ATOM      1  C   UNL     1       0.169  -0.139  -0.246  0.00  0.00    +0.014 C 
ATOM      2  C   UNL     1       0.305   1.361  -0.520  0.00  0.00    -0.004 C 
ENDROOT
BRANCH   1   3
ATOM      3  C   UNL     1       1.030  -0.514   0.933  0.00  0.00    +0.203 C 
ATOM      4  O   UNL     1       0.524  -0.999   1.923  0.00  0.00    -0.277 OA
ATOM      5  N   UNL     1       2.361  -0.311   0.887  0.00  0.00    -0.280 N 
ATOM      6  H   UNL     1       2.765   0.077   0.095  0.00  0.00    +0.155 HD
BRANCH   5   7
ATOM      7  C   UNL     1       3.154  -0.657   1.972  0.00  0.00    +0.089 A 
ATOM      8  C   UNL     1       4.530  -0.531   2.111  0.00  0.00    +0.080 A 
ATOM      9  C   UNL     1       5.100  -0.972   3.361  0.00  0.00    +0.028 A 
ATOM     10  C   UNL     1       4.254  -1.474   4.279  0.00  0.00    +0.048 A 
ATOM     11  S   UNL     1       2.667  -1.357   3.480  0.00  0.00    -0.081 S 
BRANCH   8  12
ATOM     12  C   UNL     1       5.343   0.013   1.065  0.00  0.00    +0.102 C 
ATOM     13  N   UNL     1       5.988   0.445   0.235  0.00  0.00    -0.191 NA
ENDBRANCH   8  12
ENDBRANCH   5   7
ENDBRANCH   1   3
BRANCH   1  14
ATOM     14  N   UNL     1      -1.238  -0.458   0.060  0.00  0.00    +0.391 N 
ATOM     15  H   UNL     1      -1.275  -1.303   0.642  0.00  0.00    -0.084 HD
ATOM     16  H   UNL     1      -1.660   0.327   0.571  0.00  0.00    -0.084 HD
BRANCH  14  18
ATOM     17  C   UNL     1      -3.489  -0.530  -0.902  0.00  0.00    -0.009 C 
ATOM     18  C   UNL     1      -1.994  -0.690  -1.185  0.00  0.00    -0.042 C 
BRANCH  18  19
ATOM     19  C   UNL     1      -1.723  -2.085  -1.685  0.00  0.00    -0.043 A 
ATOM     20  C   UNL     1      -1.356  -3.079  -0.797  0.00  0.00    +0.005 A 
ATOM     21  C   UNL     1      -1.113  -4.360  -1.255  0.00  0.00    +0.020 A 
ATOM     22  C   UNL     1      -1.226  -4.646  -2.604  0.00  0.00    +0.042 A 
ATOM     23  C   UNL     1      -1.588  -3.651  -3.494  0.00  0.00    +0.040 A 
ATOM     24  C   UNL     1      -1.837  -2.370  -3.034  0.00  0.00    +0.044 A 
ATOM     25 CL   UNL     1      -2.291  -1.121  -4.151  0.00  0.00    -0.083 Cl
ATOM     26 CL   UNL     1      -0.915  -6.255  -3.179  0.00  0.00    -0.083 Cl
ENDBRANCH  18  19
ENDBRANCH  14  18
ENDBRANCH   1  14
TORSDOF 6
