REMARK  Name = ZINC06271152
REMARK  8 active torsions:
REMARK  status: ('A' for Active; 'I' for Inactive)
REMARK    1  A    between atoms: C_1  and  C_2
REMARK    2  A    between atoms: C_2  and  O_3
REMARK    3  A    between atoms: O_3  and  C_4
REMARK    4  A    between atoms: C_9  and  N_10
REMARK    5  A    between atoms: C_11  and  C_13
REMARK    6  A    between atoms: C_15  and  C_20
REMARK    7  A    between atoms: C_20  and  C_22
REMARK    8  A    between atoms: C_27  and  O_28
REMARK                            x       y       z     vdW  Elec       q    Type
REMARK                         _______ _______ _______ _____ _____    ______ ____
ROOT
ATOM      1  C   UNL     1       2.925  -1.292   5.471  0.00  0.00    +0.097 A 
ATOM      2  C   UNL     1       3.532  -1.826   6.601  0.00  0.00    +0.033 A 
ATOM      3  C   UNL     1       4.134  -0.932   7.519  0.00  0.00    +0.058 A 
ATOM      4  C   UNL     1       3.935   0.428   7.397  0.00  0.00    +0.209 A 
ATOM      5  O   UNL     1       3.131   0.919   6.441  0.00  0.00    -0.446 OA
ATOM      6  C   UNL     1       2.993   0.177   5.309  0.00  0.00    +0.204 A 
ATOM      7  N   UNL     1       2.919   0.736   4.130  0.00  0.00    -0.369 N 
ATOM      8  H   UNL     1       2.914   0.185   3.331  0.00  0.00    +0.159 HD
ATOM      9  H   UNL     1       2.869   1.701   4.053  0.00  0.00    +0.159 HD
ENDROOT
BRANCH   1  11
ATOM     10  N   UNL     1       1.580  -1.588   3.456  0.00  0.00    -0.278 N 
ATOM     11  C   UNL     1       2.253  -2.146   4.481  0.00  0.00    +0.253 C 
ATOM     12  O   UNL     1       2.305  -3.357   4.588  0.00  0.00    -0.270 OA
ATOM     13  H   UNL     1       1.555  -0.623   3.360  0.00  0.00    +0.155 HD
BRANCH  10  19
ATOM     14  C   UNL     1      -0.111  -1.875   1.748  0.00  0.00    +0.142 A 
ATOM     15  C   UNL     1      -0.761  -2.683   0.829  0.00  0.00    +0.047 A 
ATOM     16  C   UNL     1      -0.395  -4.009   0.693  0.00  0.00    +0.004 A 
ATOM     17  C   UNL     1       0.619  -4.534   1.473  0.00  0.00    +0.002 A 
ATOM     18  C   UNL     1       1.272  -3.735   2.392  0.00  0.00    +0.027 A 
ATOM     19  C   UNL     1       0.915  -2.401   2.530  0.00  0.00    +0.076 A 
BRANCH  14  20
ATOM     20  O   UNL     1      -0.470  -0.570   1.883  0.00  0.00    -0.490 OA
BRANCH  20  22
ATOM     21  C   UNL     1      -1.791   1.379   1.340  0.00  0.00    +0.048 C 
ATOM     22  C   UNL     1      -1.530  -0.100   1.048  0.00  0.00    +0.226 C 
ENDBRANCH  20  22
ENDBRANCH  14  20
ENDBRANCH  10  19
ENDBRANCH   1  11
BRANCH   3  23
ATOM     23  C   UNL     1       4.976  -1.456   8.610  0.00  0.00    +0.200 C 
ATOM     24  O   UNL     1       5.559  -0.687   9.351  0.00  0.00    -0.286 OA
BRANCH  23  25
ATOM     25  C   UNL     1       5.112  -2.912   8.802  0.00  0.00    +0.065 A 
ATOM     26  C   UNL     1       4.410  -3.554   9.826  0.00  0.00    +0.030 A 
ATOM     27  C   UNL     1       4.542  -4.915  10.000  0.00  0.00    +0.019 A 
ATOM     28  C   UNL     1       5.369  -5.650   9.164  0.00  0.00    +0.019 A 
ATOM     29  C   UNL     1       6.068  -5.027   8.150  0.00  0.00    +0.047 A 
ATOM     30  C   UNL     1       5.942  -3.660   7.956  0.00  0.00    +0.128 A 
ATOM     31 BR   UNL     1       3.591  -5.783  11.385  0.00  0.00    -0.050 Br
BRANCH  30  32
ATOM     32  O   UNL     1       6.625  -3.048   6.955  0.00  0.00    -0.506 OA
ATOM     33  H   UNL     1       7.503  -2.735   7.212  0.00  0.00    +0.292 HD
ENDBRANCH  30  32
ENDBRANCH  23  25
ENDBRANCH   3  23
TORSDOF 7
