REMARK  Name = ZINC02433785
REMARK  10 active torsions:
REMARK  status: ('A' for Active; 'I' for Inactive)
REMARK    1  A    between atoms: C_1  and  C_2
REMARK    2  A    between atoms: C_2  and  O_3
REMARK    3  A    between atoms: O_3  and  C_4
REMARK    4  A    between atoms: C_11  and  C_24
REMARK    5  A    between atoms: C_12  and  N_23
REMARK    6  A    between atoms: C_19  and  C_21
REMARK    7  A    between atoms: C_19  and  C_22
REMARK    8  A    between atoms: C_29  and  C_33
REMARK    9  A    between atoms: C_29  and  C_34
REMARK   10  A    between atoms: C_31  and  C_32
REMARK                            x       y       z     vdW  Elec       q    Type
REMARK                         _______ _______ _______ _____ _____    ______ ____
ROOT
ATOM      1  C   UNL     1      -1.227   1.751   0.017  0.00  0.00    +0.121 A 
ATOM      2  C   UNL     1      -0.013   1.076   0.008  0.00  0.00    +0.055 A 
ATOM      3  C   UNL     1       1.179   1.781   0.000  0.00  0.00    +0.003 A 
ATOM      4  C   UNL     1       1.085   3.186   0.007  0.00  0.00    +0.050 A 
ATOM      5  C   UNL     1      -0.128   3.855   0.023  0.00  0.00    +0.003 A 
ATOM      6  C   UNL     1      -1.312   3.148   0.032  0.00  0.00    +0.052 A 
ATOM      7  C   UNL     1       0.231   5.305   0.025  0.00  0.00    +0.145 C 
ATOM      8  C   UNL     1      -0.302   5.998  -1.195  0.00  0.00    +0.110 C 
ATOM      9  C   UNL     1      -1.370   6.827  -1.096  0.00  0.00    +0.199 C 
ATOM     10  O   UNL     1      -1.979   7.044   0.080  0.00  0.00    -0.445 OA
ATOM     11  C   UNL     1      -1.328   6.804   1.234  0.00  0.00    +0.116 C 
ATOM     12  C   UNL     1      -0.262   5.982   1.278  0.00  0.00    +0.058 C 
ATOM     13  C   UNL     1       0.421   5.735   2.484  0.00  0.00    +0.165 C 
ATOM     14  O   UNL     1       1.363   4.969   2.489  0.00  0.00    -0.292 OA
ATOM     15  C   UNL     1       0.004   6.402   3.767  0.00  0.00    +0.086 C 
ATOM     16  C   UNL     1      -0.658   7.743   3.435  0.00  0.00    -0.021 C 
ATOM     17  C   UNL     1      -1.830   7.482   2.487  0.00  0.00    +0.081 C 
ATOM     18  C   UNL     1       0.357   8.666   2.758  0.00  0.00    +0.012 C 
ATOM     19  C   UNL     1      -1.171   8.397   4.720  0.00  0.00    +0.012 C 
ATOM     20  C   UNL     1       1.751   5.326   0.006  0.00  0.00    +0.241 C 
ATOM     21  O   UNL     1       2.454   6.314  -0.001  0.00  0.00    -0.273 OA
ATOM     22  N   UNL     1       2.175   4.048   0.000  0.00  0.00    -0.260 N 
ATOM     23  C   UNL     1       3.553   3.540  -0.013  0.00  0.00    +0.055 C 
ATOM     24  C   UNL     1       3.586   2.041  -0.021  0.00  0.00    +0.002 C 
ATOM     25  C   UNL     1       2.541   1.230  -0.015  0.00  0.00    -0.043 C 
ATOM     26  C   UNL     1       2.748  -0.263  -0.024  0.00  0.00    +0.044 C 
ATOM     27  C   UNL     1       4.286   4.050   1.228  0.00  0.00    +0.036 C 
ATOM     28  C   UNL     1       4.264   4.061  -1.263  0.00  0.00    +0.036 C 
ENDROOT
BRANCH   9  29
ATOM     29  N   UNL     1      -1.838   7.458  -2.221  0.00  0.00    -0.328 N 
ATOM     30  H   UNL     1      -1.406   7.309  -3.076  0.00  0.00    +0.145 HD
ATOM     31  H   UNL     1      -2.602   8.054  -2.162  0.00  0.00    +0.145 HD
ENDBRANCH   9  29
BRANCH   8  32
ATOM     32  C   UNL     1       0.320   5.782  -2.467  0.00  0.00    +0.102 C 
ATOM     33  N   UNL     1       0.812   5.611  -3.476  0.00  0.00    -0.191 NA
ENDBRANCH   8  32
BRANCH   1  34
ATOM     34  O   UNL     1      -2.378   1.026   0.019  0.00  0.00    -0.492 OA
BRANCH  34  36
ATOM     35  C   UNL     1      -3.639  -1.035   0.013  0.00  0.00    +0.048 C 
ATOM     36  C   UNL     1      -2.248  -0.397   0.010  0.00  0.00    +0.225 C 
ENDBRANCH  34  36
ENDBRANCH   1  34
TORSDOF 4
