REMARK  Name = ZINC47549944
REMARK  8 active torsions:
REMARK  status: ('A' for Active; 'I' for Inactive)
REMARK    1  A    between atoms: C_2  and  C_3
REMARK    2  A    between atoms: C_3  and  N_4
REMARK    3  A    between atoms: N_4  and  C_5
REMARK    4  A    between atoms: N_4  and  C_15
REMARK    5  A    between atoms: C_5  and  C_6
REMARK    6  A    between atoms: N_11  and  C_12
REMARK    7  A    between atoms: C_15  and  C_16
REMARK    8  A    between atoms: N_21  and  C_22
REMARK                            x       y       z     vdW  Elec       q    Type
REMARK                         _______ _______ _______ _____ _____    ______ ____
ROOT
ATOM      1  N   UNL     1       1.594  -1.761   1.095  0.00  0.00    +0.393 N 
ATOM      2  H   UNL     1       1.513  -1.163   1.903  0.00  0.00    -0.080 HD
ENDROOT
BRANCH   1   3
ATOM      3  C   UNL     1       1.574  -0.941  -0.124  0.00  0.00    -0.050 C 
BRANCH   3   5
ATOM      4  C   UNL     1       0.470   1.233  -0.250  0.00  0.00    +0.002 C 
ATOM      5  C   UNL     1       0.348  -0.065  -0.121  0.00  0.00    -0.053 C 
ENDBRANCH   3   5
ENDBRANCH   1   3
BRANCH   1   6
ATOM      6  C   UNL     1       0.468  -2.705   1.068  0.00  0.00    +0.020 C 
BRANCH   6   7
ATOM      7  C   UNL     1       0.392  -3.433   2.386  0.00  0.00    +0.204 C 
ATOM      8  O   UNL     1       1.128  -3.118   3.296  0.00  0.00    -0.277 OA
ATOM      9  N   UNL     1      -0.494  -4.435   2.552  0.00  0.00    -0.242 N 
ATOM     10  C   UNL     1      -0.562  -5.086   3.730  0.00  0.00    +0.306 C 
ATOM     11  O   UNL     1       0.175  -4.770   4.642  0.00  0.00    -0.252 OA
ATOM     12  N   UNL     1      -1.449  -6.088   3.896  0.00  0.00    -0.296 N 
ATOM     13  H   UNL     1      -1.083  -4.687   1.823  0.00  0.00    +0.159 HD
ATOM     14  H   UNL     1      -2.037  -6.340   3.167  0.00  0.00    +0.151 HD
BRANCH  12  15
ATOM     15  C   UNL     1      -1.522  -6.795   5.176  0.00  0.00    +0.075 C 
ATOM     16  C   UNL     1      -1.637  -8.321   5.135  0.00  0.00    +0.024 C 
ATOM     17  C   UNL     1      -2.847  -7.473   5.533  0.00  0.00    +0.024 C 
ENDBRANCH  12  15
ENDBRANCH   6   7
ENDBRANCH   1   6
BRANCH   1  18
ATOM     18  C   UNL     1       2.857  -2.508   1.163  0.00  0.00    +0.020 C 
BRANCH  18  19
ATOM     19  C   UNL     1       4.004  -1.542   1.313  0.00  0.00    +0.204 C 
ATOM     20  O   UNL     1       3.790  -0.350   1.360  0.00  0.00    -0.277 OA
ATOM     21  N   UNL     1       5.267  -2.004   1.396  0.00  0.00    -0.242 N 
ATOM     22  C   UNL     1       6.293  -1.140   1.531  0.00  0.00    +0.306 C 
ATOM     23  O   UNL     1       6.079   0.055   1.578  0.00  0.00    -0.252 OA
ATOM     24  N   UNL     1       7.557  -1.602   1.615  0.00  0.00    -0.296 N 
ATOM     25  H   UNL     1       5.438  -2.958   1.359  0.00  0.00    +0.159 HD
ATOM     26  H   UNL     1       7.728  -2.556   1.577  0.00  0.00    +0.151 HD
BRANCH  24  27
ATOM     27  C   UNL     1       8.672  -0.663   1.761  0.00  0.00    +0.075 C 
ATOM     28  C   UNL     1       9.921  -0.912   0.913  0.00  0.00    +0.024 C 
ATOM     29  C   UNL     1       9.951  -1.183   2.419  0.00  0.00    +0.024 C 
ENDBRANCH  24  27
ENDBRANCH  18  19
ENDBRANCH   1  18
TORSDOF 8
