REMARK  Name = ZINC65526164
REMARK  7 active torsions:
REMARK  status: ('A' for Active; 'I' for Inactive)
REMARK    1  A    between atoms: C_1  and  C_2
REMARK    2  A    between atoms: C_2  and  C_3
REMARK    3  A    between atoms: C_2  and  C_4
REMARK    4  A    between atoms: C_7  and  C_17
REMARK    5  A    between atoms: N_9  and  C_11
REMARK    6  A    between atoms: C_24  and  O_29
REMARK    7  A    between atoms: O_29  and  C_30
REMARK                            x       y       z     vdW  Elec       q    Type
REMARK                         _______ _______ _______ _____ _____    ______ ____
ROOT
ATOM      1  C   UNL     1      -1.087  -0.844   0.201  0.00  0.00    +0.021 C 
ATOM      2  N   UNL     1      -1.300  -2.299  -0.038  0.00  0.00    +0.406 N 
ATOM      3  C   UNL     1      -1.524  -2.356  -1.504  0.00  0.00    +0.072 C 
ATOM      4  N   UNL     1      -1.946  -1.004  -1.906  0.00  0.00    -0.278 N 
ATOM      5  N   UNL     1      -2.011  -0.215  -0.776  0.00  0.00    -0.255 NA
ATOM      6  H   UNL     1      -0.481  -2.828   0.220  0.00  0.00    -0.080 HD
ATOM      7  H   UNL     1      -2.952  -0.181  -0.413  0.00  0.00    +0.142 HD
ATOM      8  H   UNL     1      -2.113  -2.627   0.461  0.00  0.00    -0.080 HD
ENDROOT
BRANCH   3   9
ATOM      9  C   UNL     1      -2.607  -3.354  -1.824  0.00  0.00    +0.020 A 
ATOM     10  H   UNL     1      -5.764  -3.424  -2.519  0.00  0.00    +0.165 HD
ATOM     11  C   UNL     1      -3.865  -2.930  -2.063  0.00  0.00    +0.090 A 
ATOM     12  N   UNL     1      -4.877  -3.782  -2.356  0.00  0.00    -0.360 N 
ATOM     13  C   UNL     1      -4.678  -5.144  -2.426  0.00  0.00    +0.050 A 
ATOM     14  C   UNL     1      -5.727  -6.008  -2.728  0.00  0.00    +0.030 A 
ATOM     15  C   UNL     1      -5.503  -7.364  -2.793  0.00  0.00    +0.047 A 
ATOM     16  C   UNL     1      -4.233  -7.886  -2.560  0.00  0.00    +0.121 A 
ATOM     17  C   UNL     1      -3.179  -7.045  -2.259  0.00  0.00    +0.059 A 
ATOM     18  C   UNL     1      -3.396  -5.669  -2.191  0.00  0.00    +0.049 A 
ATOM     19  C   UNL     1      -2.300  -4.734  -1.879  0.00  0.00    +0.193 A 
ATOM     20  O   UNL     1      -1.168  -5.137  -1.671  0.00  0.00    -0.287 OA
BRANCH  16  21
ATOM     21  O   UNL     1      -4.030  -9.229  -2.627  0.00  0.00    -0.495 OA
ATOM     22  C   UNL     1      -5.162 -10.041  -2.942  0.00  0.00    +0.277 C 
ENDBRANCH  16  21
ENDBRANCH   3   9
BRANCH   4  23
ATOM     23  C   UNL     1      -2.229  -0.590  -3.209  0.00  0.00    +0.043 A 
ATOM     24  C   UNL     1      -2.005  -1.449  -4.277  0.00  0.00    +0.024 A 
ATOM     25  C   UNL     1      -2.287  -1.036  -5.564  0.00  0.00    +0.002 A 
ATOM     26  C   UNL     1      -2.792   0.231  -5.791  0.00  0.00    +0.000 A 
ATOM     27  C   UNL     1      -3.017   1.089  -4.730  0.00  0.00    +0.002 A 
ATOM     28  C   UNL     1      -2.742   0.681  -3.439  0.00  0.00    +0.024 A 
ENDBRANCH   4  23
BRANCH   1  30
ATOM     29  C   UNL     1       0.532   1.056   0.097  0.00  0.00    +0.007 C 
ATOM     30  C   UNL     1       0.363  -0.453  -0.093  0.00  0.00    -0.016 C 
ATOM     31  C   UNL     1       1.296  -1.196   0.865  0.00  0.00    +0.007 C 
ENDBRANCH   1  30
TORSDOF 4
