REMARK  Name = ZINC52502424
REMARK  11 active torsions:
REMARK  status: ('A' for Active; 'I' for Inactive)
REMARK    1  A    between atoms: C_1  and  C_2
REMARK    2  A    between atoms: C_7  and  C_9
REMARK    3  A    between atoms: C_7  and  N_27
REMARK    4  A    between atoms: C_9  and  N_10
REMARK    5  A    between atoms: N_13  and  C_14
REMARK    6  A    between atoms: C_14  and  C_16
REMARK    7  A    between atoms: C_14  and  C_17
REMARK    8  A    between atoms: C_21  and  S_23
REMARK    9  A    between atoms: S_23  and  N_26
REMARK   10  A    between atoms: N_27  and  C_28
REMARK   11  A    between atoms: N_27  and  C_29
REMARK                            x       y       z     vdW  Elec       q    Type
REMARK                         _______ _______ _______ _____ _____    ______ ____
ROOT
ATOM      1  N   UNL     1       1.149  -4.115   2.383  0.00  0.00    -0.301 N 
ATOM      2  C   UNL     1       1.601  -4.886   3.392  0.00  0.00    +0.300 C 
ATOM      3  O   UNL     1       2.207  -4.381   4.318  0.00  0.00    -0.253 OA
ATOM      4  N   UNL     1       1.381  -6.215   3.375  0.00  0.00    -0.293 N 
ATOM      5  H   UNL     1       0.666  -4.517   1.644  0.00  0.00    +0.150 HD
ATOM      6  H   UNL     1       0.898  -6.618   2.636  0.00  0.00    +0.151 HD
ENDROOT
BRANCH   4   7
ATOM      7  C   UNL     1       1.873  -7.053   4.472  0.00  0.00    +0.102 C 
ATOM      8  C   UNL     1       0.854  -7.048   5.614  0.00  0.00    +0.033 C 
BRANCH   7   9
ATOM      9  C   UNL     1       2.067  -8.464   3.979  0.00  0.00    -0.026 A 
ATOM     10  C   UNL     1       1.149  -9.024   3.110  0.00  0.00    +0.005 A 
ATOM     11  C   UNL     1       1.327 -10.318   2.657  0.00  0.00    +0.002 A 
ATOM     12  C   UNL     1       2.423 -11.052   3.073  0.00  0.00    +0.028 A 
ATOM     13  C   UNL     1       3.341 -10.491   3.942  0.00  0.00    +0.105 A 
ATOM     14  C   UNL     1       3.165  -9.195   4.391  0.00  0.00    +0.034 A 
BRANCH  13  15
ATOM     15  S   UNL     1       4.737 -11.425   4.472  0.00  0.00    +0.056 S 
ATOM     16  O   UNL     1       5.154 -10.865   5.710  0.00  0.00    -0.153 OA
ATOM     17  O   UNL     1       4.384 -12.795   4.337  0.00  0.00    -0.153 OA
BRANCH  15  18
ATOM     18  N   UNL     1       5.957 -11.141   3.389  0.00  0.00    -0.204 NA
ATOM     19  H   UNL     1       6.882 -11.175   3.680  0.00  0.00    +0.144 HD
ATOM     20  H   UNL     1       5.747 -10.941   2.464  0.00  0.00    +0.144 HD
ENDBRANCH  15  18
ENDBRANCH  13  15
ENDBRANCH   7   9
ENDBRANCH   4   7
BRANCH   1  21
ATOM     21  C   UNL     1       1.388  -2.670   2.401  0.00  0.00    +0.094 C 
BRANCH  21  27
ATOM     22  C   UNL     1       1.111  -2.509  -2.585  0.00  0.00    +0.007 C 
ATOM     23  C   UNL     1       0.543  -1.940  -1.284  0.00  0.00    -0.015 C 
ATOM     24  C   UNL     1      -0.957  -2.236  -1.210  0.00  0.00    +0.003 C 
ATOM     25  C   UNL     1      -1.525  -1.667   0.092  0.00  0.00    -0.001 C 
ATOM     26  C   UNL     1      -0.819  -2.316   1.283  0.00  0.00    -0.010 C 
ATOM     27  C   UNL     1       0.681  -2.021   1.210  0.00  0.00    -0.050 C 
ATOM     28  C   UNL     1       1.250  -2.589  -0.092  0.00  0.00    -0.007 C 
BRANCH  27  29
ATOM     29  N   UNL     1       0.896  -0.568   1.245  0.00  0.00    +0.381 N 
ATOM     30  C   UNL     1       0.328  -0.019   2.483  0.00  0.00    -0.096 C 
ATOM     31  C   UNL     1       2.337  -0.285   1.199  0.00  0.00    -0.096 C 
ATOM     32  H   UNL     1       0.444  -0.142   0.449  0.00  0.00    -0.082 HD
ENDBRANCH  27  29
ENDBRANCH  21  27
ENDBRANCH   1  21
TORSDOF 7
