REMARK  Name = ZINC21262999
REMARK  11 active torsions:
REMARK  status: ('A' for Active; 'I' for Inactive)
REMARK    1  A    between atoms: C_1  and  C_2
REMARK    2  A    between atoms: C_2  and  C_29
REMARK    3  A    between atoms: C_4  and  N_10
REMARK    4  A    between atoms: C_6  and  C_8
REMARK    5  A    between atoms: C_6  and  C_9
REMARK    6  A    between atoms: N_10  and  C_11
REMARK    7  A    between atoms: C_11  and  N_13
REMARK    8  A    between atoms: N_13  and  C_14
REMARK    9  A    between atoms: N_13  and  C_20
REMARK   10  A    between atoms: C_14  and  C_15
REMARK   11  A    between atoms: C_20  and  C_21
REMARK                            x       y       z     vdW  Elec       q    Type
REMARK                         _______ _______ _______ _____ _____    ______ ____
ROOT
ATOM      1  C   UNL     1       0.921   3.985  -4.226  0.00  0.00    +0.134 C 
ATOM      2  S   UNL     1       0.128   5.112  -3.212  0.00  0.00    -0.019 S 
ENDROOT
BRANCH   1   3
ATOM      3  N   UNL     1       1.236   2.761  -3.757  0.00  0.00    -0.324 N 
ATOM      4  H   UNL     1       1.746   2.037  -4.409  0.00  0.00    +0.148 HD
BRANCH   3   8
ATOM      5  C   UNL     1      -2.206   0.606  -1.000  0.00  0.00    -0.010 C 
ATOM      6  C   UNL     1      -0.897   1.424  -0.914  0.00  0.00    -0.072 C 
ATOM      7  C   UNL     1      -0.527   1.847  -2.333  0.00  0.00    +0.009 C 
ATOM      8  C   UNL     1       0.899   2.395  -2.376  0.00  0.00    +0.069 C 
ATOM      9  C   UNL     1       1.851   1.297  -1.900  0.00  0.00    +0.009 C 
ATOM     10  C   UNL     1       1.516   0.905  -0.461  0.00  0.00    -0.072 C 
ATOM     11  N   UNL     1       0.111   0.596  -0.286  0.00  0.00    +0.386 N 
ATOM     12  C   UNL     1       1.970   2.011   0.496  0.00  0.00    -0.010 C 
ATOM     13  C   UNL     1       2.334  -0.361  -0.123  0.00  0.00    -0.010 C 
ATOM     14  C   UNL     1      -1.197   2.669  -0.070  0.00  0.00    -0.010 C 
ATOM     15  H   UNL     1      -0.030   0.610   0.805  0.00  0.00    -0.084 HD
ATOM     16  H   UNL     1       0.019  -0.437  -0.654  0.00  0.00    -0.084 HD
ENDBRANCH   3   8
ENDBRANCH   1   3
BRANCH   1  17
ATOM     17  N   UNL     1       1.230   4.320  -5.494  0.00  0.00    -0.301 N 
BRANCH  17  18
ATOM     18  C   UNL     1       1.985   3.388  -6.335  0.00  0.00    +0.181 C 
BRANCH  18  19
ATOM     19  C   UNL     1       1.038   2.400  -6.966  0.00  0.00    +0.122 A 
ATOM     20  C   UNL     1       0.343   2.592  -8.102  0.00  0.00    +0.046 A 
ATOM     21  C   UNL     1      -0.414   1.418  -8.322  0.00  0.00    +0.041 A 
ATOM     22  C   UNL     1      -0.136   0.579  -7.308  0.00  0.00    +0.195 A 
ATOM     23  O   UNL     1       0.748   1.177  -6.492  0.00  0.00    -0.466 OA
ENDBRANCH  18  19
ENDBRANCH  17  18
BRANCH  17  24
ATOM     24  C   UNL     1       0.812   5.617  -6.032  0.00  0.00    +0.145 C 
BRANCH  24  25
ATOM     25  C   UNL     1       2.019   6.503  -6.203  0.00  0.00    +0.006 A 
ATOM     26  C   UNL     1       2.435   7.315  -5.163  0.00  0.00    +0.047 A 
ATOM     27  C   UNL     1       3.546   8.125  -5.319  0.00  0.00    +0.020 A 
ATOM     28  C   UNL     1       4.235   8.130  -6.517  0.00  0.00    +0.003 A 
ATOM     29  C   UNL     1       3.817   7.323  -7.559  0.00  0.00    +0.020 A 
ATOM     30  C   UNL     1       2.709   6.509  -7.402  0.00  0.00    +0.047 A 
ATOM     31 CL   UNL     1       2.184   5.496  -8.710  0.00  0.00    -0.083 Cl
ATOM     32 CL   UNL     1       1.566   7.314  -3.660  0.00  0.00    -0.083 Cl
ENDBRANCH  24  25
ENDBRANCH  17  24
ENDBRANCH   1  17
TORSDOF 7
