REMARK  Name = ZINC08635285
REMARK  7 active torsions:
REMARK  status: ('A' for Active; 'I' for Inactive)
REMARK    1  A    between atoms: C_1  and  C_2
REMARK    2  A    between atoms: C_2  and  C_4
REMARK    3  A    between atoms: C_7  and  N_10
REMARK    4  A    between atoms: N_13  and  C_14
REMARK    5  A    between atoms: C_14  and  C_15
REMARK    6  A    between atoms: C_23  and  C_25
REMARK    7  A    between atoms: C_25  and  N_62
REMARK                            x       y       z     vdW  Elec       q    Type
REMARK                         _______ _______ _______ _____ _____    ______ ____
ROOT
ATOM      1  C   UNL     1       0.021   5.459   5.317  0.00  0.00    -0.051 C 
ATOM      2  C   UNL     1      -1.507   5.291   5.335  0.00  0.00    -0.010 C 
ATOM      3  C   UNL     1      -1.843   3.812   5.109  0.00  0.00    -0.015 C 
ATOM      4  C   UNL     1      -1.183   2.987   6.220  0.00  0.00    -0.015 C 
ATOM      5  C   UNL     1       0.331   3.217   6.178  0.00  0.00    -0.078 C 
ATOM      6  C   UNL     1       0.261   3.596   3.786  0.00  0.00    -0.076 C 
ATOM      7  C   UNL     1      -1.255   3.377   3.761  0.00  0.00    -0.041 C 
ATOM      8  N   UNL     1       0.680   4.155   5.090  0.00  0.00    +0.383 N 
ATOM      9  H   UNL     1       1.697   4.293   5.082  0.00  0.00    -0.081 HD
ENDROOT
BRANCH   1  10
ATOM     10  C   UNL     1       0.417   6.418   4.193  0.00  0.00    +0.090 C 
BRANCH  10  14
ATOM     11  N   UNL     1       3.802   7.329   3.083  0.00  0.00    -0.269 N 
ATOM     12  C   UNL     1       2.458   7.270   3.171  0.00  0.00    +0.304 C 
ATOM     13  O   UNL     1       1.770   7.928   2.414  0.00  0.00    -0.253 OA
ATOM     14  N   UNL     1       1.877   6.482   4.097  0.00  0.00    -0.301 N 
ATOM     15  H   UNL     1       4.351   6.866   3.735  0.00  0.00    +0.156 HD
ATOM     16  H   UNL     1       2.426   5.958   4.701  0.00  0.00    +0.150 HD
BRANCH  11  20
ATOM     17  C   UNL     1       5.591   9.494   0.021  0.00  0.00    +0.017 A 
ATOM     18  C   UNL     1       4.377   8.834  -0.203  0.00  0.00    +0.013 A 
ATOM     19  C   UNL     1       3.792   8.124   0.807  0.00  0.00    +0.024 A 
ATOM     20  C   UNL     1       4.402   8.055   2.057  0.00  0.00    +0.035 A 
ATOM     21  C   UNL     1       5.606   8.714   2.285  0.00  0.00    +0.024 A 
ATOM     22  C   UNL     1       6.201   9.423   1.280  0.00  0.00    +0.013 A 
BRANCH  17  24
ATOM     23  C   UNL     1       7.531  10.968  -0.819  0.00  0.00    +0.091 C 
ATOM     24  C   UNL     1       6.224  10.259  -1.062  0.00  0.00    +0.160 C 
ATOM     25  O   UNL     1       5.695  10.319  -2.151  0.00  0.00    -0.292 OA
ENDBRANCH  17  24
ENDBRANCH  11  20
ENDBRANCH  10  14
ENDBRANCH   1  10
BRANCH   7  26
ATOM     26  C   UNL     1      -1.875   4.211   2.638  0.00  0.00    -0.077 C 
BRANCH  26  32
ATOM     27  C   UNL     1      -1.473   2.251   1.272  0.00  0.00    -0.050 C 
ATOM     28  C   UNL     1      -0.911   1.777  -0.070  0.00  0.00    +0.141 C 
ATOM     29  O   UNL     1      -1.631   2.407  -1.133  0.00  0.00    -0.383 OA
ATOM     30  C   UNL     1      -1.574   3.836  -1.098  0.00  0.00    +0.141 C 
ATOM     31  C   UNL     1      -2.144   4.331   0.234  0.00  0.00    -0.050 C 
ATOM     32  N   UNL     1      -1.369   3.724   1.336  0.00  0.00    +0.383 N 
ATOM     33  H   UNL     1      -0.383   3.994   1.239  0.00  0.00    -0.082 HD
ENDBRANCH  26  32
ENDBRANCH   7  26
TORSDOF 6
