REMARK  Name = ZINC57354756
REMARK  11 active torsions:
REMARK  status: ('A' for Active; 'I' for Inactive)
REMARK    1  A    between atoms: C_1  and  C_2
REMARK    2  A    between atoms: C_2  and  C_3
REMARK    3  A    between atoms: C_8  and  N_9
REMARK    4  A    between atoms: C_10  and  C_12
REMARK    5  A    between atoms: C_12  and  N_13
REMARK    6  A    between atoms: C_14  and  N_33
REMARK    7  A    between atoms: C_15  and  C_21
REMARK    8  A    between atoms: N_18  and  C_19
REMARK    9  A    between atoms: C_19  and  C_20
REMARK   10  A    between atoms: C_23  and  C_26
REMARK   11  A    between atoms: C_31  and  C_32
REMARK                            x       y       z     vdW  Elec       q    Type
REMARK                         _______ _______ _______ _____ _____    ______ ____
ROOT
ATOM      1  N   UNL     1      -2.119  -0.533  -6.283  0.00  0.00    -0.262 N 
ATOM      2  C   UNL     1      -3.072   0.288  -6.770  0.00  0.00    +0.127 A 
ATOM      3  C   UNL     1      -3.832  -0.451  -7.671  0.00  0.00    +0.117 A 
ATOM      4  C   UNL     1      -3.286  -1.759  -7.699  0.00  0.00    +0.127 A 
ATOM      5  N   UNL     1      -2.269  -1.792  -6.876  0.00  0.00    -0.282 N 
ATOM      6  N   UNL     1      -3.748  -2.825  -8.473  0.00  0.00    -0.329 N 
ATOM      7  H   UNL     1      -4.511  -2.703  -9.060  0.00  0.00    +0.147 HD
ATOM      8  H   UNL     1      -1.709  -2.565  -6.703  0.00  0.00    +0.188 HD
ENDROOT
BRANCH   3   9
ATOM      9  C   UNL     1      -4.983   0.033  -8.446  0.00  0.00    +0.265 A 
ATOM     10  N   UNL     1      -5.478   1.253  -8.415  0.00  0.00    -0.187 NA
ATOM     11  C   UNL     1      -6.526   1.342  -9.249  0.00  0.00    +0.203 A 
ATOM     12  N   UNL     1      -6.712   0.177  -9.822  0.00  0.00    -0.056 NA
ATOM     13  O   UNL     1      -5.711  -0.692  -9.316  0.00  0.00    -0.332 OA
BRANCH  11  14
ATOM     14  C   UNL     1      -7.341   2.559  -9.483  0.00  0.00    +0.025 A 
ATOM     15  C   UNL     1      -7.654   2.952 -10.783  0.00  0.00    +0.012 A 
ATOM     16  C   UNL     1      -8.414   4.085 -10.995  0.00  0.00    +0.001 A 
ATOM     17  C   UNL     1      -8.863   4.830  -9.920  0.00  0.00    +0.000 A 
ATOM     18  C   UNL     1      -8.555   4.446  -8.628  0.00  0.00    +0.004 A 
ATOM     19  C   UNL     1      -7.801   3.311  -8.404  0.00  0.00    -0.040 A 
ATOM     20  C   UNL     1      -7.471   2.889  -6.995  0.00  0.00    +0.044 C 
ENDBRANCH  11  14
ENDBRANCH   3   9
BRANCH   2  21
ATOM     21  N   UNL     1      -3.257   1.617  -6.437  0.00  0.00    -0.343 N 
ATOM     22  H   UNL     1      -2.669   2.042  -5.793  0.00  0.00    +0.144 HD
ATOM     23  H   UNL     1      -3.976   2.124  -6.846  0.00  0.00    +0.144 HD
ENDBRANCH   2  21
BRANCH   6  24
ATOM     24  C   UNL     1      -3.082  -4.128  -8.399  0.00  0.00    +0.099 C 
ATOM     25  C   UNL     1      -3.781  -5.112  -9.339  0.00  0.00    +0.024 C 
ENDBRANCH   6  24
BRANCH   1  26
ATOM     26  C   UNL     1      -1.096  -0.168  -5.300  0.00  0.00    +0.239 C 
BRANCH  26  28
ATOM     27  N   UNL     1      -0.889  -0.035  -2.839  0.00  0.00    -0.284 N 
ATOM     28  C   UNL     1      -1.657  -0.318  -3.910  0.00  0.00    +0.239 C 
ATOM     29  O   UNL     1      -2.800  -0.695  -3.755  0.00  0.00    -0.273 OA
ATOM     30  H   UNL     1       0.000   0.331  -2.963  0.00  0.00    +0.155 HD
BRANCH  27  36
ATOM     31  C   UNL     1      -0.496  -0.568  -0.516  0.00  0.00    -0.026 A 
ATOM     32  C   UNL     1      -0.979  -0.793   0.758  0.00  0.00    +0.005 A 
ATOM     33  C   UNL     1      -2.337  -0.727   1.006  0.00  0.00    +0.000 A 
ATOM     34  C   UNL     1      -3.217  -0.434  -0.021  0.00  0.00    +0.002 A 
ATOM     35  C   UNL     1      -2.740  -0.208  -1.297  0.00  0.00    +0.023 A 
ATOM     36  C   UNL     1      -1.376  -0.269  -1.548  0.00  0.00    +0.037 A 
BRANCH  31  38
ATOM     37  C   UNL     1       1.589   0.763  -0.697  0.00  0.00    +0.009 C 
ATOM     38  C   UNL     1       0.985  -0.640  -0.786  0.00  0.00    +0.033 C 
ENDBRANCH  31  38
ENDBRANCH  27  36
ENDBRANCH  26  28
ENDBRANCH   1  26
TORSDOF 8
