REMARK  Name = ZINC32948066
REMARK  10 active torsions:
REMARK  status: ('A' for Active; 'I' for Inactive)
REMARK    1  A    between atoms: C_1  and  O_2
REMARK    2  A    between atoms: O_2  and  C_3
REMARK    3  A    between atoms: C_6  and  C_13
REMARK    4  A    between atoms: C_7  and  O_11
REMARK    5  A    between atoms: C_8  and  O_9
REMARK    6  A    between atoms: O_9  and  C_10
REMARK    7  A    between atoms: O_11  and  C_12
REMARK    8  A    between atoms: C_13  and  C_15
REMARK    9  A    between atoms: C_16  and  N_28
REMARK   10  A    between atoms: N_20  and  C_21
REMARK                            x       y       z     vdW  Elec       q    Type
REMARK                         _______ _______ _______ _____ _____    ______ ____
ROOT
ATOM      1  C   UNL     1       0.416  -3.198  -2.753  0.00  0.00    +0.102 A 
ATOM      2  C   UNL     1       0.503  -3.782  -4.024  0.00  0.00    +0.136 A 
ATOM      3  N   UNL     1       0.311  -5.077  -4.107  0.00  0.00    -0.210 NA
ATOM      4  C   UNL     1       0.035  -5.807  -3.037  0.00  0.00    +0.165 A 
ATOM      5  S   UNL     1       0.038  -4.633  -1.758  0.00  0.00    -0.047 S 
ATOM      6  N   UNL     1      -0.196  -7.163  -2.959  0.00  0.00    -0.294 N 
ATOM      7  H   UNL     1      -0.506  -7.614  -2.005  0.00  0.00    +0.154 HD
ENDROOT
BRANCH   6   8
ATOM      8  C   UNL     1      -0.037  -7.966  -4.093  0.00  0.00    +0.034 A 
ATOM      9  C   UNL     1      -0.730  -9.166  -4.198  0.00  0.00    +0.023 A 
ATOM     10  C   UNL     1      -0.575  -9.954  -5.322  0.00  0.00    +0.003 A 
ATOM     11  C   UNL     1       0.276  -9.556  -6.336  0.00  0.00    +0.015 A 
ATOM     12  C   UNL     1       0.972  -8.364  -6.232  0.00  0.00    +0.020 A 
ATOM     13  C   UNL     1       0.817  -7.568  -5.113  0.00  0.00    +0.038 A 
ATOM     14 BR   UNL     1       2.134  -7.824  -7.622  0.00  0.00    -0.050 Br
ENDBRANCH   6   8
BRANCH   2  15
ATOM     15  N   UNL     1       0.784  -3.021  -5.149  0.00  0.00    -0.342 N 
ATOM     16  H   UNL     1       0.846  -3.502  -6.137  0.00  0.00    +0.144 HD
ATOM     17  H   UNL     1       0.944  -1.937  -5.054  0.00  0.00    +0.144 HD
ENDBRANCH   2  15
BRANCH   1  18
ATOM     18  C   UNL     1       0.577  -1.852  -2.368  0.00  0.00    +0.207 C 
ATOM     19  O   UNL     1       0.696  -0.985  -3.217  0.00  0.00    -0.286 OA
BRANCH  18  23
ATOM     20  C   UNL     1       0.651  -0.822   1.758  0.00  0.00    +0.165 A 
ATOM     21  C   UNL     1       0.643  -2.158   1.373  0.00  0.00    +0.050 A 
ATOM     22  C   UNL     1       0.620  -2.495   0.038  0.00  0.00    +0.019 A 
ATOM     23  C   UNL     1       0.603  -1.493  -0.936  0.00  0.00    +0.068 A 
ATOM     24  C   UNL     1       0.606  -0.146  -0.550  0.00  0.00    +0.176 A 
ATOM     25  C   UNL     1       0.635   0.184   0.798  0.00  0.00    +0.204 A 
BRANCH  20  27
ATOM     26  C   UNL     1       0.689  -1.580   4.011  0.00  0.00    +0.277 C 
ATOM     27  O   UNL     1       0.674  -0.498   3.077  0.00  0.00    -0.491 OA
ENDBRANCH  20  27
BRANCH  25  28
ATOM     28  O   UNL     1       0.641   1.490   1.180  0.00  0.00    -0.488 OA
ATOM     29  C   UNL     1       1.916   2.086   1.432  0.00  0.00    +0.277 C 
ENDBRANCH  25  28
BRANCH  24  30
ATOM     30  O   UNL     1       0.585   0.834  -1.491  0.00  0.00    -0.491 OA
ATOM     31  C   UNL     1      -0.698   1.304  -1.909  0.00  0.00    +0.277 C 
ENDBRANCH  24  30
ENDBRANCH  18  23
ENDBRANCH   1  18
TORSDOF 7
