REMARK  Name = ZINC12699229
REMARK  9 active torsions:
REMARK  status: ('A' for Active; 'I' for Inactive)
REMARK    1  A    between atoms: C_1  and  C_2
REMARK    2  A    between atoms: C_2  and  O_3
REMARK    3  A    between atoms: O_3  and  C_4
REMARK    4  A    between atoms: C_7  and  O_10
REMARK    5  A    between atoms: O_10  and  C_11
REMARK    6  A    between atoms: C_14  and  N_17
REMARK    7  A    between atoms: C_18  and  C_20
REMARK    8  A    between atoms: C_20  and  N_56
REMARK    9  A    between atoms: C_25  and  C_27
REMARK                            x       y       z     vdW  Elec       q    Type
REMARK                         _______ _______ _______ _____ _____    ______ ____
ROOT
ATOM      1  N   UNL     1      -1.985   4.263  -3.832  0.00  0.00    -0.287 N 
ATOM      2  C   UNL     1      -2.307   3.358  -4.777  0.00  0.00    +0.201 C 
ATOM      3  O   UNL     1      -2.201   3.643  -5.952  0.00  0.00    -0.278 OA
ATOM      4  H   UNL     1      -2.006   4.015  -2.895  0.00  0.00    +0.155 HD
ENDROOT
BRANCH   1   8
ATOM      5  C   UNL     1      -0.897   8.134  -4.937  0.00  0.00    +0.129 A 
ATOM      6  C   UNL     1      -1.851   7.445  -5.673  0.00  0.00    +0.048 A 
ATOM      7  C   UNL     1      -2.211   6.164  -5.307  0.00  0.00    +0.027 A 
ATOM      8  C   UNL     1      -1.619   5.564  -4.204  0.00  0.00    +0.034 A 
ATOM      9  C   UNL     1      -0.668   6.256  -3.465  0.00  0.00    +0.027 A 
ATOM     10  C   UNL     1      -0.304   7.535  -3.835  0.00  0.00    +0.048 A 
BRANCH   5  11
ATOM     11  O   UNL     1      -0.543   9.396  -5.297  0.00  0.00    -0.456 OA
BRANCH  11  15
ATOM     12  C   UNL     1       2.554  11.200  -3.249  0.00  0.00    +0.121 A 
ATOM     13  C   UNL     1       2.827  10.247  -4.219  0.00  0.00    +0.049 A 
ATOM     14  C   UNL     1       1.791   9.643  -4.905  0.00  0.00    +0.050 A 
ATOM     15  C   UNL     1       0.477   9.990  -4.622  0.00  0.00    +0.129 A 
ATOM     16  C   UNL     1       0.205  10.947  -3.655  0.00  0.00    +0.050 A 
ATOM     17  C   UNL     1       1.241  11.546  -2.966  0.00  0.00    +0.049 A 
BRANCH  12  18
ATOM     18  O   UNL     1       3.574  11.794  -2.574  0.00  0.00    -0.492 OA
BRANCH  18  20
ATOM     19  C   UNL     1       4.491  13.320  -0.940  0.00  0.00    +0.048 C 
ATOM     20  C   UNL     1       3.221  12.766  -1.588  0.00  0.00    +0.225 C 
ENDBRANCH  18  20
ENDBRANCH  12  18
ENDBRANCH  11  15
ENDBRANCH   5  11
ENDBRANCH   1   8
BRANCH   2  21
ATOM     21  C   UNL     1      -2.800   1.992  -4.375  0.00  0.00    +0.020 C 
BRANCH  21  27
ATOM     22  C   UNL     1      -3.975   1.675  -6.468  0.00  0.00    -0.077 C 
ATOM     23  C   UNL     1      -4.192   0.698  -7.626  0.00  0.00    -0.019 C 
ATOM     24  C   UNL     1      -2.877   0.516  -8.388  0.00  0.00    -0.003 C 
ATOM     25  C   UNL     1      -1.801   0.015  -7.420  0.00  0.00    -0.006 C 
ATOM     26  C   UNL     1      -1.653   1.011  -6.268  0.00  0.00    +0.020 C 
ATOM     27  N   UNL     1      -2.947   1.123  -5.561  0.00  0.00    +0.393 N 
ATOM     28  H   UNL     1      -3.240   0.188  -5.254  0.00  0.00    -0.080 HD
BRANCH  26  29
ATOM     29  C   UNL     1      -0.609   0.511  -5.302  0.00  0.00    +0.197 C 
ATOM     30  O   UNL     1      -0.934  -0.192  -4.369  0.00  0.00    -0.278 OA
ATOM     31  N   UNL     1       0.685   0.846  -5.476  0.00  0.00    -0.331 N 
ATOM     32  H   UNL     1       0.944   1.408  -6.223  0.00  0.00    +0.145 HD
ATOM     33  H   UNL     1       1.356   0.524  -4.855  0.00  0.00    +0.145 HD
ENDBRANCH  26  29
ENDBRANCH  21  27
ENDBRANCH   2  21
TORSDOF 8
