REMARK  Name = ZINC01431240
REMARK  16 active torsions:
REMARK  status: ('A' for Active; 'I' for Inactive)
REMARK    1  A    between atoms: C_1  and  C_2
REMARK    2  A    between atoms: C_3  and  C_35
REMARK    3  A    between atoms: C_4  and  C_23
REMARK    4  A    between atoms: C_10  and  C_15
REMARK    5  A    between atoms: C_20  and  O_21
REMARK    6  A    between atoms: O_21  and  C_22
REMARK    7  A    between atoms: C_25  and  O_33
REMARK    8  A    between atoms: C_26  and  O_31
REMARK    9  A    between atoms: C_27  and  O_29
REMARK   10  A    between atoms: O_29  and  C_30
REMARK   11  A    between atoms: O_31  and  C_32
REMARK   12  A    between atoms: O_33  and  C_34
REMARK   13  A    between atoms: C_35  and  O_37
REMARK   14  A    between atoms: O_37  and  C_38
REMARK   15  A    between atoms: C_38  and  C_39
REMARK   16  A    between atoms: C_38  and  C_40
REMARK                            x       y       z     vdW  Elec       q    Type
REMARK                         _______ _______ _______ _____ _____    ______ ____
ROOT
ATOM      1  C   UNL     1      -1.129   3.090  -3.105  0.00  0.00    +0.061 C 
ATOM      2  C   UNL     1      -0.336   2.622  -1.912  0.00  0.00    +0.016 C 
ATOM      3  C   UNL     1      -0.772   1.575  -1.190  0.00  0.00    +0.065 C 
ATOM      4  C   UNL     1      -0.013   1.086   0.008  0.00  0.00    +0.092 C 
ATOM      5  C   UNL     1       1.405   1.600  -0.003  0.00  0.00    +0.024 C 
ATOM      6  C   UNL     1       1.750   2.654  -0.773  0.00  0.00    +0.016 C 
ATOM      7  N   UNL     1       0.821   3.265  -1.571  0.00  0.00    -0.321 N 
ATOM      8  C   UNL     1       3.163   3.182  -0.779  0.00  0.00    +0.060 C 
ATOM      9  C   UNL     1       4.141   2.036  -0.510  0.00  0.00    +0.035 C 
ATOM     10  C   UNL     1       3.789   1.402   0.839  0.00  0.00    +0.088 C 
ATOM     11  C   UNL     1       2.353   0.953   0.808  0.00  0.00    +0.162 C 
ATOM     12  O   UNL     1       2.007   0.014   1.497  0.00  0.00    -0.292 OA
ATOM     13  H   UNL     1       1.012   4.284  -1.938  0.00  0.00    +0.152 HD
ENDROOT
BRANCH   9  14
ATOM     14  C   UNL     1       5.550   2.572  -0.470  0.00  0.00    -0.002 A 
ATOM     15  C   UNL     1       5.898   3.530   0.462  0.00  0.00    +0.007 A 
ATOM     16  C   UNL     1       7.190   4.021   0.500  0.00  0.00    +0.001 A 
ATOM     17  C   UNL     1       8.136   3.555  -0.395  0.00  0.00    +0.004 A 
ATOM     18  C   UNL     1       7.792   2.596  -1.328  0.00  0.00    +0.046 A 
ATOM     19  C   UNL     1       6.498   2.098  -1.365  0.00  0.00    +0.124 A 
BRANCH  19  20
ATOM     20  O   UNL     1       6.159   1.151  -2.279  0.00  0.00    -0.495 OA
ATOM     21  C   UNL     1       7.186   0.711  -3.168  0.00  0.00    +0.277 C 
ENDBRANCH  19  20
ENDBRANCH   9  14
BRANCH   4  22
ATOM     22  C   UNL     1      -0.703   1.564   1.259  0.00  0.00    -0.028 A 
ATOM     23  C   UNL     1      -0.841   2.919   1.495  0.00  0.00    +0.054 A 
ATOM     24  C   UNL     1      -1.480   3.364   2.643  0.00  0.00    +0.165 A 
ATOM     25  C   UNL     1      -1.974   2.445   3.561  0.00  0.00    +0.204 A 
ATOM     26  C   UNL     1      -1.829   1.083   3.322  0.00  0.00    +0.165 A 
ATOM     27  C   UNL     1      -1.193   0.647   2.170  0.00  0.00    +0.054 A 
BRANCH  26  28
ATOM     28  O   UNL     1      -2.309   0.180   4.219  0.00  0.00    -0.491 OA
ATOM     29  C   UNL     1      -2.124  -1.203   3.909  0.00  0.00    +0.277 C 
ENDBRANCH  26  28
BRANCH  25  30
ATOM     30  O   UNL     1      -2.596   2.877   4.691  0.00  0.00    -0.488 OA
ATOM     31  C   UNL     1      -1.776   3.095   5.841  0.00  0.00    +0.277 C 
ENDBRANCH  25  30
BRANCH  24  32
ATOM     32  O   UNL     1      -1.620   4.697   2.871  0.00  0.00    -0.491 OA
ATOM     33  C   UNL     1      -1.089   5.584   1.884  0.00  0.00    +0.277 C 
ENDBRANCH  24  32
ENDBRANCH   4  22
BRANCH   3  34
ATOM     34  C   UNL     1      -1.968   0.922  -1.568  0.00  0.00    +0.338 C 
ATOM     35  O   UNL     1      -2.593   1.309  -2.538  0.00  0.00    -0.245 OA
BRANCH  34  36
ATOM     36  O   UNL     1      -2.417  -0.131  -0.852  0.00  0.00    -0.459 OA
BRANCH  36  37
ATOM     37  C   UNL     1      -3.632  -0.743  -1.290  0.00  0.00    +0.171 C 
ATOM     38  C   UNL     1      -3.311  -1.856  -2.290  0.00  0.00    +0.052 C 
ATOM     39  C   UNL     1      -4.368  -1.335  -0.087  0.00  0.00    +0.052 C 
ENDBRANCH  36  37
ENDBRANCH  34  36
ENDBRANCH   3  34
TORSDOF 9
