REMARK  Name = ZINC35679326
REMARK  8 active torsions:
REMARK  status: ('A' for Active; 'I' for Inactive)
REMARK    1  A    between atoms: C_1  and  C_2
REMARK    2  A    between atoms: C_4  and  C_20
REMARK    3  A    between atoms: C_6  and  N_8
REMARK    4  A    between atoms: N_8  and  S_9
REMARK    5  A    between atoms: S_9  and  C_12
REMARK    6  A    between atoms: C_15  and  C_17
REMARK    7  A    between atoms: C_17  and  C_18
REMARK    8  A    between atoms: C_18  and  N_19
REMARK                            x       y       z     vdW  Elec       q    Type
REMARK                         _______ _______ _______ _____ _____    ______ ____
ROOT
ATOM      1  S   UNL     1       1.040  -2.209   3.582  0.00  0.00    +0.079 S 
ATOM      2  O   UNL     1       0.891  -3.077   4.698  0.00  0.00    -0.149 OA
ATOM      3  O   UNL     1       2.300  -1.957   2.976  0.00  0.00    -0.149 OA
ENDROOT
BRANCH   1   4
ATOM      4  C   UNL     1       0.394  -0.645   4.071  0.00  0.00    +0.146 A 
ATOM      5  C   UNL     1      -0.441  -0.349   5.098  0.00  0.00    +0.037 A 
ATOM      6  C   UNL     1      -0.821   0.965   5.296  0.00  0.00    +0.013 A 
ATOM      7  C   UNL     1      -0.347   1.920   4.458  0.00  0.00    -0.010 A 
ATOM      8  S   UNL     1       0.674   0.963   3.349  0.00  0.00    -0.073 S 
BRANCH   7   9
ATOM      9  C   UNL     1      -0.610   3.404   4.464  0.00  0.00    +0.023 C 
BRANCH   9  10
ATOM     10  C   UNL     1       0.438   4.103   5.333  0.00  0.00    -0.081 C 
BRANCH  10  11
ATOM     11  N   UNL     1       0.181   5.550   5.339  0.00  0.00    +0.378 N 
ATOM     12  H   UNL     1       0.235   5.905   4.396  0.00  0.00    -0.090 HD
ATOM     13  H   UNL     1      -0.739   5.727   5.713  0.00  0.00    -0.090 HD
ATOM     14  H   UNL     1       0.872   6.011   5.912  0.00  0.00    -0.090 HD
ENDBRANCH  10  11
ENDBRANCH   9  10
ENDBRANCH   7   9
ENDBRANCH   1   4
BRANCH   1  15
ATOM     15  N   UNL     1       0.051  -2.797   2.391  0.00  0.00    -0.216 N 
ATOM     16  H   UNL     1       0.406  -2.964   1.504  0.00  0.00    +0.174 HD
BRANCH  15  22
ATOM     17  C   UNL     1      -3.377  -4.729   5.336  0.00  0.00    +0.044 C 
ATOM     18  C   UNL     1      -2.986  -3.986   4.084  0.00  0.00    -0.048 A 
ATOM     19  C   UNL     1      -3.962  -3.556   3.204  0.00  0.00    +0.006 A 
ATOM     20  C   UNL     1      -3.608  -2.874   2.054  0.00  0.00    -0.048 A 
ATOM     21  C   UNL     1      -2.278  -2.621   1.781  0.00  0.00    +0.028 A 
ATOM     22  C   UNL     1      -1.295  -3.052   2.664  0.00  0.00    +0.049 A 
ATOM     23  C   UNL     1      -1.655  -3.732   3.821  0.00  0.00    +0.028 A 
ATOM     24  C   UNL     1      -4.674  -2.408   1.097  0.00  0.00    +0.044 C 
ENDBRANCH  15  22
ENDBRANCH   1  15
TORSDOF 6
