REMARK  Name = ZINC09114591
REMARK  8 active torsions:
REMARK  status: ('A' for Active; 'I' for Inactive)
REMARK    1  A    between atoms: C_1  and  C_2
REMARK    2  A    between atoms: C_2  and  C_4
REMARK    3  A    between atoms: C_2  and  N_49
REMARK    4  A    between atoms: N_6  and  C_7
REMARK    5  A    between atoms: C_8  and  C_12
REMARK    6  A    between atoms: C_18  and  C_20
REMARK    7  A    between atoms: C_23  and  O_26
REMARK    8  A    between atoms: O_26  and  C_27
REMARK                            x       y       z     vdW  Elec       q    Type
REMARK                         _______ _______ _______ _____ _____    ______ ____
ROOT
ATOM      1  C   UNL     1      -1.305   2.247  -0.893  0.00  0.00    -0.004 C 
ATOM      2  C   UNL     1      -0.019   1.668  -1.487  0.00  0.00    +0.017 C 
ENDROOT
BRANCH   2   7
ATOM      3  C   UNL     1       2.031   0.516  -0.876  0.00  0.00    -0.077 C 
ATOM      4  C   UNL     1       2.293  -0.926  -0.375  0.00  0.00    -0.020 C 
ATOM      5  C   UNL     1       0.926  -1.607  -0.652  0.00  0.00    -0.013 C 
ATOM      6  C   UNL     1      -0.088  -0.481  -0.362  0.00  0.00    -0.037 C 
ATOM      7  N   UNL     1       0.639   0.796  -0.478  0.00  0.00    +0.392 N 
ATOM      8  H   UNL     1       0.635   1.274   0.431  0.00  0.00    -0.080 HD
BRANCH   6   9
ATOM      9  C   UNL     1      -1.218  -0.540  -1.357  0.00  0.00    -0.061 A 
ATOM     10  C   UNL     1      -2.528  -0.471  -0.920  0.00  0.00    +0.005 A 
ATOM     11  C   UNL     1      -3.566  -0.519  -1.830  0.00  0.00    +0.046 A 
ATOM     12  C   UNL     1      -3.293  -0.649  -3.184  0.00  0.00    +0.120 A 
ATOM     13  C   UNL     1      -1.978  -0.724  -3.621  0.00  0.00    +0.046 A 
ATOM     14  C   UNL     1      -0.944  -0.670  -2.706  0.00  0.00    +0.005 A 
BRANCH  12  15
ATOM     15  O   UNL     1      -4.312  -0.703  -4.082  0.00  0.00    -0.495 OA
ATOM     16  C   UNL     1      -5.640  -0.620  -3.561  0.00  0.00    +0.277 C 
ENDBRANCH  12  15
ENDBRANCH   6   9
ENDBRANCH   2   7
BRANCH   2  17
ATOM     17  C   UNL     1       0.913   2.792  -1.858  0.00  0.00    +0.204 C 
ATOM     18  O   UNL     1       1.732   3.191  -1.057  0.00  0.00    -0.277 OA
ATOM     19  N   UNL     1       0.837   3.354  -3.081  0.00  0.00    -0.281 N 
ATOM     20  H   UNL     1       0.183   3.035  -3.722  0.00  0.00    +0.155 HD
BRANCH  19  21
ATOM     21  C   UNL     1       1.695   4.388  -3.423  0.00  0.00    +0.084 A 
ATOM     22  C   UNL     1       1.770   5.087  -4.622  0.00  0.00    +0.065 A 
ATOM     23  C   UNL     1       2.767   6.127  -4.706  0.00  0.00    +0.022 A 
ATOM     24  C   UNL     1       3.537   6.330  -3.621  0.00  0.00    +0.048 A 
ATOM     25  S   UNL     1       2.929   5.126  -2.458  0.00  0.00    -0.081 S 
BRANCH  22  26
ATOM     26  C   UNL     1       0.879   4.783  -5.746  0.00  0.00    +0.244 C 
ATOM     27  O   UNL     1       0.049   3.900  -5.643  0.00  0.00    -0.270 OA
ATOM     28  N   UNL     1       0.980   5.483  -6.894  0.00  0.00    -0.325 N 
ATOM     29  H   UNL     1       1.642   6.187  -6.976  0.00  0.00    +0.145 HD
ATOM     30  H   UNL     1       0.391   5.282  -7.638  0.00  0.00    +0.145 HD
ENDBRANCH  22  26
ENDBRANCH  19  21
ENDBRANCH   2  17
TORSDOF 6
