REMARK  Name = ZINC52907307
REMARK  10 active torsions:
REMARK  status: ('A' for Active; 'I' for Inactive)
REMARK    1  A    between atoms: C_1  and  C_2
REMARK    2  A    between atoms: C_5  and  C_8
REMARK    3  A    between atoms: C_8  and  C_10
REMARK    4  A    between atoms: C_8  and  N_11
REMARK    5  A    between atoms: N_11  and  C_12
REMARK    6  A    between atoms: N_11  and  C_13
REMARK    7  A    between atoms: C_13  and  C_14
REMARK    8  A    between atoms: N_16  and  C_17
REMARK    9  A    between atoms: C_20  and  S_23
REMARK   10  A    between atoms: S_23  and  N_26
REMARK                            x       y       z     vdW  Elec       q    Type
REMARK                         _______ _______ _______ _____ _____    ______ ____
ROOT
ATOM      1  C   UNL     1      -1.600  -6.770   2.200  0.00  0.00    +0.201 C 
ATOM      2  O   UNL     1      -2.128  -5.993   2.967  0.00  0.00    -0.278 OA
ATOM      3  N   UNL     1      -1.724  -8.098   2.394  0.00  0.00    -0.287 N 
ATOM      4  H   UNL     1      -1.360  -8.720   1.745  0.00  0.00    +0.155 HD
ENDROOT
BRANCH   3   5
ATOM      5  C   UNL     1      -2.380  -8.580   3.533  0.00  0.00    +0.033 A 
ATOM      6  C   UNL     1      -1.941  -9.746   4.147  0.00  0.00    +0.025 A 
ATOM      7  C   UNL     1      -2.590 -10.219   5.270  0.00  0.00    +0.030 A 
ATOM      8  C   UNL     1      -3.675  -9.533   5.784  0.00  0.00    +0.105 A 
ATOM      9  C   UNL     1      -4.115  -8.372   5.175  0.00  0.00    +0.030 A 
ATOM     10  C   UNL     1      -3.466  -7.891   4.055  0.00  0.00    +0.025 A 
BRANCH   8  11
ATOM     11  S   UNL     1      -4.500 -10.140   7.218  0.00  0.00    +0.056 S 
ATOM     12  O   UNL     1      -5.820  -9.616   7.179  0.00  0.00    -0.153 OA
ATOM     13  O   UNL     1      -4.236 -11.535   7.278  0.00  0.00    -0.153 OA
BRANCH  11  14
ATOM     14  N   UNL     1      -3.759  -9.461   8.534  0.00  0.00    -0.204 NA
ATOM     15  H   UNL     1      -3.014  -8.852   8.410  0.00  0.00    +0.144 HD
ATOM     16  H   UNL     1      -4.070  -9.672   9.428  0.00  0.00    +0.144 HD
ENDBRANCH  11  14
ENDBRANCH   8  11
ENDBRANCH   3   5
BRANCH   1  17
ATOM     17  C   UNL     1      -0.805  -6.251   1.030  0.00  0.00    +0.019 C 
BRANCH  17  18
ATOM     18  N   UNL     1      -0.821  -4.782   1.040  0.00  0.00    +0.388 N 
ATOM     19  C   UNL     1      -2.193  -4.306   0.820  0.00  0.00    -0.095 C 
ATOM     20  H   UNL     1      -0.488  -4.449   1.932  0.00  0.00    -0.081 HD
BRANCH  18  21
ATOM     21  C   UNL     1       0.051  -4.276  -0.029  0.00  0.00    -0.041 C 
ATOM     22  C   UNL     1       1.480  -4.772   0.200  0.00  0.00    -0.008 C 
BRANCH  21  27
ATOM     23  C   UNL     1      -0.014   1.502   0.011  0.00  0.00    +0.044 C 
ATOM     24  C   UNL     1       0.003  -0.005   0.001  0.00  0.00    -0.050 A 
ATOM     25  C   UNL     1      -0.003  -0.688  -1.201  0.00  0.00    +0.003 A 
ATOM     26  C   UNL     1       0.012  -2.070  -1.211  0.00  0.00    +0.002 A 
ATOM     27  C   UNL     1       0.035  -2.769  -0.018  0.00  0.00    -0.061 A 
ATOM     28  C   UNL     1       0.042  -2.086   1.183  0.00  0.00    +0.002 A 
ATOM     29  C   UNL     1       0.031  -0.704   1.193  0.00  0.00    +0.003 A 
ENDBRANCH  21  27
ENDBRANCH  18  21
ENDBRANCH  17  18
ENDBRANCH   1  17
TORSDOF 7
