REMARK  Name = ZINC13369897
REMARK  13 active torsions:
REMARK  status: ('A' for Active; 'I' for Inactive)
REMARK    1  A    between atoms: C_1  and  C_2
REMARK    2  A    between atoms: C_2  and  C_3
REMARK    3  A    between atoms: C_3  and  C_5
REMARK    4  A    between atoms: C_3  and  C_6
REMARK    5  A    between atoms: C_6  and  C_8
REMARK    6  A    between atoms: C_6  and  O_30
REMARK    7  A    between atoms: C_8  and  C_9
REMARK    8  A    between atoms: C_8  and  C_10
REMARK    9  A    between atoms: C_8  and  O_29
REMARK   10  A    between atoms: C_11  and  C_12
REMARK   11  A    between atoms: C_18  and  C_26
REMARK   12  A    between atoms: C_18  and  O_27
REMARK   13  A    between atoms: C_19  and  O_25
REMARK                            x       y       z     vdW  Elec       q    Type
REMARK                         _______ _______ _______ _____ _____    ______ ____
ROOT
ATOM      1  C   UNL     1       2.712  -6.253   1.891  0.00  0.00    +0.121 C 
ATOM      2  C   UNL     1       3.915  -6.923   1.852  0.00  0.00    +0.051 C 
ATOM      3  C   UNL     1       3.937  -8.316   1.718  0.00  0.00    -0.013 C 
ATOM      4  C   UNL     1       5.134  -8.989   1.649  0.00  0.00    +0.090 C 
ATOM      5  C   UNL     1       5.182 -10.373   1.480  0.00  0.00    +0.208 C 
ATOM      6  O   UNL     1       6.260 -10.934   1.430  0.00  0.00    -0.288 OA
ATOM      7  C   UNL     1       3.917 -11.181   1.359  0.00  0.00    +0.152 C 
ATOM      8  C   UNL     1       2.811 -10.305   0.761  0.00  0.00    +0.164 C 
ATOM      9  C   UNL     1       2.631  -9.070   1.645  0.00  0.00    +0.090 C 
ATOM     10  C   UNL     1       1.565  -8.149   1.042  0.00  0.00    +0.240 C 
ATOM     11  O   UNL     1       1.544  -6.929   1.796  0.00  0.00    -0.491 OA
ATOM     12  C   UNL     1       4.165 -12.385   0.448  0.00  0.00    +0.053 C 
ATOM     13 CL   UNL     1       6.618  -8.098   1.774  0.00  0.00    -0.080 Cl
ENDROOT
BRANCH   1  15
ATOM     14  C   UNL     1       1.536  -4.141   2.086  0.00  0.00    +0.013 C 
ATOM     15  C   UNL     1       2.697  -4.795   2.042  0.00  0.00    +0.044 C 
BRANCH  14  16
ATOM     16  C   UNL     1       1.521  -2.642   2.242  0.00  0.00    +0.108 C 
ATOM     17  C   UNL     1       0.769  -2.269   3.521  0.00  0.00    +0.048 C 
BRANCH  16  18
ATOM     18  O   UNL     1       2.863  -2.158   2.320  0.00  0.00    -0.382 OA
ATOM     19  H   UNL     1       3.399  -2.358   1.541  0.00  0.00    +0.211 HD
ENDBRANCH  16  18
BRANCH  16  20
ATOM     20  C   UNL     1       0.820  -2.011   1.036  0.00  0.00    +0.152 C 
BRANCH  20  21
ATOM     21  C   UNL     1       0.665  -0.506   1.267  0.00  0.00    +0.017 C 
ATOM     22  C   UNL     1      -0.178   0.097   0.142  0.00  0.00    +0.010 C 
BRANCH  21  24
ATOM     23  C   UNL     1       1.894   1.647   1.575  0.00  0.00    +0.004 C 
ATOM     24  C   UNL     1       2.045   0.153   1.280  0.00  0.00    +0.002 C 
ENDBRANCH  21  24
ENDBRANCH  20  21
BRANCH  20  25
ATOM     25  O   UNL     1      -0.469  -2.603   0.871  0.00  0.00    -0.388 OA
ATOM     26  H   UNL     1      -1.055  -2.491   1.633  0.00  0.00    +0.210 HD
ENDBRANCH  20  25
ENDBRANCH  16  20
ENDBRANCH  14  16
ENDBRANCH   1  15
BRANCH   8  27
ATOM     27  O   UNL     1       3.180  -9.904  -0.560  0.00  0.00    -0.388 OA
ATOM     28  H   UNL     1       3.321 -10.640  -1.170  0.00  0.00    +0.210 HD
ENDBRANCH   8  27
BRANCH   7  29
ATOM     29  O   UNL     1       3.517 -11.636   2.654  0.00  0.00    -0.378 OA
ATOM     30  H   UNL     1       4.171 -12.196   3.094  0.00  0.00    +0.211 HD
ENDBRANCH   7  29
TORSDOF 9
