REMARK  Name = ZINC39973199
REMARK  12 active torsions:
REMARK  status: ('A' for Active; 'I' for Inactive)
REMARK    1  A    between atoms: C_1  and  C_2
REMARK    2  A    between atoms: C_6  and  C_12
REMARK    3  A    between atoms: C_10  and  C_11
REMARK    4  A    between atoms: C_12  and  C_29
REMARK    5  A    between atoms: C_13  and  C_14
REMARK    6  A    between atoms: C_16  and  O_27
REMARK    7  A    between atoms: C_17  and  O_21
REMARK    8  A    between atoms: O_21  and  C_22
REMARK    9  A    between atoms: C_22  and  C_23
REMARK   10  A    between atoms: C_23  and  O_25
REMARK   11  A    between atoms: O_25  and  C_26
REMARK   12  A    between atoms: O_27  and  C_28
REMARK                            x       y       z     vdW  Elec       q    Type
REMARK                         _______ _______ _______ _____ _____    ______ ____
ROOT
ATOM      1  C   UNL     1      -1.187  -5.260  -1.800  0.00  0.00    +0.072 C 
ATOM      2  C   UNL     1      -1.049  -6.195  -2.764  0.00  0.00    +0.026 C 
ENDROOT
BRANCH   1   8
ATOM      3  C   UNL     1       0.629   0.512   1.695  0.00  0.00    +0.044 C 
ATOM      4  C   UNL     1       0.348  -0.938   1.395  0.00  0.00    -0.045 A 
ATOM      5  C   UNL     1       0.569  -1.395   0.147  0.00  0.00    +0.031 A 
ATOM      6  C   UNL     1       0.302  -2.806  -0.167  0.00  0.00    +0.061 A 
ATOM      7  N   UNL     1       0.419  -3.508  -1.256  0.00  0.00    -0.359 N 
ATOM      8  C   UNL     1      -0.006  -4.879  -0.945  0.00  0.00    +0.216 C 
ATOM      9  N   UNL     1      -0.388  -4.882   0.473  0.00  0.00    -0.359 N 
ATOM     10  C   UNL     1      -0.210  -3.676   0.928  0.00  0.00    +0.061 A 
ATOM     11  C   UNL     1      -0.413  -3.066   2.250  0.00  0.00    +0.031 A 
ATOM     12  C   UNL     1      -0.130  -1.761   2.431  0.00  0.00    -0.045 A 
ATOM     13  C   UNL     1      -0.341  -1.157   3.796  0.00  0.00    +0.044 C 
ATOM     14  H   UNL     1       0.731  -3.186  -2.116  0.00  0.00    +0.162 HD
ATOM     15  H   UNL     1      -0.714  -5.644   0.978  0.00  0.00    +0.162 HD
ENDBRANCH   1   8
BRANCH   2  16
ATOM     16  C   UNL     1       0.287  -6.707  -3.104  0.00  0.00    -0.019 A 
ATOM     17  C   UNL     1       0.459  -8.059  -3.424  0.00  0.00    +0.057 A 
ATOM     18  C   UNL     1       1.715  -8.535  -3.743  0.00  0.00    +0.163 A 
ATOM     19  C   UNL     1       2.809  -7.670  -3.746  0.00  0.00    +0.176 A 
ATOM     20  C   UNL     1       2.640  -6.330  -3.429  0.00  0.00    +0.059 A 
ATOM     21  C   UNL     1       1.388  -5.845  -3.115  0.00  0.00    +0.026 A 
ATOM     22  I   UNL     1       4.289  -5.038  -3.435  0.00  0.00    -0.040 I 
BRANCH  18  23
ATOM     23  O   UNL     1       1.886  -9.848  -4.055  0.00  0.00    -0.491 OA
ATOM     24  C   UNL     1       0.722 -10.677  -4.032  0.00  0.00    +0.277 C 
ENDBRANCH  18  23
BRANCH  19  25
ATOM     25  O   UNL     1       4.044  -8.142  -4.060  0.00  0.00    -0.476 OA
BRANCH  25  26
ATOM     26  C   UNL     1       4.423  -8.103  -5.437  0.00  0.00    +0.349 C 
BRANCH  26  27
ATOM     27  C   UNL     1       5.814  -8.662  -5.592  0.00  0.00    +0.345 C 
ATOM     28  O   UNL     1       6.419  -9.053  -4.622  0.00  0.00    -0.247 OA
BRANCH  27  29
ATOM     29  O   UNL     1       6.380  -8.726  -6.807  0.00  0.00    -0.466 OA
ATOM     30  C   UNL     1       7.701  -9.267  -6.879  0.00  0.00    +0.280 C 
ENDBRANCH  27  29
ENDBRANCH  26  27
ENDBRANCH  25  26
ENDBRANCH  19  25
ENDBRANCH   2  16
BRANCH   1  31
ATOM     31  C   UNL     1      -2.457  -4.632  -1.589  0.00  0.00    +0.099 C 
ATOM     32  N   UNL     1      -3.463  -4.133  -1.422  0.00  0.00    -0.191 NA
ENDBRANCH   1  31
TORSDOF 8
