REMARK  Name = ZINC59416898
REMARK  9 active torsions:
REMARK  status: ('A' for Active; 'I' for Inactive)
REMARK    1  A    between atoms: C_1  and  C_2
REMARK    2  A    between atoms: C_2  and  C_3
REMARK    3  A    between atoms: C_3  and  C_4
REMARK    4  A    between atoms: C_4  and  N_5
REMARK    5  A    between atoms: N_5  and  C_6
REMARK    6  A    between atoms: C_6  and  C_7
REMARK    7  A    between atoms: N_9  and  C_10
REMARK    8  A    between atoms: C_14  and  O_17
REMARK    9  A    between atoms: O_17  and  C_18
REMARK                            x       y       z     vdW  Elec       q    Type
REMARK                         _______ _______ _______ _____ _____    ______ ____
ROOT
ATOM      1  C   UNL     1       3.088  -5.322  -2.957  0.00  0.00    +0.200 C 
ATOM      2  O   UNL     1       4.293  -5.387  -3.072  0.00  0.00    -0.278 OA
ATOM      3  N   UNL     1       2.291  -5.778  -3.943  0.00  0.00    -0.285 N 
ATOM      4  H   UNL     1       1.329  -5.793  -3.822  0.00  0.00    +0.155 HD
ENDROOT
BRANCH   3   5
ATOM      5  C   UNL     1       2.852  -6.231  -5.144  0.00  0.00    +0.065 A 
ATOM      6  C   UNL     1       3.183  -7.573  -5.294  0.00  0.00    +0.041 A 
ATOM      7  C   UNL     1       3.736  -8.020  -6.479  0.00  0.00    +0.036 A 
ATOM      8  C   UNL     1       3.963  -7.135  -7.517  0.00  0.00    +0.062 A 
ATOM      9  C   UNL     1       3.634  -5.794  -7.372  0.00  0.00    +0.150 A 
ATOM     10  C   UNL     1       3.074  -5.343  -6.187  0.00  0.00    +0.083 A 
ATOM     11 BR   UNL     1       2.619  -3.518  -5.989  0.00  0.00    -0.045 Br
ATOM     12 BR   UNL     1       4.721  -7.752  -9.135  0.00  0.00    -0.046 Br
ATOM     13 BR   UNL     1       2.875  -8.786  -3.877  0.00  0.00    -0.048 Br
BRANCH   9  14
ATOM     14  O   UNL     1       3.858  -4.925  -8.393  0.00  0.00    -0.493 OA
ATOM     15  C   UNL     1       2.800  -4.746  -9.336  0.00  0.00    +0.277 C 
ENDBRANCH   9  14
ENDBRANCH   3   5
BRANCH   1  16
ATOM     16  C   UNL     1       2.481  -4.729  -1.711  0.00  0.00    +0.015 C 
BRANCH  16  17
ATOM     17  N   UNL     1       3.551  -4.309  -0.797  0.00  0.00    +0.385 N 
ATOM     18  H   UNL     1       4.129  -3.618  -1.251  0.00  0.00    -0.085 HD
ATOM     19  H   UNL     1       4.115  -5.109  -0.549  0.00  0.00    -0.085 HD
BRANCH  17  20
ATOM     20  C   UNL     1       2.960  -3.732   0.417  0.00  0.00    -0.082 C 
BRANCH  20  21
ATOM     21  C   UNL     1       4.074  -3.295   1.369  0.00  0.00    -0.019 C 
BRANCH  21  23
ATOM     22  C   UNL     1       4.573  -2.256   3.586  0.00  0.00    +0.004 C 
ATOM     23  C   UNL     1       3.458  -2.693   2.634  0.00  0.00    -0.005 C 
ENDBRANCH  21  23
ENDBRANCH  20  21
ENDBRANCH  17  20
ENDBRANCH  16  17
ENDBRANCH   1  16
TORSDOF 7
