REMARK  Name = ZINC35034941
REMARK  6 active torsions:
REMARK  status: ('A' for Active; 'I' for Inactive)
REMARK    1  A    between atoms: C_1  and  C_2
REMARK    2  A    between atoms: N_5  and  C_19
REMARK    3  A    between atoms: N_11  and  C_12
REMARK    4  A    between atoms: C_19  and  C_21
REMARK    5  A    between atoms: C_19  and  C_22
REMARK    6  A    between atoms: N_32  and  C_33
REMARK                            x       y       z     vdW  Elec       q    Type
REMARK                         _______ _______ _______ _____ _____    ______ ____
ROOT
ATOM      1  C   UNL     1       1.525   0.620  -1.878  0.00  0.00    +0.026 C 
ATOM      2  C   UNL     1       1.154  -0.739  -1.281  0.00  0.00    +0.058 C 
ATOM      3  C   UNL     1      -0.371  -0.893  -1.260  0.00  0.00    -0.055 C 
ATOM      4  N   UNL     1      -0.727  -2.136  -0.564  0.00  0.00    +0.388 N 
ATOM      5  C   UNL     1      -0.319  -2.054   0.845  0.00  0.00    -0.058 C 
ATOM      6  C   UNL     1       1.208  -1.958   0.928  0.00  0.00    +0.091 C 
ATOM      7  N   UNL     1       1.654  -0.826   0.100  0.00  0.00    -0.286 N 
ATOM      8  C   UNL     1       2.492   0.107   0.593  0.00  0.00    +0.307 C 
ATOM      9  O   UNL     1       2.851   1.034  -0.108  0.00  0.00    -0.252 OA
ATOM     10  N   UNL     1       2.932   0.014   1.864  0.00  0.00    -0.269 N 
ATOM     11  H   UNL     1       2.593  -0.685   2.444  0.00  0.00    +0.156 HD
ATOM     12  H   UNL     1      -0.257  -2.913  -1.004  0.00  0.00    -0.081 HD
ENDROOT
BRANCH  10  13
ATOM     13  C   UNL     1       3.878   0.926   2.345  0.00  0.00    +0.036 A 
ATOM     14  C   UNL     1       3.916   2.220   1.843  0.00  0.00    +0.023 A 
ATOM     15  C   UNL     1       4.850   3.118   2.321  0.00  0.00    +0.003 A 
ATOM     16  C   UNL     1       5.748   2.730   3.298  0.00  0.00    +0.015 A 
ATOM     17  C   UNL     1       5.714   1.441   3.800  0.00  0.00    +0.020 A 
ATOM     18  C   UNL     1       4.778   0.540   3.330  0.00  0.00    +0.038 A 
ATOM     19 BR   UNL     1       6.945   0.915   5.135  0.00  0.00    -0.050 Br
ENDBRANCH  10  13
BRANCH   4  20
ATOM     20  C   UNL     1      -2.179  -2.339  -0.640  0.00  0.00    -0.004 C 
ATOM     21  C   UNL     1      -2.597  -2.493  -2.104  0.00  0.00    -0.005 C 
BRANCH  20  22
ATOM     22  C   UNL     1      -2.554  -3.584   0.123  0.00  0.00    +0.099 A 
ATOM     23  N   UNL     1      -1.796  -4.631   0.001  0.00  0.00    -0.235 NA
ATOM     24  C   UNL     1      -2.070  -5.786   0.658  0.00  0.00    +0.079 A 
ATOM     25  C   UNL     1      -1.257  -6.914   0.529  0.00  0.00    +0.048 A 
ATOM     26  C   UNL     1      -1.578  -8.065   1.217  0.00  0.00    +0.043 A 
ATOM     27  C   UNL     1      -2.700  -8.115   2.036  0.00  0.00    +0.021 A 
ATOM     28  C   UNL     1      -3.511  -7.023   2.177  0.00  0.00    +0.017 A 
ATOM     29  C   UNL     1      -3.208  -5.847   1.493  0.00  0.00    +0.065 A 
ATOM     30  C   UNL     1      -4.044  -4.643   1.608  0.00  0.00    +0.262 A 
ATOM     31  O   UNL     1      -5.038  -4.628   2.311  0.00  0.00    -0.267 OA
ATOM     32  N   UNL     1      -3.663  -3.550   0.906  0.00  0.00    -0.301 N 
ATOM     33  C   UNL     1      -4.457  -2.322   0.989  0.00  0.00    +0.153 C 
ATOM     34 CL   UNL     1      -0.568  -9.468   1.059  0.00  0.00    -0.083 Cl
ENDBRANCH  20  22
ENDBRANCH   4  20
TORSDOF 3
