REMARK  Name = ZINC63372615
REMARK  7 active torsions:
REMARK  status: ('A' for Active; 'I' for Inactive)
REMARK    1  A    between atoms: C_1  and  C_2
REMARK    2  A    between atoms: C_2  and  C_3
REMARK    3  A    between atoms: C_8  and  N_9
REMARK    4  A    between atoms: C_12  and  C_37
REMARK    5  A    between atoms: C_23  and  C_29
REMARK    6  A    between atoms: C_34  and  O_35
REMARK    7  A    between atoms: O_35  and  C_36
REMARK                            x       y       z     vdW  Elec       q    Type
REMARK                         _______ _______ _______ _____ _____    ______ ____
ROOT
ATOM      1  N   UNL     1       2.834  -0.267  -0.110  0.00  0.00    -0.192 N 
ATOM      2  C   UNL     1       3.156  -1.138   0.868  0.00  0.00    +0.253 C 
ATOM      3  O   UNL     1       2.846  -2.308   0.938  0.00  0.00    -0.272 OA
ATOM      4  C   UNL     1       3.987  -0.353   1.860  0.00  0.00    +0.137 C 
ATOM      5  C   UNL     1       3.285  -0.317   3.222  0.00  0.00    +0.139 C 
ATOM      6  C   UNL     1       3.850   0.887   3.967  0.00  0.00    -0.027 C 
ATOM      7  C   UNL     1       4.357   0.418   5.104  0.00  0.00    -0.000 A 
ATOM      8  C   UNL     1       4.979   1.101   6.250  0.00  0.00    +0.010 A 
ATOM      9  C   UNL     1       5.405   0.301   7.263  0.00  0.00    +0.001 A 
ATOM     10  C   UNL     1       5.276  -1.092   7.251  0.00  0.00    +0.002 A 
ATOM     11  C   UNL     1       4.712  -1.801   6.240  0.00  0.00    +0.026 A 
ATOM     12  C   UNL     1       4.222  -1.069   5.119  0.00  0.00    +0.043 A 
ATOM     13  N   UNL     1       3.625  -1.491   4.029  0.00  0.00    -0.375 N 
ATOM     14  C   UNL     1       3.847   2.286   3.402  0.00  0.00    +0.069 C 
ATOM     15  C   UNL     1       4.476   2.211   1.997  0.00  0.00    +0.123 C 
ATOM     16  N   UNL     1       3.945   1.025   1.319  0.00  0.00    -0.268 N 
ATOM     17  C   UNL     1       3.316   0.958   0.139  0.00  0.00    +0.317 C 
ATOM     18  O   UNL     1       3.193   1.900  -0.618  0.00  0.00    -0.252 OA
ATOM     19  C   UNL     1       5.417  -0.887   1.958  0.00  0.00    +0.044 C 
ATOM     20  H   UNL     1       3.441  -2.414   3.793  0.00  0.00    +0.160 HD
ENDROOT
BRANCH   1  26
ATOM     21  C   UNL     1       0.707  -0.490  -1.238  0.00  0.00    -0.026 A 
ATOM     22  C   UNL     1      -0.022  -0.817  -2.365  0.00  0.00    +0.005 A 
ATOM     23  C   UNL     1       0.625  -1.264  -3.502  0.00  0.00    +0.000 A 
ATOM     24  C   UNL     1       2.002  -1.384  -3.516  0.00  0.00    +0.002 A 
ATOM     25  C   UNL     1       2.737  -1.058  -2.393  0.00  0.00    +0.024 A 
ATOM     26  C   UNL     1       2.091  -0.604  -1.251  0.00  0.00    +0.049 A 
BRANCH  21  28
ATOM     27  C   UNL     1      -0.019   1.526   0.010  0.00  0.00    +0.009 C 
ATOM     28  C   UNL     1       0.002  -0.004   0.002  0.00  0.00    +0.033 C 
ENDBRANCH  21  28
ENDBRANCH   1  26
BRANCH  14  29
ATOM     29  C   UNL     1       4.662   3.197   4.284  0.00  0.00    +0.003 A 
ATOM     30  C   UNL     1       6.003   2.938   4.494  0.00  0.00    +0.008 A 
ATOM     31  C   UNL     1       6.751   3.773   5.303  0.00  0.00    +0.001 A 
ATOM     32  C   UNL     1       6.160   4.870   5.902  0.00  0.00    +0.004 A 
ATOM     33  C   UNL     1       4.821   5.134   5.695  0.00  0.00    +0.046 A 
ATOM     34  C   UNL     1       4.069   4.301   4.879  0.00  0.00    +0.124 A 
BRANCH  34  35
ATOM     35  O   UNL     1       2.752   4.561   4.669  0.00  0.00    -0.495 OA
ATOM     36  C   UNL     1       2.207   5.714   5.314  0.00  0.00    +0.277 C 
ENDBRANCH  34  35
ENDBRANCH  14  29
TORSDOF 4
