REMARK  Name = ZINC52149454
REMARK  8 active torsions:
REMARK  status: ('A' for Active; 'I' for Inactive)
REMARK    1  A    between atoms: C_1  and  C_2
REMARK    2  A    between atoms: C_2  and  C_3
REMARK    3  A    between atoms: C_3  and  C_5
REMARK    4  A    between atoms: C_3  and  N_21
REMARK    5  A    between atoms: C_5  and  C_7
REMARK    6  A    between atoms: C_5  and  O_13
REMARK    7  A    between atoms: O_13  and  C_14
REMARK    8  A    between atoms: C_14  and  C_15
REMARK                            x       y       z     vdW  Elec       q    Type
REMARK                         _______ _______ _______ _____ _____    ______ ____
ROOT
ATOM      1  C   UNL     1       0.717  -2.138   1.260  0.00  0.00    +0.140 C 
ENDROOT
BRANCH   1   2
ATOM      2  C   UNL     1       1.498  -2.893   2.305  0.00  0.00    +0.018 A 
ATOM      3  C   UNL     1       2.791  -3.296   2.278  0.00  0.00    +0.015 A 
ATOM      4  C   UNL     1       3.302  -3.983   3.364  0.00  0.00    +0.023 A 
ATOM      5  C   UNL     1       2.493  -4.233   4.423  0.00  0.00    +0.055 A 
ATOM      6  S   UNL     1       0.960  -3.479   3.903  0.00  0.00    -0.084 S 
ATOM      7 BR   UNL     1       2.888  -5.137   6.037  0.00  0.00    -0.043 Br
ENDBRANCH   1   2
BRANCH   1   8
ATOM      8  C   UNL     1       0.758  -0.641   1.574  0.00  0.00    -0.041 C 
BRANCH   8   9
ATOM      9  N   UNL     1       0.109   0.105   0.488  0.00  0.00    +0.382 N 
ATOM     10  H   UNL     1       0.229   1.095   0.642  0.00  0.00    -0.090 HD
ATOM     11  H   UNL     1       0.527  -0.151  -0.393  0.00  0.00    -0.090 HD
ATOM     12  H   UNL     1      -0.875  -0.116   0.470  0.00  0.00    -0.090 HD
ENDBRANCH   8   9
BRANCH   8  14
ATOM     13  C   UNL     1       0.158   1.102   3.260  0.00  0.00    +0.002 C 
ATOM     14  C   UNL     1       0.021  -0.376   2.888  0.00  0.00    -0.017 C 
ENDBRANCH   8  14
ENDBRANCH   1   8
BRANCH   1  15
ATOM     15  O   UNL     1      -0.639  -2.588   1.261  0.00  0.00    -0.373 OA
BRANCH  15  16
ATOM     16  C   UNL     1      -1.215  -2.702  -0.042  0.00  0.00    +0.164 C 
BRANCH  16  17
ATOM     17  C   UNL     1      -2.682  -3.115   0.083  0.00  0.00    +0.019 C 
ATOM     18  C   UNL     1      -2.769  -4.524   0.678  0.00  0.00    +0.034 C 
ATOM     19  C   UNL     1      -4.236  -4.960   0.726  0.00  0.00    +0.160 C 
ATOM     20  O   UNL     1      -4.790  -4.910  -0.590  0.00  0.00    -0.380 OA
ATOM     21  C   UNL     1      -4.779  -3.607  -1.178  0.00  0.00    +0.160 C 
ATOM     22  C   UNL     1      -3.334  -3.117  -1.303  0.00  0.00    +0.034 C 
ENDBRANCH  16  17
ENDBRANCH  15  16
ENDBRANCH   1  15
TORSDOF 7
