REMARK  Name = ZINC66981587
REMARK  8 active torsions:
REMARK  status: ('A' for Active; 'I' for Inactive)
REMARK    1  A    between atoms: C_1  and  C_2
REMARK    2  A    between atoms: N_7  and  C_9
REMARK    3  A    between atoms: C_9  and  C_11
REMARK    4  A    between atoms: C_9  and  C_12
REMARK    5  A    between atoms: C_12  and  N_13
REMARK    6  A    between atoms: N_16  and  C_17
REMARK    7  A    between atoms: C_19  and  N_25
REMARK    8  A    between atoms: C_26  and  C_28
REMARK                            x       y       z     vdW  Elec       q    Type
REMARK                         _______ _______ _______ _____ _____    ______ ____
ROOT
ATOM      1  N   UNL     1       2.863  -0.367   1.709  0.00  0.00    -0.301 N 
ATOM      2  C   UNL     1       4.085   0.187   1.580  0.00  0.00    +0.304 C 
ATOM      3  O   UNL     1       5.053  -0.517   1.369  0.00  0.00    -0.253 OA
ATOM      4  N   UNL     1       4.233   1.523   1.684  0.00  0.00    -0.267 N 
ATOM      5  H   UNL     1       2.090   0.195   1.877  0.00  0.00    +0.150 HD
ATOM      6  H   UNL     1       3.453   2.091   1.784  0.00  0.00    +0.156 HD
ENDROOT
BRANCH   4   7
ATOM      7  C   UNL     1       5.514   2.091   1.649  0.00  0.00    +0.072 A 
ATOM      8  C   UNL     1       6.513   1.504   0.886  0.00  0.00    +0.052 A 
ATOM      9  C   UNL     1       7.779   2.068   0.853  0.00  0.00    +0.071 A 
ATOM     10  C   UNL     1       8.046   3.220   1.585  0.00  0.00    +0.147 A 
ATOM     11  C   UNL     1       7.049   3.803   2.345  0.00  0.00    +0.080 A 
ATOM     12  C   UNL     1       5.783   3.245   2.375  0.00  0.00    +0.147 A 
ATOM     13  F   UNL     1       4.809   3.820   3.114  0.00  0.00    -0.203 F 
ATOM     14  F   UNL     1       9.280   3.770   1.553  0.00  0.00    -0.203 F 
BRANCH   9  15
ATOM     15  N   UNL     1       8.790   1.477   0.084  0.00  0.00    -0.283 N 
ATOM     16  C   UNL     1       8.473   0.779  -1.025  0.00  0.00    +0.214 C 
ATOM     17  O   UNL     1       7.322   0.738  -1.407  0.00  0.00    -0.276 OA
ATOM     18  C   UNL     1       9.547   0.050  -1.790  0.00  0.00    +0.109 C 
ATOM     19  H   UNL     1       9.719   1.570   0.348  0.00  0.00    +0.155 HD
ENDBRANCH   9  15
ENDBRANCH   4   7
BRANCH   1  20
ATOM     20  C   UNL     1       2.702  -1.819   1.595  0.00  0.00    +0.090 C 
BRANCH  20  21
ATOM     21  C   UNL     1       1.214  -2.173   1.649  0.00  0.00    -0.054 C 
ATOM     22  C   UNL     1       1.034  -3.664   1.359  0.00  0.00    -0.012 C 
BRANCH  21  28
ATOM     23  C   UNL     1      -3.221  -1.021  -0.073  0.00  0.00    +0.005 C 
ATOM     24  C   UNL     1      -1.721  -0.758  -0.213  0.00  0.00    -0.031 C 
ATOM     25  C   UNL     1      -1.274  -1.096  -1.638  0.00  0.00    -0.001 C 
ATOM     26  C   UNL     1       0.242  -0.904  -1.746  0.00  0.00    -0.018 C 
ATOM     27  C   UNL     1       0.937  -1.776  -0.698  0.00  0.00    -0.078 C 
ATOM     28  N   UNL     1       0.487  -1.387   0.643  0.00  0.00    +0.383 N 
ATOM     29  C   UNL     1      -0.953  -1.635   0.779  0.00  0.00    -0.075 C 
ATOM     30  H   UNL     1       0.673  -0.406   0.788  0.00  0.00    -0.081 HD
ENDBRANCH  21  28
ENDBRANCH  20  21
ENDBRANCH   1  20
TORSDOF 5
