REMARK  Name = ZINC02853814
REMARK  5 active torsions:
REMARK  status: ('A' for Active; 'I' for Inactive)
REMARK    1  A    between atoms: C_3  and  C_6
REMARK    2  A    between atoms: N_8  and  N_9
REMARK    3  A    between atoms: N_9  and  C_10
REMARK    4  A    between atoms: C_10  and  N_12
REMARK    5  A    between atoms: N_12  and  C_13
REMARK                            x       y       z     vdW  Elec       q    Type
REMARK                         _______ _______ _______ _____ _____    ______ ____
ROOT
ATOM      1  C   UNL     1       6.207  -1.781  -0.316  0.00  0.00    +0.151 C 
ATOM      2  S   UNL     1       7.882  -1.812  -0.668  0.00  0.00    -0.017 S 
ENDROOT
BRANCH   1   3
ATOM      3  N   UNL     1       5.546  -0.608  -0.287  0.00  0.00    -0.245 N 
ATOM      4  H   UNL     1       6.019   0.220  -0.466  0.00  0.00    +0.172 HD
BRANCH   3   7
ATOM      5  C   UNL     1       3.513   0.591   0.030  0.00  0.00    +0.295 C 
ATOM      6  O   UNL     1       4.106   1.629  -0.195  0.00  0.00    -0.265 OA
ATOM      7  N   UNL     1       4.175  -0.583   0.001  0.00  0.00    -0.229 N 
ATOM      8  H   UNL     1       3.702  -1.411   0.180  0.00  0.00    +0.173 HD
BRANCH   5  11
ATOM      9  C   UNL     1      -0.005   1.292   0.708  0.00  0.00    +0.042 A 
ATOM     10  C   UNL     1       1.291   1.730   0.393  0.00  0.00    +0.054 A 
ATOM     11  C   UNL     1       2.078   0.617   0.332  0.00  0.00    +0.190 A 
ATOM     12  O   UNL     1       1.305  -0.456   0.597  0.00  0.00    -0.458 OA
ATOM     13  C   UNL     1       0.048  -0.053   0.825  0.00  0.00    +0.196 A 
ENDBRANCH   5  11
ENDBRANCH   3   7
ENDBRANCH   1   3
BRANCH   1  14
ATOM     14  N   UNL     1       5.550  -2.932  -0.067  0.00  0.00    -0.295 N 
ATOM     15  H   UNL     1       4.616  -2.910   0.194  0.00  0.00    +0.154 HD
BRANCH  14  16
ATOM     16  C   UNL     1       6.216  -4.157  -0.185  0.00  0.00    +0.051 A 
ATOM     17  C   UNL     1       7.466  -4.329   0.393  0.00  0.00    +0.026 A 
ATOM     18  C   UNL     1       8.120  -5.540   0.275  0.00  0.00    +0.017 A 
ATOM     19  C   UNL     1       7.531  -6.582  -0.419  0.00  0.00    +0.019 A 
ATOM     20  C   UNL     1       6.285  -6.415  -0.997  0.00  0.00    +0.037 A 
ATOM     21  C   UNL     1       5.623  -5.207  -0.877  0.00  0.00    +0.063 A 
ATOM     22 CL   UNL     1       4.056  -5.000  -1.595  0.00  0.00    -0.082 Cl
ATOM     23 BR   UNL     1       8.431  -8.237  -0.579  0.00  0.00    -0.050 Br
ENDBRANCH  14  16
ENDBRANCH   1  14
TORSDOF 5
