REMARK  Name = ZINC13114711
REMARK  10 active torsions:
REMARK  status: ('A' for Active; 'I' for Inactive)
REMARK    1  A    between atoms: C_1  and  C_2
REMARK    2  A    between atoms: C_5  and  C_7
REMARK    3  A    between atoms: C_8  and  C_9
REMARK    4  A    between atoms: C_12  and  C_31
REMARK    5  A    between atoms: C_13  and  N_20
REMARK    6  A    between atoms: C_16  and  C_18
REMARK    7  A    between atoms: C_16  and  C_19
REMARK    8  A    between atoms: C_21  and  C_23
REMARK    9  A    between atoms: C_23  and  S_24
REMARK   10  A    between atoms: S_24  and  C_25
REMARK                            x       y       z     vdW  Elec       q    Type
REMARK                         _______ _______ _______ _____ _____    ______ ____
ROOT
ATOM      1  C   UNL     1      -6.007   2.779   2.823  0.00  0.00    -0.046 C 
ATOM      2  C   UNL     1      -7.071   2.604   2.009  0.00  0.00    +0.013 C 
ATOM      3  C   UNL     1      -8.414   2.958   2.538  0.00  0.00    +0.005 A 
ATOM      4  C   UNL     1      -9.693   2.581   1.958  0.00  0.00    +0.088 A 
ATOM      5  C   UNL     1     -10.844   2.994   2.615  0.00  0.00    +0.090 A 
ATOM      6  S   UNL     1     -10.198   3.897   4.013  0.00  0.00    -0.076 S 
ATOM      7  C   UNL     1      -8.473   3.708   3.690  0.00  0.00    +0.006 A 
ATOM      8  C   UNL     1      -7.285   4.213   4.442  0.00  0.00    +0.001 C 
ATOM      9  C   UNL     1      -6.125   3.232   4.249  0.00  0.00    +0.046 C 
ATOM     10  C   UNL     1      -7.626   4.318   5.929  0.00  0.00    +0.017 C 
ATOM     11  C   UNL     1      -6.886   5.591   3.909  0.00  0.00    +0.017 C 
ENDROOT
BRANCH   5  12
ATOM     12  N   UNL     1     -12.168   2.764   2.270  0.00  0.00    -0.278 N 
ATOM     13  C   UNL     1     -13.160   3.252   3.041  0.00  0.00    +0.228 C 
ATOM     14  O   UNL     1     -12.895   3.893   4.036  0.00  0.00    -0.275 OA
ATOM     15  H   UNL     1     -12.379   2.252   1.474  0.00  0.00    +0.155 HD
BRANCH  13  16
ATOM     16  C   UNL     1     -14.598   3.002   2.666  0.00  0.00    +0.172 C 
BRANCH  16  17
ATOM     17  S   UNL     1     -15.686   3.780   3.891  0.00  0.00    -0.088 S 
BRANCH  17  18
ATOM     18  C   UNL     1     -17.309   3.403   3.319  0.00  0.00    +0.160 A 
ATOM     19  N   UNL     1     -17.683   2.717   2.256  0.00  0.00    -0.133 NA
ATOM     20  N   UNL     1     -19.022   2.539   1.993  0.00  0.00    -0.125 NA
ATOM     21  C   UNL     1     -19.925   3.053   2.804  0.00  0.00    +0.180 A 
ATOM     22  S   UNL     1     -18.890   3.839   4.029  0.00  0.00    -0.025 S 
ATOM     23  N   UNL     1     -21.311   2.995   2.729  0.00  0.00    -0.336 N 
ATOM     24  H   UNL     1     -21.738   2.522   1.997  0.00  0.00    +0.144 HD
ATOM     25  H   UNL     1     -21.852   3.427   3.409  0.00  0.00    +0.144 HD
ENDBRANCH  17  18
ENDBRANCH  16  17
ENDBRANCH  13  16
ENDBRANCH   5  12
BRANCH   1  27
ATOM     26  C   UNL     1      -3.636   2.585   3.119  0.00  0.00    +0.046 C 
ATOM     27  C   UNL     1      -4.717   2.529   2.304  0.00  0.00    +0.007 C 
BRANCH  26  32
ATOM     28  C   UNL     1      -0.012   1.101   0.000  0.00  0.00    +0.086 C 
ATOM     29  C   UNL     1      -0.719   1.572   1.245  0.00  0.00    +0.103 A 
ATOM     30  C   UNL     1      -0.134   1.816   2.436  0.00  0.00    +0.045 A 
ATOM     31  C   UNL     1      -1.147   2.234   3.317  0.00  0.00    +0.049 A 
ATOM     32  C   UNL     1      -2.315   2.222   2.607  0.00  0.00    +0.128 A 
ATOM     33  O   UNL     1      -2.035   1.823   1.350  0.00  0.00    -0.461 OA
ENDBRANCH  26  32
ENDBRANCH   1  27
BRANCH   4  34
ATOM     34  C   UNL     1      -9.762   1.810   0.752  0.00  0.00    +0.102 C 
ATOM     35  N   UNL     1      -9.818   1.199  -0.203  0.00  0.00    -0.191 NA
ENDBRANCH   4  34
TORSDOF 7
