REMARK  Name = ZINC40880318
REMARK  5 active torsions:
REMARK  status: ('A' for Active; 'I' for Inactive)
REMARK    1  A    between atoms: C_3  and  C_6
REMARK    2  A    between atoms: C_8  and  C_11
REMARK    3  A    between atoms: C_14  and  N_18
REMARK    4  A    between atoms: C_22  and  C_25
REMARK    5  A    between atoms: C_30  and  N_33
REMARK                            x       y       z     vdW  Elec       q    Type
REMARK                         _______ _______ _______ _____ _____    ______ ____
ROOT
ATOM      1  N   UNL     1      11.133  -0.544  -0.119  0.00  0.00    -0.327 N 
ATOM      2  C   UNL     1      11.843  -0.841   1.133  0.00  0.00    +0.105 C 
ATOM      3  C   UNL     1      12.340  -2.289   1.086  0.00  0.00    +0.020 C 
ATOM      4  C   UNL     1      13.179  -2.496  -0.177  0.00  0.00    +0.016 C 
ATOM      5  C   UNL     1      12.313  -2.243  -1.414  0.00  0.00    +0.092 C 
ATOM      6  C   UNL     1      11.814  -0.799  -1.395  0.00  0.00    +0.118 C 
ENDROOT
BRANCH   5   7
ATOM      7  C   UNL     1      13.131  -2.479  -2.657  0.00  0.00    +0.220 C 
ATOM      8  O   UNL     1      14.311  -2.199  -2.669  0.00  0.00    -0.275 OA
ATOM      9  N   UNL     1      12.551  -3.001  -3.756  0.00  0.00    -0.301 N 
ATOM     10  C   UNL     1      11.100  -3.228  -3.800  0.00  0.00    +0.106 C 
ATOM     11  C   UNL     1      10.530  -2.538  -5.043  0.00  0.00    +0.004 C 
ATOM     12  C   UNL     1      11.281  -3.028  -6.283  0.00  0.00    -0.066 C 
ATOM     13  C   UNL     1      12.762  -2.660  -6.163  0.00  0.00    +0.004 C 
ATOM     14  C   UNL     1      13.356  -3.346  -4.935  0.00  0.00    +0.106 C 
BRANCH  12  15
ATOM     15  N   UNL     1      10.715  -2.393  -7.481  0.00  0.00    +0.382 N 
ATOM     16  C   UNL     1       9.293  -2.740  -7.591  0.00  0.00    -0.078 C 
ATOM     17  C   UNL     1       8.679  -2.016  -8.791  0.00  0.00    -0.019 C 
ATOM     18  C   UNL     1       9.410  -2.443 -10.067  0.00  0.00    -0.004 C 
ATOM     19  C   UNL     1      10.904  -2.144  -9.911  0.00  0.00    -0.019 C 
ATOM     20  C   UNL     1      11.436  -2.863  -8.670  0.00  0.00    -0.078 C 
ATOM     21  H   UNL     1      10.809  -1.391  -7.406  0.00  0.00    -0.081 HD
ENDBRANCH  12  15
ENDBRANCH   5   7
BRANCH   1  25
ATOM     22  C   UNL     1       7.252   0.976  -0.048  0.00  0.00    +0.025 A 
ATOM     23  C   UNL     1       7.463  -0.402  -0.070  0.00  0.00    +0.013 A 
ATOM     24  C   UNL     1       8.747  -0.903  -0.094  0.00  0.00    +0.027 A 
ATOM     25  C   UNL     1       9.833  -0.035  -0.095  0.00  0.00    +0.065 A 
ATOM     26  C   UNL     1       9.626   1.342  -0.073  0.00  0.00    +0.145 A 
ATOM     27  C   UNL     1       8.342   1.846  -0.056  0.00  0.00    +0.052 A 
ATOM     28  F   UNL     1      10.682   2.184  -0.073  0.00  0.00    -0.204 F 
BRANCH  22  31
ATOM     29  C   UNL     1       3.696   1.575   0.010  0.00  0.00    +0.265 A 
ATOM     30  N   UNL     1       4.747   0.782  -0.014  0.00  0.00    -0.187 NA
ATOM     31  C   UNL     1       5.871   1.515  -0.023  0.00  0.00    +0.202 A 
ATOM     32  N   UNL     1       5.549   2.787  -0.006  0.00  0.00    -0.056 NA
ATOM     33  O   UNL     1       4.131   2.849   0.011  0.00  0.00    -0.332 OA
BRANCH  29  36
ATOM     34  C   UNL     1      -0.044   1.218   0.057  0.00  0.00    +0.008 A 
ATOM     35  C   UNL     1       1.143   1.915   0.045  0.00  0.00    +0.021 A 
ATOM     36  C   UNL     1       2.293   1.143   0.026  0.00  0.00    +0.077 A 
ATOM     37  S   UNL     1       1.625  -0.510   0.026  0.00  0.00    -0.092 S 
ATOM     38  C   UNL     1      -0.013  -0.136   0.049  0.00  0.00    +0.046 A 
ENDBRANCH  29  36
ENDBRANCH  22  31
ENDBRANCH   1  25
TORSDOF 5
