REMARK  Name = ZINC20181068
REMARK  9 active torsions:
REMARK  status: ('A' for Active; 'I' for Inactive)
REMARK    1  A    between atoms: C_1  and  C_2
REMARK    2  A    between atoms: C_2  and  C_3
REMARK    3  A    between atoms: N_9  and  C_10
REMARK    4  A    between atoms: C_10  and  C_11
REMARK    5  A    between atoms: C_11  and  C_12
REMARK    6  A    between atoms: C_12  and  N_13
REMARK    7  A    between atoms: C_14  and  C_16
REMARK    8  A    between atoms: C_16  and  N_17
REMARK    9  A    between atoms: C_26  and  C_27
REMARK                            x       y       z     vdW  Elec       q    Type
REMARK                         _______ _______ _______ _____ _____    ______ ____
ROOT
ATOM      1  N   UNL     1      -2.723   9.350   4.579  0.00  0.00    -0.257 N 
ATOM      2  C   UNL     1      -4.102   9.476   4.465  0.00  0.00    +0.051 A 
ATOM      3  C   UNL     1      -4.708   9.081   3.272  0.00  0.00    +0.024 A 
ATOM      4  C   UNL     1      -6.075   9.183   3.116  0.00  0.00    +0.002 A 
ATOM      5  C   UNL     1      -6.865   9.673   4.141  0.00  0.00    +0.001 A 
ATOM      6  C   UNL     1      -6.280  10.064   5.331  0.00  0.00    +0.017 A 
ATOM      7  C   UNL     1      -4.908   9.965   5.493  0.00  0.00    +0.034 A 
ATOM      8  S   UNL     1      -4.161  10.467   7.014  0.00  0.00    -0.082 S 
ATOM      9  C   UNL     1      -2.684   9.485   7.021  0.00  0.00    +0.076 C 
ATOM     10  C   UNL     1      -2.195   8.933   8.158  0.00  0.00    +0.028 C 
ATOM     11  C   UNL     1      -2.018   9.301   5.712  0.00  0.00    +0.258 C 
ATOM     12  O   UNL     1      -0.818   9.106   5.668  0.00  0.00    -0.269 OA
ENDROOT
BRANCH  10  13
ATOM     13  C   UNL     1      -1.078   7.979   8.091  0.00  0.00    -0.022 A 
ATOM     14  C   UNL     1      -0.976   7.091   7.014  0.00  0.00    +0.008 A 
ATOM     15  C   UNL     1       0.074   6.199   6.958  0.00  0.00    +0.002 A 
ATOM     16  C   UNL     1       1.026   6.180   7.962  0.00  0.00    +0.020 A 
ATOM     17  C   UNL     1       0.933   7.056   9.031  0.00  0.00    +0.042 A 
ATOM     18  C   UNL     1      -0.109   7.958   9.099  0.00  0.00    +0.028 A 
ATOM     19 CL   UNL     1       2.134   7.024  10.284  0.00  0.00    -0.084 Cl
ENDBRANCH  10  13
BRANCH   1  20
ATOM     20  C   UNL     1      -1.965   9.267   3.328  0.00  0.00    +0.209 C 
BRANCH  20  22
ATOM     21  N   UNL     1      -1.167   7.503   1.788  0.00  0.00    -0.314 N 
ATOM     22  C   UNL     1      -1.831   7.823   2.917  0.00  0.00    +0.231 C 
ATOM     23  O   UNL     1      -2.320   6.950   3.601  0.00  0.00    -0.274 OA
ATOM     24  H   UNL     1      -0.723   8.295   1.167  0.00  0.00    +0.149 HD
BRANCH  21  25
ATOM     25  C   UNL     1      -1.036   6.099   1.389  0.00  0.00    +0.102 C 
BRANCH  25  26
ATOM     26  C   UNL     1      -0.245   6.013   0.082  0.00  0.00    +0.000 C 
BRANCH  26  27
ATOM     27  C   UNL     1      -0.108   4.547  -0.335  0.00  0.00    -0.077 C 
BRANCH  27  33
ATOM     28  C   UNL     1       1.076   3.084  -1.857  0.00  0.00    -0.069 C 
ATOM     29  C   UNL     1       1.984   3.058  -3.089  0.00  0.00    -0.015 C 
ATOM     30  C   UNL     1       1.222   3.620  -4.292  0.00  0.00    -0.003 C 
ATOM     31  C   UNL     1       0.750   5.040  -3.968  0.00  0.00    -0.019 C 
ATOM     32  C   UNL     1      -0.123   5.009  -2.712  0.00  0.00    -0.078 C 
ATOM     33  N   UNL     1       0.652   4.464  -1.589  0.00  0.00    +0.382 N 
ATOM     34  H   UNL     1       1.558   5.077  -1.479  0.00  0.00    -0.081 HD
BRANCH  28  36
ATOM     35  C   UNL     1       3.023   3.462  -0.338  0.00  0.00    +0.002 C 
ATOM     36  C   UNL     1       1.840   2.542  -0.648  0.00  0.00    -0.019 C 
ENDBRANCH  28  36
ENDBRANCH  27  33
ENDBRANCH  26  27
ENDBRANCH  25  26
ENDBRANCH  21  25
ENDBRANCH  20  22
ENDBRANCH   1  20
TORSDOF 8
