REMARK  Name = ZINC06086997
REMARK  12 active torsions:
REMARK  status: ('A' for Active; 'I' for Inactive)
REMARK    1  A    between atoms: C_1  and  C_2
REMARK    2  A    between atoms: C_2  and  C_3
REMARK    3  A    between atoms: C_3  and  C_5
REMARK    4  A    between atoms: C_3  and  N_63
REMARK    5  A    between atoms: C_15  and  C_16
REMARK    6  A    between atoms: C_15  and  N_63
REMARK    7  A    between atoms: C_16  and  C_18
REMARK    8  A    between atoms: C_16  and  O_30
REMARK    9  A    between atoms: C_18  and  O_19
REMARK   10  A    between atoms: O_19  and  C_20
REMARK   11  A    between atoms: C_20  and  C_22
REMARK   12  A    between atoms: C_20  and  C_23
REMARK                            x       y       z     vdW  Elec       q    Type
REMARK                         _______ _______ _______ _____ _____    ______ ____
ROOT
ATOM      1  N   UNL     1      -7.758   1.478   3.308  0.00  0.00    +0.383 N 
ATOM      2  H   UNL     1      -7.096   1.782   4.031  0.00  0.00    -0.085 HD
ATOM      3  H   UNL     1      -8.209   2.299   2.889  0.00  0.00    -0.085 HD
ENDROOT
BRANCH   1   4
ATOM      4  C   UNL     1      -8.787   0.617   3.921  0.00  0.00    -0.066 C 
BRANCH   4   5
ATOM      5  C   UNL     1     -10.131   1.349   3.905  0.00  0.00    -0.041 C 
ATOM      6  C   UNL     1     -10.010   2.655   4.693  0.00  0.00    +0.009 C 
ATOM      7  C   UNL     1     -11.354   3.386   4.677  0.00  0.00    -0.010 C 
ATOM      8  C   UNL     1     -11.748   3.697   3.232  0.00  0.00    +0.007 C 
ATOM      9  C   UNL     1     -11.869   2.391   2.444  0.00  0.00    -0.010 C 
ATOM     10  C   UNL     1     -10.525   1.659   2.460  0.00  0.00    +0.009 C 
ATOM     11  C   UNL     1     -12.939   1.506   3.086  0.00  0.00    +0.007 C 
ATOM     12  C   UNL     1     -12.545   1.195   4.531  0.00  0.00    -0.010 C 
ATOM     13  C   UNL     1     -12.424   2.501   5.319  0.00  0.00    +0.007 C 
ATOM     14  C   UNL     1     -11.201   0.464   4.547  0.00  0.00    +0.009 C 
ENDBRANCH   4   5
BRANCH   4  16
ATOM     15  C   UNL     1      -7.117  -0.538   5.377  0.00  0.00    +0.002 C 
ATOM     16  C   UNL     1      -8.393   0.307   5.367  0.00  0.00    -0.019 C 
ENDBRANCH   4  16
ENDBRANCH   1   4
BRANCH   1  17
ATOM     17  C   UNL     1      -7.028   0.737   2.261  0.00  0.00    -0.048 C 
BRANCH  17  18
ATOM     18  C   UNL     1      -5.887   1.608   1.734  0.00  0.00    +0.123 C 
BRANCH  18  19
ATOM     19  O   UNL     1      -4.935   1.830   2.776  0.00  0.00    -0.391 OA
ATOM     20  H   UNL     1      -4.538   1.020   3.126  0.00  0.00    +0.210 HD
ENDBRANCH  18  19
BRANCH  18  21
ATOM     21  C   UNL     1      -5.203   0.898   0.563  0.00  0.00    +0.190 C 
BRANCH  21  22
ATOM     22  O   UNL     1      -4.215   1.760  -0.005  0.00  0.00    -0.370 OA
BRANCH  22  23
ATOM     23  C   UNL     1      -3.513   1.190  -1.112  0.00  0.00    +0.145 C 
ATOM     24  C   UNL     1      -4.251   1.526  -2.410  0.00  0.00    +0.043 C 
BRANCH  23  25
ATOM     25  C   UNL     1      -2.117   1.755  -1.167  0.00  0.00    -0.019 A 
ATOM     26  C   UNL     1      -1.066   0.960  -1.582  0.00  0.00    +0.007 A 
ATOM     27  C   UNL     1       0.214   1.479  -1.639  0.00  0.00    +0.020 A 
ATOM     28  C   UNL     1       0.443   2.793  -1.274  0.00  0.00    +0.041 A 
ATOM     29  C   UNL     1      -0.609   3.587  -0.852  0.00  0.00    +0.020 A 
ATOM     30  C   UNL     1      -1.888   3.067  -0.796  0.00  0.00    +0.007 A 
ATOM     31 CL   UNL     1       2.050   3.446  -1.345  0.00  0.00    -0.084 Cl
ENDBRANCH  23  25
ENDBRANCH  22  23
ENDBRANCH  21  22
ENDBRANCH  18  21
ENDBRANCH  17  18
ENDBRANCH   1  17
TORSDOF 10
