REMARK  Name = ZINC39662848
REMARK  9 active torsions:
REMARK  status: ('A' for Active; 'I' for Inactive)
REMARK    1  A    between atoms: C_1  and  O_2
REMARK    2  A    between atoms: O_2  and  C_3
REMARK    3  A    between atoms: C_6  and  C_9
REMARK    4  A    between atoms: C_9  and  C_10
REMARK    5  A    between atoms: C_10  and  C_11
REMARK    6  A    between atoms: C_15  and  C_24
REMARK    7  A    between atoms: N_26  and  C_27
REMARK    8  A    between atoms: C_27  and  C_28
REMARK    9  A    between atoms: C_31  and  C_34
REMARK                            x       y       z     vdW  Elec       q    Type
REMARK                         _______ _______ _______ _____ _____    ______ ____
ROOT
ATOM      1  C   UNL     1       2.379  -3.528   6.700  0.00  0.00    +0.216 C 
ATOM      2  O   UNL     1       3.548  -3.843   6.638  0.00  0.00    -0.276 OA
ATOM      3  N   UNL     1       1.644  -3.872   7.777  0.00  0.00    -0.300 N 
ATOM      4  C   UNL     1       0.212  -3.585   8.028  0.00  0.00    +0.121 C 
ATOM      5  C   UNL     1      -0.333  -4.871   8.690  0.00  0.00    +0.100 C 
ATOM      6  C   UNL     1       0.902  -5.545   9.312  0.00  0.00    -0.004 C 
ATOM      7  C   UNL     1       2.085  -4.627   8.974  0.00  0.00    +0.115 C 
ATOM      8  C   UNL     1       1.118  -6.924   8.695  0.00  0.00    -0.010 C 
ATOM      9  C   UNL     1       2.316  -7.597   9.370  0.00  0.00    -0.082 C 
ATOM     10  N   UNL     1       2.064  -7.718  10.811  0.00  0.00    +0.379 N 
ATOM     11  C   UNL     1       1.950  -6.385  11.413  0.00  0.00    -0.082 C 
ATOM     12  C   UNL     1       0.736  -5.660  10.824  0.00  0.00    -0.010 C 
ATOM     13  H   UNL     1       1.206  -8.228  10.959  0.00  0.00    -0.086 HD
ATOM     14  H   UNL     1       2.828  -8.217  11.243  0.00  0.00    -0.086 HD
ENDROOT
BRANCH   5  15
ATOM     15  C   UNL     1      -1.339  -4.526   9.757  0.00  0.00    +0.218 C 
ATOM     16  O   UNL     1      -1.235  -3.487  10.375  0.00  0.00    -0.275 OA
ATOM     17  N   UNL     1      -2.353  -5.371  10.026  0.00  0.00    -0.315 N 
ATOM     18  H   UNL     1      -2.436  -6.202   9.533  0.00  0.00    +0.149 HD
BRANCH  17  19
ATOM     19  C   UNL     1      -3.331  -5.035  11.064  0.00  0.00    +0.107 C 
BRANCH  19  20
ATOM     20  C   UNL     1      -4.369  -6.154  11.168  0.00  0.00    +0.006 C 
ATOM     21  C   UNL     1      -5.170  -6.229   9.866  0.00  0.00    +0.006 C 
ATOM     22  C   UNL     1      -6.208  -7.349   9.969  0.00  0.00    +0.015 C 
ATOM     23  C   UNL     1      -7.156  -7.059  11.135  0.00  0.00    +0.102 C 
ATOM     24  C   UNL     1      -6.355  -6.984  12.437  0.00  0.00    +0.015 C 
ATOM     25  C   UNL     1      -5.317  -5.865  12.333  0.00  0.00    +0.006 C 
BRANCH  23  26
ATOM     26  C   UNL     1      -8.178  -8.161  11.237  0.00  0.00    +0.359 C 
ATOM     27  O   UNL     1      -8.654  -8.453  12.321  0.00  0.00    -0.246 OA
ATOM     28  O   UNL     1      -8.530  -8.761  10.236  0.00  0.00    -0.246 OA
ENDBRANCH  23  26
ENDBRANCH  19  20
ENDBRANCH  17  19
ENDBRANCH   5  15
BRANCH   1  29
ATOM     29  C   UNL     1       1.747  -2.753   5.573  0.00  0.00    +0.100 C 
BRANCH  29  30
ATOM     30  C   UNL     1       2.790  -2.494   4.484  0.00  0.00    +0.044 C 
BRANCH  30  34
ATOM     31  C   UNL     1       0.998  -0.295   1.288  0.00  0.00    +0.120 A 
ATOM     32  C   UNL     1       1.595   0.377   2.344  0.00  0.00    +0.046 A 
ATOM     33  C   UNL     1       2.173  -0.336   3.377  0.00  0.00    +0.007 A 
ATOM     34  C   UNL     1       2.158  -1.719   3.357  0.00  0.00    -0.047 A 
ATOM     35  C   UNL     1       1.564  -2.391   2.305  0.00  0.00    +0.007 A 
ATOM     36  C   UNL     1       0.979  -1.682   1.273  0.00  0.00    +0.046 A 
BRANCH  31  38
ATOM     37  C   UNL     1       0.485   1.830   0.353  0.00  0.00    +0.277 C 
ATOM     38  O   UNL     1       0.428   0.404   0.271  0.00  0.00    -0.495 OA
ENDBRANCH  31  38
ENDBRANCH  30  34
ENDBRANCH  29  30
ENDBRANCH   1  29
TORSDOF 8
