REMARK  Name = ZINC64623131
REMARK  4 active torsions:
REMARK  status: ('A' for Active; 'I' for Inactive)
REMARK    1  A    between atoms: C_1  and  O_2
REMARK    2  A    between atoms: O_2  and  C_3
REMARK    3  A    between atoms: C_6  and  C_9
REMARK    4  A    between atoms: N_27  and  C_28
REMARK                            x       y       z     vdW  Elec       q    Type
REMARK                         _______ _______ _______ _____ _____    ______ ____
ROOT
ATOM      1  C   UNL     1      -5.462  -2.434   0.918  0.00  0.00    +0.134 C 
ATOM      2  C   UNL     1      -5.753  -2.417  -0.586  0.00  0.00    +0.131 C 
ATOM      3  C   UNL     1      -6.750  -3.539  -0.849  0.00  0.00    -0.035 C 
ATOM      4  C   UNL     1      -7.796  -2.979  -1.445  0.00  0.00    +0.001 A 
ATOM      5  C   UNL     1      -9.033  -3.556  -1.997  0.00  0.00    +0.030 A 
ATOM      6  C   UNL     1      -9.916  -2.674  -2.537  0.00  0.00    +0.042 A 
ATOM      7  C   UNL     1      -9.695  -1.293  -2.582  0.00  0.00    +0.022 A 
ATOM      8  C   UNL     1      -8.585  -0.678  -2.103  0.00  0.00    +0.027 A 
ATOM      9  C   UNL     1      -7.581  -1.502  -1.514  0.00  0.00    +0.043 A 
ATOM     10  N   UNL     1      -6.409  -1.174  -0.999  0.00  0.00    -0.375 N 
ATOM     11 CL   UNL     1     -11.394  -3.294  -3.204  0.00  0.00    -0.084 Cl
ATOM     12  C   UNL     1      -6.510  -4.958  -0.397  0.00  0.00    +0.052 C 
ATOM     13  C   UNL     1      -6.136  -4.890   1.095  0.00  0.00    +0.114 C 
ATOM     14  N   UNL     1      -5.154  -3.820   1.303  0.00  0.00    -0.276 N 
ATOM     15  C   UNL     1      -3.957  -4.110   1.851  0.00  0.00    +0.307 C 
ATOM     16  O   UNL     1      -3.211  -3.213   2.193  0.00  0.00    -0.252 OA
ATOM     17  N   UNL     1      -3.586  -5.395   2.019  0.00  0.00    -0.269 N 
ATOM     18  H   UNL     1      -4.136  -6.109   1.661  0.00  0.00    +0.156 HD
ATOM     19  H   UNL     1      -6.043  -0.281  -0.903  0.00  0.00    +0.160 HD
ENDROOT
BRANCH  17  20
ATOM     20  C   UNL     1      -2.406  -5.699   2.711  0.00  0.00    +0.038 A 
ATOM     21  C   UNL     1      -1.331  -4.822   2.670  0.00  0.00    +0.027 A 
ATOM     22  C   UNL     1      -0.167  -5.122   3.351  0.00  0.00    +0.051 A 
ATOM     23  C   UNL     1      -0.069  -6.298   4.079  0.00  0.00    +0.162 A 
ATOM     24  C   UNL     1      -1.145  -7.177   4.125  0.00  0.00    +0.164 A 
ATOM     25  C   UNL     1      -2.314  -6.874   3.443  0.00  0.00    +0.072 A 
ATOM     26  O   UNL     1      -1.071  -8.333   4.840  0.00  0.00    -0.485 OA
ATOM     27  C   UNL     1       0.239  -8.780   5.207  0.00  0.00    +0.270 C 
ATOM     28  C   UNL     1       1.018  -7.580   5.763  0.00  0.00    +0.270 C 
ATOM     29  O   UNL     1       1.087  -6.579   4.741  0.00  0.00    -0.485 OA
ENDBRANCH  17  20
BRANCH   1  33
ATOM     30  C   UNL     1      -2.116   0.083   1.774  0.00  0.00    +0.120 A 
ATOM     31  C   UNL     1      -3.268   0.174   2.541  0.00  0.00    +0.046 A 
ATOM     32  C   UNL     1      -4.349  -0.641   2.263  0.00  0.00    +0.009 A 
ATOM     33  C   UNL     1      -4.282  -1.546   1.220  0.00  0.00    -0.024 A 
ATOM     34  C   UNL     1      -3.135  -1.639   0.454  0.00  0.00    +0.009 A 
ATOM     35  C   UNL     1      -2.054  -0.823   0.724  0.00  0.00    +0.046 A 
BRANCH  30  37
ATOM     36  C   UNL     1      -1.187   1.792   3.140  0.00  0.00    +0.277 C 
ATOM     37  O   UNL     1      -1.052   0.883   2.046  0.00  0.00    -0.495 OA
ENDBRANCH  30  37
ENDBRANCH   1  33
TORSDOF 3
