REMARK  Name = ZINC02927318
REMARK  9 active torsions:
REMARK  status: ('A' for Active; 'I' for Inactive)
REMARK    1  A    between atoms: C_1  and  C_2
REMARK    2  A    between atoms: C_6  and  N_8
REMARK    3  A    between atoms: C_12  and  C_32
REMARK    4  A    between atoms: C_18  and  S_19
REMARK    5  A    between atoms: S_19  and  C_20
REMARK    6  A    between atoms: C_20  and  C_21
REMARK    7  A    between atoms: N_23  and  C_24
REMARK    8  A    between atoms: C_28  and  O_30
REMARK    9  A    between atoms: O_30  and  C_31
REMARK                            x       y       z     vdW  Elec       q    Type
REMARK                         _______ _______ _______ _____ _____    ______ ____
ROOT
ATOM      1  N   UNL     1      -4.488   2.056   0.951  0.00  0.00    -0.275 N 
ATOM      2  C   UNL     1      -3.242   1.704   0.455  0.00  0.00    +0.124 A 
ATOM      3  N   UNL     1      -3.090   1.301  -0.783  0.00  0.00    -0.384 N 
ATOM      4  C   UNL     1      -2.100   1.797   1.374  0.00  0.00    +0.082 A 
ATOM      5  C   UNL     1      -0.725   1.524   1.263  0.00  0.00    +0.046 A 
ATOM      6  N   UNL     1      -0.158   1.802   2.405  0.00  0.00    -0.279 N 
ATOM      7  N   UNL     1      -1.127   2.251   3.311  0.00  0.00    -0.153 NA
ATOM      8  H   UNL     1       0.927   1.668   2.527  0.00  0.00    +0.189 HD
ATOM      9  C   UNL     1      -2.333   2.250   2.679  0.00  0.00    +0.187 A 
ATOM     10  N   UNL     1      -3.578   2.576   3.057  0.00  0.00    -0.201 NA
ATOM     11  C   UNL     1      -4.603   2.491   2.243  0.00  0.00    +0.177 A 
ATOM     12  C   UNL     1      -0.021   1.027   0.027  0.00  0.00    +0.066 C 
ATOM     13  H   UNL     1      -2.091   1.028  -1.154  0.00  0.00    +0.157 HD
ATOM     14  H   UNL     1      -3.961   1.237  -1.451  0.00  0.00    +0.157 HD
ENDROOT
BRANCH   1  20
ATOM     15  C   UNL     1      -8.151   4.318  -1.424  0.00  0.00    +0.044 C 
ATOM     16  C   UNL     1      -7.414   3.062  -1.037  0.00  0.00    -0.048 A 
ATOM     17  C   UNL     1      -7.855   1.833  -1.494  0.00  0.00    +0.003 A 
ATOM     18  C   UNL     1      -7.181   0.679  -1.141  0.00  0.00    +0.002 A 
ATOM     19  C   UNL     1      -6.062   0.749  -0.334  0.00  0.00    +0.026 A 
ATOM     20  C   UNL     1      -5.620   1.981   0.130  0.00  0.00    +0.051 A 
ATOM     21  C   UNL     1      -6.299   3.139  -0.226  0.00  0.00    +0.029 A 
ENDBRANCH   1  20
BRANCH  11  22
ATOM     22  S   UNL     1      -6.195   2.952   2.841  0.00  0.00    -0.078 S 
BRANCH  22  23
ATOM     23  C   UNL     1      -5.770   3.427   4.535  0.00  0.00    +0.173 C 
BRANCH  23  24
ATOM     24  C   UNL     1      -7.015   3.871   5.259  0.00  0.00    +0.227 C 
ATOM     25  O   UNL     1      -8.084   3.866   4.687  0.00  0.00    -0.275 OA
ATOM     26  N   UNL     1      -6.940   4.272   6.543  0.00  0.00    -0.285 N 
ATOM     27  H   UNL     1      -5.986   4.205   7.086  0.00  0.00    +0.155 HD
BRANCH  26  28
ATOM     28  C   UNL     1      -8.076   4.775   7.187  0.00  0.00    +0.037 A 
ATOM     29  C   UNL     1      -7.952   5.794   8.123  0.00  0.00    +0.023 A 
ATOM     30  C   UNL     1      -9.074   6.294   8.754  0.00  0.00    +0.005 A 
ATOM     31  C   UNL     1     -10.322   5.776   8.464  0.00  0.00    +0.046 A 
ATOM     32  C   UNL     1     -10.452   4.754   7.534  0.00  0.00    +0.122 A 
ATOM     33  C   UNL     1      -9.328   4.253   6.894  0.00  0.00    +0.069 A 
BRANCH  32  34
ATOM     34  O   UNL     1     -11.679   4.244   7.250  0.00  0.00    -0.495 OA
ATOM     35  C   UNL     1     -12.793   4.808   7.946  0.00  0.00    +0.277 C 
ENDBRANCH  32  34
ENDBRANCH  26  28
ENDBRANCH  23  24
ENDBRANCH  22  23
ENDBRANCH  11  22
TORSDOF 6
