REMARK  Name = ZINC19935518
REMARK  8 active torsions:
REMARK  status: ('A' for Active; 'I' for Inactive)
REMARK    1  A    between atoms: C_1  and  C_2
REMARK    2  A    between atoms: C_2  and  C_3
REMARK    3  A    between atoms: C_6  and  C_9
REMARK    4  A    between atoms: C_9  and  C_11
REMARK    5  A    between atoms: C_9  and  N_14
REMARK    6  A    between atoms: C_11  and  N_13
REMARK    7  A    between atoms: N_17  and  C_20
REMARK    8  A    between atoms: C_20  and  C_21
REMARK                            x       y       z     vdW  Elec       q    Type
REMARK                         _______ _______ _______ _____ _____    ______ ____
ROOT
ATOM      1  C   UNL     1      -2.717   2.949   4.763  0.00  0.00    +0.138 C 
ENDROOT
BRANCH   1   2
ATOM      2  N   UNL     1      -1.891   3.372   5.901  0.00  0.00    -0.294 NA
ATOM      3  C   UNL     1      -0.797   2.421   6.140  0.00  0.00    +0.067 C 
ATOM      4  C   UNL     1       0.084   2.937   7.280  0.00  0.00    -0.063 C 
ATOM      5  N   UNL     1      -0.734   3.108   8.489  0.00  0.00    +0.381 N 
ATOM      6  C   UNL     1      -1.828   4.060   8.250  0.00  0.00    -0.063 C 
ATOM      7  C   UNL     1      -2.709   3.544   7.110  0.00  0.00    +0.067 C 
ATOM      8  H   UNL     1      -1.179   2.134   8.739  0.00  0.00    -0.082 HD
BRANCH   5   9
ATOM      9  C   UNL     1       0.092   3.531   9.628  0.00  0.00    -0.082 C 
ATOM     10  C   UNL     1       1.353   2.666   9.693  0.00  0.00    -0.017 C 
ENDBRANCH   5   9
ENDBRANCH   1   2
BRANCH   1  14
ATOM     11  C   UNL     1      -0.201   2.094   1.418  0.00  0.00    -0.048 A 
ATOM     12  C   UNL     1       0.076   3.176   2.232  0.00  0.00    +0.004 A 
ATOM     13  C   UNL     1      -0.741   3.456   3.312  0.00  0.00    +0.006 A 
ATOM     14  C   UNL     1      -1.830   2.647   3.583  0.00  0.00    -0.024 A 
ATOM     15  C   UNL     1      -2.103   1.562   2.772  0.00  0.00    +0.006 A 
ATOM     16  C   UNL     1      -1.289   1.285   1.689  0.00  0.00    +0.004 A 
BRANCH  11  18
ATOM     17  C   UNL     1       0.159   2.524  -0.997  0.00  0.00    +0.009 C 
ATOM     18  C   UNL     1       0.686   1.792   0.238  0.00  0.00    +0.032 C 
ENDBRANCH  11  18
ENDBRANCH   1  14
BRANCH   1  19
ATOM     19  C   UNL     1      -3.676   4.054   4.400  0.00  0.00    +0.068 C 
ATOM     20  S   UNL     1      -3.408   5.545   4.911  0.00  0.00    -0.039 S 
BRANCH  19  21
ATOM     21  N   UNL     1      -4.760   3.785   3.645  0.00  0.00    -0.354 N 
ATOM     22  H   UNL     1      -5.460   4.591   3.381  0.00  0.00    +0.143 HD
ATOM     23  H   UNL     1      -4.944   2.759   3.293  0.00  0.00    +0.143 HD
ENDBRANCH  19  21
ENDBRANCH   1  19
TORSDOF 6
