REMARK  Name = ZINC66760700
REMARK  10 active torsions:
REMARK  status: ('A' for Active; 'I' for Inactive)
REMARK    1  A    between atoms: C_1  and  C_2
REMARK    2  A    between atoms: C_2  and  C_3
REMARK    3  A    between atoms: C_3  and  C_4
REMARK    4  A    between atoms: C_4  and  N_5
REMARK    5  A    between atoms: C_11  and  N_14
REMARK    6  A    between atoms: C_15  and  C_17
REMARK    7  A    between atoms: C_18  and  C_19
REMARK    8  A    between atoms: C_22  and  O_25
REMARK    9  A    between atoms: O_25  and  C_26
REMARK   10  A    between atoms: C_26  and  C_27
REMARK                            x       y       z     vdW  Elec       q    Type
REMARK                         _______ _______ _______ _____ _____    ______ ____
ROOT
ATOM      1  N   UNL     1      -2.101  -6.856  -0.977  0.00  0.00    -0.282 N 
ATOM      2  C   UNL     1      -1.343  -7.863  -1.455  0.00  0.00    +0.241 C 
ATOM      3  O   UNL     1      -0.922  -7.819  -2.596  0.00  0.00    -0.270 OA
ATOM      4  H   UNL     1      -2.369  -6.851  -0.044  0.00  0.00    +0.155 HD
ENDROOT
BRANCH   1  11
ATOM      5  N   UNL     1      -2.808  -2.571  -0.001  0.00  0.00    +0.385 N 
ATOM      6  C   UNL     1      -3.474  -2.320  -1.298  0.00  0.00    -0.042 C 
ATOM      7  C   UNL     1      -3.205  -3.547  -2.140  0.00  0.00    -0.061 A 
ATOM      8  C   UNL     1      -3.291  -3.765  -3.502  0.00  0.00    +0.002 A 
ATOM      9  C   UNL     1      -2.983  -5.006  -4.029  0.00  0.00    +0.002 A 
ATOM     10  C   UNL     1      -2.588  -6.034  -3.194  0.00  0.00    +0.023 A 
ATOM     11  C   UNL     1      -2.500  -5.818  -1.824  0.00  0.00    +0.035 A 
ATOM     12  C   UNL     1      -2.809  -4.571  -1.299  0.00  0.00    -0.041 A 
ATOM     13  C   UNL     1      -2.808  -4.047   0.119  0.00  0.00    -0.040 C 
ATOM     14  H   UNL     1      -3.331  -2.155   0.755  0.00  0.00    -0.081 HD
BRANCH   5  15
ATOM     15  C   UNL     1      -1.432  -2.056  -0.020  0.00  0.00    -0.078 C 
BRANCH  15  16
ATOM     16  C   UNL     1      -1.460  -0.526  -0.018  0.00  0.00    -0.019 C 
BRANCH  16  18
ATOM     17  C   UNL     1      -0.056   1.540  -0.036  0.00  0.00    +0.004 C 
ATOM     18  C   UNL     1      -0.028   0.011  -0.038  0.00  0.00    -0.005 C 
ENDBRANCH  16  18
ENDBRANCH  15  16
ENDBRANCH   5  15
ENDBRANCH   1  11
BRANCH   2  19
ATOM     19  C   UNL     1      -1.027  -9.008  -0.602  0.00  0.00    +0.068 C 
ATOM     20  C   UNL     1      -0.268 -10.017  -1.081  0.00  0.00    +0.013 C 
BRANCH  20  21
ATOM     21  C   UNL     1       0.050 -11.168  -0.224  0.00  0.00    -0.025 A 
ATOM     22  C   UNL     1      -0.437 -11.223   1.087  0.00  0.00    +0.011 A 
ATOM     23  C   UNL     1      -0.137 -12.304   1.885  0.00  0.00    +0.046 A 
ATOM     24  C   UNL     1       0.650 -13.338   1.392  0.00  0.00    +0.121 A 
ATOM     25  C   UNL     1       1.137 -13.288   0.090  0.00  0.00    +0.046 A 
ATOM     26  C   UNL     1       0.837 -12.215  -0.718  0.00  0.00    +0.011 A 
BRANCH  24  27
ATOM     27  O   UNL     1       0.944 -14.402   2.183  0.00  0.00    -0.483 OA
BRANCH  27  28
ATOM     28  C   UNL     1       1.756 -15.430   1.613  0.00  0.00    +0.324 C 
BRANCH  28  29
ATOM     29  C   UNL     1       1.976 -16.519   2.631  0.00  0.00    +0.248 C 
ATOM     30  O   UNL     1       1.484 -16.424   3.736  0.00  0.00    -0.272 OA
ATOM     31  N   UNL     1       2.718 -17.598   2.314  0.00  0.00    -0.327 N 
ATOM     32  H   UNL     1       3.111 -17.674   1.431  0.00  0.00    +0.145 HD
ATOM     33  H   UNL     1       2.859 -18.299   2.970  0.00  0.00    +0.145 HD
ENDBRANCH  28  29
ENDBRANCH  27  28
ENDBRANCH  24  27
ENDBRANCH  20  21
ENDBRANCH   2  19
TORSDOF 9
