REMARK  Name = ZINC61714157
REMARK  4 active torsions:
REMARK  status: ('A' for Active; 'I' for Inactive)
REMARK    1  A    between atoms: C_3  and  C_18
REMARK    2  A    between atoms: C_6  and  C_9
REMARK    3  A    between atoms: C_14  and  O_17
REMARK    4  A    between atoms: C_18  and  N_19
REMARK                            x       y       z     vdW  Elec       q    Type
REMARK                         _______ _______ _______ _____ _____    ______ ____
ROOT
ATOM      1  C   UNL     1      -0.197   1.411   0.070  0.00  0.00    +0.001 C 
ATOM      2  C   UNL     1       1.196   2.041   0.126  0.00  0.00    +0.002 C 
ATOM      3  C   UNL     1       1.980   1.655  -1.130  0.00  0.00    -0.028 C 
ATOM      4  C   UNL     1       2.112   0.133  -1.202  0.00  0.00    +0.014 C 
ATOM      5  C   UNL     1       0.719  -0.497  -1.257  0.00  0.00    +0.075 C 
ATOM      6  C   UNL     1      -0.066  -0.112  -0.001  0.00  0.00    +0.013 C 
ENDROOT
BRANCH   5   7
ATOM      7  C   UNL     1      -0.011   0.002  -2.478  0.00  0.00    +0.219 C 
ATOM      8  O   UNL     1      -0.219   1.188  -2.616  0.00  0.00    -0.275 OA
ATOM      9  N   UNL     1      -0.431  -0.871  -3.415  0.00  0.00    -0.299 N 
ATOM     10  C   UNL     1      -0.345  -2.335  -3.323  0.00  0.00    +0.110 C 
ATOM     11  C   UNL     1      -0.971  -2.913  -4.609  0.00  0.00    +0.052 C 
ATOM     12  C   UNL     1      -1.886  -1.760  -5.099  0.00  0.00    +0.133 C 
ATOM     13  C   UNL     1      -1.060  -0.514  -4.700  0.00  0.00    +0.139 C 
BRANCH  12  14
ATOM     14  O   UNL     1      -2.074  -1.821  -6.514  0.00  0.00    -0.390 OA
ATOM     15  H   UNL     1      -2.504  -2.632  -6.819  0.00  0.00    +0.210 HD
ENDBRANCH  12  14
ENDBRANCH   5   7
BRANCH   3  16
ATOM     16  C   UNL     1       3.373   2.286  -1.075  0.00  0.00    -0.083 C 
BRANCH  16  17
ATOM     17  N   UNL     1       3.251   3.749  -1.127  0.00  0.00    +0.378 N 
ATOM     18  H   UNL     1       2.794   4.018  -1.985  0.00  0.00    -0.090 HD
ATOM     19  H   UNL     1       2.705   4.069  -0.341  0.00  0.00    -0.090 HD
ATOM     20  H   UNL     1       4.170   4.165  -1.091  0.00  0.00    -0.090 HD
ENDBRANCH  16  17
ENDBRANCH   3  16
TORSDOF 4
