REMARK  Name = ZINC48990175
REMARK  9 active torsions:
REMARK  status: ('A' for Active; 'I' for Inactive)
REMARK    1  A    between atoms: C_1  and  C_2
REMARK    2  A    between atoms: C_2  and  C_3
REMARK    3  A    between atoms: C_3  and  C_4
REMARK    4  A    between atoms: C_4  and  N_5
REMARK    5  A    between atoms: N_5  and  C_6
REMARK    6  A    between atoms: N_5  and  C_19
REMARK    7  A    between atoms: C_6  and  C_7
REMARK    8  A    between atoms: N_9  and  C_10
REMARK    9  A    between atoms: C_11  and  N_18
REMARK                            x       y       z     vdW  Elec       q    Type
REMARK                         _______ _______ _______ _____ _____    ______ ____
ROOT
ATOM      1  C   UNL     1       2.600  -4.561   3.519  0.00  0.00    +0.201 C 
ATOM      2  O   UNL     1       3.435  -3.846   4.030  0.00  0.00    -0.278 OA
ATOM      3  N   UNL     1       2.222  -5.701   4.132  0.00  0.00    -0.284 N 
ATOM      4  H   UNL     1       1.501  -6.234   3.763  0.00  0.00    +0.155 HD
ENDROOT
BRANCH   3   5
ATOM      5  C   UNL     1       2.873  -6.115   5.304  0.00  0.00    +0.073 A 
ATOM      6  C   UNL     1       3.390  -7.407   5.396  0.00  0.00    +0.049 A 
ATOM      7  C   UNL     1       4.033  -7.811   6.557  0.00  0.00    +0.044 A 
ATOM      8  C   UNL     1       4.160  -6.934   7.619  0.00  0.00    +0.044 A 
ATOM      9  C   UNL     1       3.646  -5.652   7.527  0.00  0.00    +0.042 A 
ATOM     10  C   UNL     1       3.008  -5.240   6.371  0.00  0.00    +0.065 A 
ATOM     11 CL   UNL     1       2.372  -3.629   6.258  0.00  0.00    -0.082 Cl
ATOM     12 CL   UNL     1       4.964  -7.443   9.071  0.00  0.00    -0.083 Cl
BRANCH   6  13
ATOM     13  N   UNL     1       3.261  -8.293   4.321  0.00  0.00    -0.356 N 
ATOM     14  H   UNL     1       2.811  -8.009   3.510  0.00  0.00    +0.142 HD
ATOM     15  H   UNL     1       3.622  -9.191   4.387  0.00  0.00    +0.142 HD
ENDBRANCH   6  13
ENDBRANCH   3   5
BRANCH   1  16
ATOM     16  C   UNL     1       1.984  -4.177   2.199  0.00  0.00    +0.019 C 
BRANCH  16  17
ATOM     17  N   UNL     1       2.558  -2.904   1.743  0.00  0.00    +0.387 N 
ATOM     18  H   UNL     1       2.439  -2.205   2.461  0.00  0.00    -0.081 HD
BRANCH  17  19
ATOM     19  C   UNL     1       3.990  -3.084   1.466  0.00  0.00    -0.068 C 
ATOM     20  C   UNL     1       4.983  -2.433   2.431  0.00  0.00    -0.017 C 
ATOM     21  C   UNL     1       4.785  -1.852   1.030  0.00  0.00    -0.017 C 
ENDBRANCH  17  19
BRANCH  17  22
ATOM     22  C   UNL     1       1.874  -2.469   0.518  0.00  0.00    -0.078 C 
BRANCH  22  23
ATOM     23  C   UNL     1       0.407  -2.167   0.833  0.00  0.00    -0.019 C 
BRANCH  23  25
ATOM     24  C   UNL     1      -1.740  -1.287  -0.095  0.00  0.00    +0.004 C 
ATOM     25  C   UNL     1      -0.273  -1.588  -0.409  0.00  0.00    -0.005 C 
ENDBRANCH  23  25
ENDBRANCH  22  23
ENDBRANCH  17  22
ENDBRANCH  16  17
ENDBRANCH   1  16
TORSDOF 8
