REMARK  Name = ZINC37617198
REMARK  10 active torsions:
REMARK  status: ('A' for Active; 'I' for Inactive)
REMARK    1  A    between atoms: C_1  and  C_2
REMARK    2  A    between atoms: C_2  and  C_3
REMARK    3  A    between atoms: C_3  and  C_5
REMARK    4  A    between atoms: C_3  and  N_6
REMARK    5  A    between atoms: N_6  and  C_7
REMARK    6  A    between atoms: C_7  and  C_8
REMARK    7  A    between atoms: N_10  and  C_11
REMARK    8  A    between atoms: C_11  and  C_12
REMARK    9  A    between atoms: C_11  and  C_13
REMARK   10  A    between atoms: C_11  and  C_14
REMARK                            x       y       z     vdW  Elec       q    Type
REMARK                         _______ _______ _______ _____ _____    ______ ____
ROOT
ATOM      1  C   UNL     1      -4.228  -0.092  -2.423  0.00  0.00    +0.197 C 
ATOM      2  O   UNL     1      -3.627   0.537  -3.268  0.00  0.00    -0.278 OA
ATOM      3  N   UNL     1      -5.517  -0.431  -2.625  0.00  0.00    -0.308 N 
ATOM      4  H   UNL     1      -5.998  -0.934  -1.950  0.00  0.00    +0.149 HD
ENDROOT
BRANCH   3   5
ATOM      5  C   UNL     1      -6.191  -0.041  -3.866  0.00  0.00    +0.054 C 
ATOM      6  C   UNL     1      -6.211   1.485  -3.977  0.00  0.00    +0.036 C 
ATOM      7  C   UNL     1      -5.439  -0.629  -5.062  0.00  0.00    +0.036 C 
BRANCH   5   8
ATOM      8  C   UNL     1      -7.605  -0.562  -3.855  0.00  0.00    -0.025 A 
ATOM      9  C   UNL     1      -8.576   0.060  -4.617  0.00  0.00    +0.007 A 
ATOM     10  C   UNL     1      -9.873  -0.419  -4.608  0.00  0.00    +0.015 A 
ATOM     11  C   UNL     1     -10.198  -1.520  -3.837  0.00  0.00    +0.018 A 
ATOM     12  C   UNL     1      -9.226  -2.142  -3.075  0.00  0.00    +0.015 A 
ATOM     13  C   UNL     1      -7.928  -1.666  -3.089  0.00  0.00    +0.007 A 
ATOM     14 BR   UNL     1     -11.973  -2.175  -3.823  0.00  0.00    -0.050 Br
ENDBRANCH   5   8
ENDBRANCH   3   5
BRANCH   1  15
ATOM     15  C   UNL     1      -3.535  -0.494  -1.147  0.00  0.00    +0.015 C 
BRANCH  15  16
ATOM     16  N   UNL     1      -2.149  -0.009  -1.169  0.00  0.00    +0.386 N 
ATOM     17  H   UNL     1      -2.146   0.997  -1.251  0.00  0.00    -0.085 HD
ATOM     18  H   UNL     1      -1.664  -0.412  -1.956  0.00  0.00    -0.085 HD
BRANCH  16  19
ATOM     19  C   UNL     1      -1.473  -0.400   0.075  0.00  0.00    -0.075 C 
ATOM     20  C   UNL     1      -1.367  -1.925   0.140  0.00  0.00    -0.014 C 
BRANCH  19  22
ATOM     21  C   UNL     1      -0.179   1.735   0.169  0.00  0.00    +0.002 C 
ATOM     22  C   UNL     1      -0.070   0.210   0.108  0.00  0.00    -0.019 C 
ENDBRANCH  19  22
ENDBRANCH  16  19
ENDBRANCH  15  16
ENDBRANCH   1  15
TORSDOF 6
