REMARK  Name = ZINC08790054
REMARK  5 active torsions:
REMARK  status: ('A' for Active; 'I' for Inactive)
REMARK    1  A    between atoms: C_4  and  C_7
REMARK    2  A    between atoms: N_25  and  C_28
REMARK    3  A    between atoms: C_33  and  C_34
REMARK    4  A    between atoms: N_36  and  C_37
REMARK    5  A    between atoms: C_37  and  C_38
REMARK                            x       y       z     vdW  Elec       q    Type
REMARK                         _______ _______ _______ _____ _____    ______ ____
ROOT
ATOM      1  C   UNL     1      -1.318   4.878   0.017  0.00  0.00    +0.155 C 
ATOM      2  C   UNL     1      -0.347   3.718   0.119  0.00  0.00    +0.046 A 
ATOM      3  C   UNL     1      -0.725   2.423   0.102  0.00  0.00    -0.015 A 
ATOM      4  C   UNL     1       0.488   1.632   0.204  0.00  0.00    +0.003 A 
ATOM      5  C   UNL     1       0.718   0.253   0.235  0.00  0.00    +0.010 A 
ATOM      6  C   UNL     1       2.025  -0.155   0.333  0.00  0.00    +0.001 A 
ATOM      7  C   UNL     1       3.075   0.746   0.400  0.00  0.00    +0.002 A 
ATOM      8  C   UNL     1       2.876   2.115   0.372  0.00  0.00    +0.026 A 
ATOM      9  C   UNL     1       1.559   2.559   0.273  0.00  0.00    +0.047 A 
ATOM     10  N   UNL     1       1.016   3.811   0.222  0.00  0.00    -0.356 N 
ATOM     11  H   UNL     1       1.519   4.639   0.253  0.00  0.00    +0.166 HD
ATOM     12  C   UNL     1      -2.143   1.918   0.008  0.00  0.00    +0.069 C 
ATOM     13  C   UNL     1      -3.037   3.025  -0.564  0.00  0.00    +0.170 C 
ATOM     14  N   UNL     1      -2.663   4.298   0.090  0.00  0.00    -0.260 N 
ATOM     15  C   UNL     1      -3.744   4.745   0.733  0.00  0.00    +0.317 C 
ATOM     16  O   UNL     1      -3.787   5.801   1.333  0.00  0.00    -0.252 OA
ATOM     17  N   UNL     1      -4.776   3.895   0.640  0.00  0.00    -0.192 N 
ATOM     18  C   UNL     1      -4.466   2.814  -0.105  0.00  0.00    +0.248 C 
ATOM     19  O   UNL     1      -5.182   1.868  -0.355  0.00  0.00    -0.273 OA
ENDROOT
BRANCH   1  23
ATOM     20  C   UNL     1      -0.823   6.882  -3.723  0.00  0.00    +0.000 A 
ATOM     21  C   UNL     1      -0.533   7.540  -2.542  0.00  0.00    +0.000 A 
ATOM     22  C   UNL     1      -0.694   6.892  -1.332  0.00  0.00    +0.006 A 
ATOM     23  C   UNL     1      -1.143   5.585  -1.302  0.00  0.00    -0.021 A 
ATOM     24  C   UNL     1      -1.427   4.925  -2.483  0.00  0.00    +0.006 A 
ATOM     25  C   UNL     1      -1.272   5.574  -3.693  0.00  0.00    +0.000 A 
ENDBRANCH   1  23
BRANCH  17  26
ATOM     26  C   UNL     1      -6.020   4.104   1.238  0.00  0.00    +0.058 A 
ATOM     27  C   UNL     1      -7.021   4.777   0.552  0.00  0.00    +0.025 A 
ATOM     28  C   UNL     1      -8.250   4.983   1.146  0.00  0.00    +0.002 A 
ATOM     29  C   UNL     1      -8.495   4.520   2.428  0.00  0.00    +0.001 A 
ATOM     30  C   UNL     1      -7.513   3.849   3.125  0.00  0.00    +0.015 A 
ATOM     31  C   UNL     1      -6.267   3.628   2.534  0.00  0.00    +0.059 A 
BRANCH  31  32
ATOM     32  C   UNL     1      -5.213   2.905   3.272  0.00  0.00    +0.246 C 
ATOM     33  O   UNL     1      -4.128   2.720   2.757  0.00  0.00    -0.270 OA
ATOM     34  N   UNL     1      -5.454   2.450   4.518  0.00  0.00    -0.304 N 
ATOM     35  H   UNL     1      -6.321   2.598   4.929  0.00  0.00    +0.149 HD
BRANCH  34  36
ATOM     36  C   UNL     1      -4.409   1.732   5.251  0.00  0.00    +0.179 C 
BRANCH  36  37
ATOM     37  C   UNL     1      -4.929   1.334   6.608  0.00  0.00    +0.122 A 
ATOM     38  C   UNL     1      -5.558   0.182   6.902  0.00  0.00    +0.046 A 
ATOM     39  C   UNL     1      -5.870   0.226   8.280  0.00  0.00    +0.041 A 
ATOM     40  C   UNL     1      -5.412   1.402   8.746  0.00  0.00    +0.195 A 
ATOM     41  O   UNL     1      -4.838   2.066   7.730  0.00  0.00    -0.466 OA
ENDBRANCH  36  37
ENDBRANCH  34  36
ENDBRANCH  31  32
ENDBRANCH  17  26
TORSDOF 5
