REMARK  Name = ZINC63472804
REMARK  8 active torsions:
REMARK  status: ('A' for Active; 'I' for Inactive)
REMARK    1  A    between atoms: C_1  and  C_2
REMARK    2  A    between atoms: C_5  and  N_9
REMARK    3  A    between atoms: C_7  and  C_8
REMARK    4  A    between atoms: C_14  and  C_35
REMARK    5  A    between atoms: C_17  and  C_22
REMARK    6  A    between atoms: C_17  and  C_32
REMARK    7  A    between atoms: C_22  and  C_23
REMARK    8  A    between atoms: C_40  and  O_41
REMARK                            x       y       z     vdW  Elec       q    Type
REMARK                         _______ _______ _______ _____ _____    ______ ____
ROOT
ATOM      1  N   UNL     1      -0.024  -4.264  -0.075  0.00  0.00    -0.210 N 
ATOM      2  C   UNL     1      -0.118  -5.043   1.052  0.00  0.00    +0.229 C 
ATOM      3  O   UNL     1      -0.434  -4.694   2.169  0.00  0.00    -0.275 OA
ATOM      4  C   UNL     1       0.243  -6.369   0.609  0.00  0.00    +0.077 C 
ATOM      5  C   UNL     1       0.117  -7.772   1.030  0.00  0.00    -0.023 C 
ATOM      6  N   UNL     1       0.358  -8.558  -0.225  0.00  0.00    +0.396 N 
ATOM      7  C   UNL     1       0.492  -7.579  -1.352  0.00  0.00    +0.052 C 
ATOM      8  C   UNL     1      -0.361  -6.394  -0.852  0.00  0.00    +0.086 C 
ATOM      9  C   UNL     1       0.072  -5.001  -1.221  0.00  0.00    +0.229 C 
ATOM     10  O   UNL     1       0.433  -4.614  -2.311  0.00  0.00    -0.275 OA
ATOM     11  H   UNL     1       1.208  -9.095  -0.135  0.00  0.00    -0.083 HD
ATOM     12  H   UNL     1      -0.421  -9.175  -0.397  0.00  0.00    -0.083 HD
ENDROOT
BRANCH   1  17
ATOM     13  C   UNL     1      -0.055   1.411   0.017  0.00  0.00    +0.044 C 
ATOM     14  C   UNL     1      -0.046  -0.096  -0.008  0.00  0.00    -0.047 A 
ATOM     15  C   UNL     1       0.055  -0.766  -1.213  0.00  0.00    +0.005 A 
ATOM     16  C   UNL     1       0.062  -2.147  -1.239  0.00  0.00    +0.024 A 
ATOM     17  C   UNL     1      -0.031  -2.862  -0.052  0.00  0.00    +0.044 A 
ATOM     18  C   UNL     1      -0.132  -2.187   1.156  0.00  0.00    +0.027 A 
ATOM     19  C   UNL     1      -0.134  -0.805   1.176  0.00  0.00    -0.046 A 
ATOM     20  C   UNL     1      -0.238  -0.071   2.487  0.00  0.00    +0.044 C 
ENDBRANCH   1  17
BRANCH   5  21
ATOM     21  C   UNL     1      -1.265  -8.040   1.566  0.00  0.00    -0.019 A 
ATOM     22  C   UNL     1      -2.258  -8.496   0.720  0.00  0.00    +0.005 A 
ATOM     23  C   UNL     1      -3.527  -8.742   1.210  0.00  0.00    +0.000 A 
ATOM     24  C   UNL     1      -3.806  -8.531   2.549  0.00  0.00    +0.004 A 
ATOM     25  C   UNL     1      -2.817  -8.075   3.398  0.00  0.00    +0.045 A 
ATOM     26  C   UNL     1      -1.541  -7.833   2.909  0.00  0.00    +0.118 A 
BRANCH  26  27
ATOM     27  O   UNL     1      -0.565  -7.390   3.744  0.00  0.00    -0.507 OA
ATOM     28  H   UNL     1      -0.512  -6.427   3.811  0.00  0.00    +0.292 HD
ENDBRANCH  26  27
ENDBRANCH   5  21
BRANCH   7  29
ATOM     29  C   UNL     1      -0.089  -8.145  -2.623  0.00  0.00    +0.347 C 
ATOM     30  O   UNL     1      -0.554  -9.272  -2.631  0.00  0.00    -0.248 OA
ATOM     31  O   UNL     1      -0.093  -7.477  -3.642  0.00  0.00    -0.248 OA
ENDBRANCH   7  29
BRANCH   7  32
ATOM     32  C   UNL     1       1.955  -7.180  -1.554  0.00  0.00    +0.033 C 
BRANCH  32  33
ATOM     33  C   UNL     1       2.750  -8.386  -1.982  0.00  0.00    -0.042 C 
ATOM     34  C   UNL     1       3.035  -8.765  -3.249  0.00  0.00    -0.001 A 
ATOM     35  C   UNL     1       2.701  -8.189  -4.557  0.00  0.00    +0.010 A 
ATOM     36  C   UNL     1       3.137  -8.809  -5.677  0.00  0.00    +0.001 A 
ATOM     37  C   UNL     1       3.897  -9.985  -5.620  0.00  0.00    +0.002 A 
ATOM     38  C   UNL     1       4.244 -10.573  -4.456  0.00  0.00    +0.026 A 
ATOM     39  C   UNL     1       3.840 -10.007  -3.216  0.00  0.00    +0.043 A 
ATOM     40  N   UNL     1       4.045 -10.381  -1.976  0.00  0.00    -0.380 N 
ATOM     41  C   UNL     1       3.397  -9.415  -1.082  0.00  0.00    +0.144 C 
ATOM     42  H   UNL     1       4.545 -11.165  -1.697  0.00  0.00    +0.160 HD
ENDBRANCH  32  33
ENDBRANCH   7  32
TORSDOF 6
