REMARK  Name = ZINC39978358
REMARK  12 active torsions:
REMARK  status: ('A' for Active; 'I' for Inactive)
REMARK    1  A    between atoms: C_1  and  C_2
REMARK    2  A    between atoms: C_3  and  C_34
REMARK    3  A    between atoms: C_4  and  C_10
REMARK    4  A    between atoms: C_13  and  O_18
REMARK    5  A    between atoms: C_14  and  O_16
REMARK    6  A    between atoms: O_16  and  C_17
REMARK    7  A    between atoms: O_18  and  C_19
REMARK    8  A    between atoms: C_19  and  C_20
REMARK    9  A    between atoms: N_22  and  N_23
REMARK   10  A    between atoms: C_24  and  C_25
REMARK   11  A    between atoms: C_34  and  O_36
REMARK   12  A    between atoms: O_36  and  C_37
REMARK                            x       y       z     vdW  Elec       q    Type
REMARK                         _______ _______ _______ _____ _____    ______ ____
ROOT
ATOM      1  C   UNL     1      -1.840  -2.689  -1.222  0.00  0.00    -0.019 A 
ATOM      2  C   UNL     1      -1.221  -2.675  -2.458  0.00  0.00    +0.009 A 
ATOM      3  C   UNL     1      -1.897  -3.124  -3.577  0.00  0.00    +0.050 A 
ATOM      4  C   UNL     1      -3.197  -3.589  -3.461  0.00  0.00    +0.163 A 
ATOM      5  C   UNL     1      -3.819  -3.604  -2.217  0.00  0.00    +0.162 A 
ATOM      6  C   UNL     1      -3.135  -3.157  -1.098  0.00  0.00    +0.055 A 
ENDROOT
BRANCH   1  10
ATOM      7  C   UNL     1      -0.018   1.503   0.010  0.00  0.00    +0.061 C 
ATOM      8  C   UNL     1       0.002  -0.004   0.002  0.00  0.00    +0.021 C 
ATOM      9  C   UNL     1      -1.165  -0.684   0.004  0.00  0.00    +0.078 C 
ATOM     10  C   UNL     1      -1.098  -2.198  -0.005  0.00  0.00    +0.144 C 
ATOM     11  N   UNL     1       0.242  -2.807  -0.014  0.00  0.00    -0.288 N 
ATOM     12  C   UNL     1       1.317  -1.993  -0.015  0.00  0.00    +0.304 C 
ATOM     13  O   UNL     1       2.428  -2.486  -0.023  0.00  0.00    -0.252 OA
ATOM     14  N   UNL     1       1.200  -0.659  -0.013  0.00  0.00    -0.273 N 
ATOM     15  H   UNL     1       0.350  -3.771  -0.020  0.00  0.00    +0.151 HD
ATOM     16  H   UNL     1       2.012  -0.129  -0.018  0.00  0.00    +0.156 HD
BRANCH   9  17
ATOM     17  C   UNL     1      -2.406  -0.006   0.014  0.00  0.00    +0.338 C 
ATOM     18  O   UNL     1      -2.435   1.210   0.021  0.00  0.00    -0.245 OA
BRANCH  17  19
ATOM     19  O   UNL     1      -3.558  -0.709   0.016  0.00  0.00    -0.465 OA
ATOM     20  C   UNL     1      -4.775   0.040   0.026  0.00  0.00    +0.280 C 
ENDBRANCH  17  19
ENDBRANCH   9  17
ENDBRANCH   1  10
BRANCH   5  21
ATOM     21  O   UNL     1      -5.095  -4.060  -2.098  0.00  0.00    -0.491 OA
ATOM     22  C   UNL     1      -5.670  -4.045  -0.790  0.00  0.00    +0.277 C 
ENDBRANCH   5  21
BRANCH   4  23
ATOM     23  O   UNL     1      -3.863  -4.031  -4.562  0.00  0.00    -0.479 OA
BRANCH  23  24
ATOM     24  C   UNL     1      -3.162  -3.986  -5.806  0.00  0.00    +0.326 C 
BRANCH  24  25
ATOM     25  C   UNL     1      -4.052  -4.511  -6.903  0.00  0.00    +0.270 C 
ATOM     26  O   UNL     1      -5.176  -4.886  -6.645  0.00  0.00    -0.270 OA
ATOM     27  N   UNL     1      -3.599  -4.564  -8.171  0.00  0.00    -0.204 N 
ATOM     28  H   UNL     1      -2.700  -4.264  -8.378  0.00  0.00    +0.177 HD
BRANCH  27  29
ATOM     29  N   UNL     1      -4.426  -5.051  -9.191  0.00  0.00    -0.188 NA
ATOM     30  C   UNL     1      -3.986  -5.102 -10.423  0.00  0.00    +0.136 C 
BRANCH  30  31
ATOM     31  C   UNL     1      -4.814  -5.590 -11.444  0.00  0.00    +0.000 C 
ATOM     32  C   UNL     1      -4.500  -5.716 -12.795  0.00  0.00    +0.004 A 
ATOM     33  C   UNL     1      -3.336  -5.417 -13.537  0.00  0.00    +0.010 A 
ATOM     34  C   UNL     1      -3.312  -5.646 -14.873  0.00  0.00    +0.001 A 
ATOM     35  C   UNL     1      -4.417  -6.175 -15.546  0.00  0.00    +0.002 A 
ATOM     36  C   UNL     1      -5.567  -6.485 -14.900  0.00  0.00    +0.026 A 
ATOM     37  C   UNL     1      -5.669  -6.273 -13.499  0.00  0.00    +0.043 A 
ATOM     38  N   UNL     1      -6.656  -6.487 -12.656  0.00  0.00    -0.380 N 
ATOM     39  C   UNL     1      -6.233  -6.098 -11.307  0.00  0.00    +0.150 C 
ATOM     40  H   UNL     1      -7.525  -6.850 -12.889  0.00  0.00    +0.160 HD
ENDBRANCH  30  31
ENDBRANCH  27  29
ENDBRANCH  24  25
ENDBRANCH  23  24
ENDBRANCH   4  23
TORSDOF 9
