REMARK  Name = ZINC33959580
REMARK  11 active torsions:
REMARK  status: ('A' for Active; 'I' for Inactive)
REMARK    1  A    between atoms: C_4  and  C_7
REMARK    2  A    between atoms: N_9  and  C_10
REMARK    3  A    between atoms: C_10  and  C_11
REMARK    4  A    between atoms: C_11  and  C_12
REMARK    5  A    between atoms: C_12  and  C_13
REMARK    6  A    between atoms: C_13  and  C_14
REMARK    7  A    between atoms: C_14  and  C_16
REMARK    8  A    between atoms: C_14  and  N_33
REMARK    9  A    between atoms: N_18  and  N_19
REMARK   10  A    between atoms: C_20  and  C_21
REMARK   11  A    between atoms: C_24  and  C_26
REMARK                            x       y       z     vdW  Elec       q    Type
REMARK                         _______ _______ _______ _____ _____    ______ ____
ROOT
ATOM      1  C   UNL     1       7.215  -7.142  -0.065  0.00  0.00    +0.021 C 
ENDROOT
BRANCH   1   2
ATOM      2  N   UNL     1       7.951  -6.757  -1.277  0.00  0.00    +0.387 N 
ATOM      3  C   UNL     1       9.233  -7.470  -1.315  0.00  0.00    -0.078 C 
ATOM      4  C   UNL     1       9.969  -7.135  -2.615  0.00  0.00    -0.019 C 
ATOM      5  C   UNL     1      10.220  -5.625  -2.678  0.00  0.00    -0.004 C 
ATOM      6  C   UNL     1       8.882  -4.890  -2.562  0.00  0.00    -0.019 C 
ATOM      7  C   UNL     1       8.187  -5.308  -1.264  0.00  0.00    -0.078 C 
ATOM      8  H   UNL     1       7.408  -7.001  -2.091  0.00  0.00    -0.081 HD
ENDBRANCH   1   2
BRANCH   1   9
ATOM      9  C   UNL     1       6.908  -8.617  -0.112  0.00  0.00    +0.219 C 
ATOM     10  O   UNL     1       6.928  -9.208  -1.171  0.00  0.00    -0.276 OA
ATOM     11  N   UNL     1       6.612  -9.279   1.024  0.00  0.00    -0.208 N 
ATOM     12  H   UNL     1       6.596  -8.807   1.871  0.00  0.00    +0.177 HD
BRANCH  11  13
ATOM     13  N   UNL     1       6.327 -10.650   0.981  0.00  0.00    -0.185 NA
ATOM     14  C   UNL     1       6.040 -11.290   2.078  0.00  0.00    +0.176 C 
BRANCH  14  15
ATOM     15  C   UNL     1       5.742 -12.723   2.033  0.00  0.00    +0.148 A 
ATOM     16  C   UNL     1       5.420 -13.516   3.112  0.00  0.00    +0.051 A 
ATOM     17  C   UNL     1       5.216 -14.811   2.616  0.00  0.00    +0.050 A 
ATOM     18  C   UNL     1       5.418 -14.760   1.269  0.00  0.00    +0.136 A 
ATOM     19  O   UNL     1       5.729 -13.495   0.927  0.00  0.00    -0.454 OA
BRANCH  18  20
ATOM     20  C   UNL     1       5.308 -15.900   0.338  0.00  0.00    +0.019 A 
ATOM     21  C   UNL     1       4.965 -17.167   0.818  0.00  0.00    +0.011 A 
ATOM     22  C   UNL     1       4.864 -18.228  -0.057  0.00  0.00    +0.002 A 
ATOM     23  C   UNL     1       5.101 -18.042  -1.407  0.00  0.00    +0.020 A 
ATOM     24  C   UNL     1       5.442 -16.790  -1.890  0.00  0.00    +0.042 A 
ATOM     25  C   UNL     1       5.541 -15.717  -1.027  0.00  0.00    +0.031 A 
ATOM     26 CL   UNL     1       5.739 -16.567  -3.586  0.00  0.00    -0.084 Cl
ENDBRANCH  18  20
ENDBRANCH  14  15
ENDBRANCH  11  13
ENDBRANCH   1   9
BRANCH   1  27
ATOM     27  C   UNL     1       5.907  -6.351   0.010  0.00  0.00    -0.006 C 
BRANCH  27  28
ATOM     28  C   UNL     1       5.175  -6.699   1.307  0.00  0.00    +0.000 C 
BRANCH  28  29
ATOM     29  C   UNL     1       3.934  -5.814   1.446  0.00  0.00    +0.019 C 
BRANCH  29  30
ATOM     30  C   UNL     1       3.202  -6.162   2.743  0.00  0.00    +0.104 C 
BRANCH  30  33
ATOM     31  C   UNL     1       1.210  -5.444   3.950  0.00  0.00    +0.244 C 
ATOM     32  O   UNL     1       1.470  -6.265   4.808  0.00  0.00    -0.270 OA
ATOM     33  N   UNL     1       2.014  -5.314   2.876  0.00  0.00    -0.311 N 
ATOM     34  H   UNL     1       1.807  -4.659   2.191  0.00  0.00    +0.149 HD
BRANCH  31  38
ATOM     35  C   UNL     1      -2.233  -2.986   4.335  0.00  0.00    +0.000 A 
ATOM     36  C   UNL     1      -1.940  -3.920   5.313  0.00  0.00    +0.001 A 
ATOM     37  C   UNL     1      -0.824  -4.721   5.194  0.00  0.00    +0.013 A 
ATOM     38  C   UNL     1       0.012  -4.589   4.083  0.00  0.00    +0.037 A 
ATOM     39  C   UNL     1      -0.289  -3.645   3.100  0.00  0.00    +0.013 A 
ATOM     40  C   UNL     1      -1.409  -2.850   3.231  0.00  0.00    +0.001 A 
ENDBRANCH  31  38
ENDBRANCH  30  33
ENDBRANCH  29  30
ENDBRANCH  28  29
ENDBRANCH  27  28
ENDBRANCH   1  27
TORSDOF 11
