REMARK  Name = ZINC20908693
REMARK  9 active torsions:
REMARK  status: ('A' for Active; 'I' for Inactive)
REMARK    1  A    between atoms: C_1  and  C_2
REMARK    2  A    between atoms: C_2  and  C_3
REMARK    3  A    between atoms: C_2  and  N_4
REMARK    4  A    between atoms: C_5  and  C_7
REMARK    5  A    between atoms: C_10  and  S_24
REMARK    6  A    between atoms: N_13  and  C_14
REMARK    7  A    between atoms: C_14  and  C_15
REMARK    8  A    between atoms: C_16  and  C_17
REMARK    9  A    between atoms: S_24  and  C_25
REMARK                            x       y       z     vdW  Elec       q    Type
REMARK                         _______ _______ _______ _____ _____    ______ ____
ROOT
ATOM      1  C   UNL     1      -3.231  -2.316  -0.350  0.00  0.00    +0.144 C 
ATOM      2  C   UNL     1      -3.945  -2.362   1.013  0.00  0.00    +0.044 C 
ATOM      3  C   UNL     1      -4.448  -3.817   1.156  0.00  0.00    +0.070 C 
ATOM      4  C   UNL     1      -4.497  -4.312  -0.311  0.00  0.00    +0.100 C 
ATOM      5  N   UNL     1      -3.303  -3.675  -0.929  0.00  0.00    -0.285 NA
ENDROOT
BRANCH   1   7
ATOM      6  N   UNL     1      -1.490  -0.709   0.363  0.00  0.00    -0.312 N 
ATOM      7  C   UNL     1      -1.791  -1.914  -0.162  0.00  0.00    +0.231 C 
ATOM      8  O   UNL     1      -0.902  -2.674  -0.483  0.00  0.00    -0.274 OA
ATOM      9  H   UNL     1      -2.201  -0.101   0.619  0.00  0.00    +0.149 HD
BRANCH   6  11
ATOM     10  C   UNL     1       0.018   1.208   0.544  0.00  0.00    +0.027 C 
ATOM     11  C   UNL     1      -0.090  -0.318   0.546  0.00  0.00    +0.067 C 
ATOM     12  C   UNL     1       0.421  -0.864   1.881  0.00  0.00    +0.027 C 
ENDBRANCH   6  11
ENDBRANCH   1   7
BRANCH   5  13
ATOM     13  C   UNL     1      -3.428  -3.618  -2.392  0.00  0.00    +0.132 C 
BRANCH  13  14
ATOM     14  C   UNL     1      -3.252  -5.001  -2.965  0.00  0.00    +0.033 C 
ATOM     15  C   UNL     1      -4.265  -5.596  -3.584  0.00  0.00    +0.024 C 
ATOM     16 CL   UNL     1      -1.726  -5.814  -2.816  0.00  0.00    -0.087 Cl
BRANCH  15  17
ATOM     17  C   UNL     1      -4.050  -6.879  -4.286  0.00  0.00    -0.024 A 
ATOM     18  C   UNL     1      -5.071  -7.829  -4.337  0.00  0.00    +0.008 A 
ATOM     19  C   UNL     1      -4.864  -9.024  -4.994  0.00  0.00    +0.001 A 
ATOM     20  C   UNL     1      -3.648  -9.281  -5.602  0.00  0.00    +0.000 A 
ATOM     21  C   UNL     1      -2.632  -8.343  -5.556  0.00  0.00    +0.001 A 
ATOM     22  C   UNL     1      -2.828  -7.142  -4.906  0.00  0.00    +0.008 A 
ENDBRANCH  15  17
ENDBRANCH  13  14
ENDBRANCH   5  13
BRANCH   3  23
ATOM     23  S   UNL     1      -6.099  -3.854   1.906  0.00  0.00    -0.083 S 
BRANCH  23  24
ATOM     24  C   UNL     1      -6.432  -5.572   2.119  0.00  0.00    +0.168 A 
ATOM     25  N   UNL     1      -7.579  -6.089   2.652  0.00  0.00    -0.333 N 
ATOM     26  H   UNL     1      -8.342  -5.585   2.975  0.00  0.00    +0.168 HD
ATOM     27  C   UNL     1      -7.448  -7.468   2.646  0.00  0.00    +0.067 A 
ATOM     28  C   UNL     1      -8.265  -8.513   3.051  0.00  0.00    +0.028 A 
ATOM     29  C   UNL     1      -7.836  -9.816   2.908  0.00  0.00    +0.002 A 
ATOM     30  C   UNL     1      -6.591 -10.089   2.361  0.00  0.00    +0.002 A 
ATOM     31  C   UNL     1      -5.767  -9.065   1.953  0.00  0.00    +0.030 A 
ATOM     32  C   UNL     1      -6.187  -7.739   2.091  0.00  0.00    +0.090 A 
ATOM     33  N   UNL     1      -5.619  -6.543   1.785  0.00  0.00    -0.222 NA
ENDBRANCH  23  24
ENDBRANCH   3  23
TORSDOF 7
