REMARK  Name = ZINC19354139
REMARK  6 active torsions:
REMARK  status: ('A' for Active; 'I' for Inactive)
REMARK    1  A    between atoms: C_1  and  C_2
REMARK    2  A    between atoms: C_2  and  C_3
REMARK    3  A    between atoms: C_3  and  C_4
REMARK    4  A    between atoms: C_4  and  N_5
REMARK    5  A    between atoms: C_7  and  C_11
REMARK    6  A    between atoms: C_8  and  C_10
REMARK                            x       y       z     vdW  Elec       q    Type
REMARK                         _______ _______ _______ _____ _____    ______ ____
ROOT
ATOM      1  C   UNL     1       1.629  -3.572  -5.951  0.00  0.00    +0.213 C 
ATOM      2  N   UNL     1       0.513  -4.531  -6.061  0.00  0.00    -0.294 N 
ATOM      3  C   UNL     1      -0.779  -4.023  -6.066  0.00  0.00    +0.159 C 
ATOM      4  N   UNL     1      -1.696  -4.473  -5.258  0.00  0.00    -0.375 N 
ATOM      5  N   UNL     1      -1.044  -3.004  -6.982  0.00  0.00    -0.259 N 
ATOM      6  C   UNL     1       0.020  -2.136  -7.224  0.00  0.00    +0.205 A 
ATOM      7  N   UNL     1       1.286  -2.393  -6.752  0.00  0.00    -0.288 N 
ATOM      8  C   UNL     1       2.101  -1.363  -7.170  0.00  0.00    +0.076 A 
ATOM      9  C   UNL     1       3.450  -1.074  -7.014  0.00  0.00    +0.077 A 
ATOM     10  C   UNL     1       3.975   0.073  -7.577  0.00  0.00    +0.164 A 
ATOM     11  C   UNL     1       3.162   0.942  -8.299  0.00  0.00    +0.164 A 
ATOM     12  C   UNL     1       1.819   0.670  -8.460  0.00  0.00    +0.079 A 
ATOM     13  C   UNL     1       1.275  -0.487  -7.896  0.00  0.00    +0.095 A 
ATOM     14  N   UNL     1       0.016  -1.016  -7.886  0.00  0.00    -0.214 NA
ATOM     15  O   UNL     1       3.701   2.069  -8.850  0.00  0.00    -0.488 OA
ATOM     16  C   UNL     1       4.131   3.072  -7.928  0.00  0.00    +0.232 C 
ATOM     17  C   UNL     1       5.537   2.780  -7.429  0.00  0.00    +0.082 C 
ATOM     18  C   UNL     1       5.607   1.497  -6.615  0.00  0.00    +0.232 C 
ATOM     19  O   UNL     1       5.302   0.362  -7.427  0.00  0.00    -0.488 OA
ATOM     20  H   UNL     1       0.676  -5.484  -6.128  0.00  0.00    +0.151 HD
ATOM     21  H   UNL     1      -1.905  -2.907  -7.418  0.00  0.00    +0.158 HD
ATOM     22  H   UNL     1      -1.484  -5.183  -4.631  0.00  0.00    +0.158 HD
ATOM     23  H   UNL     1      -2.590  -4.100  -5.283  0.00  0.00    +0.158 HD
ENDROOT
BRANCH   1  26
ATOM     24  N   UNL     1       1.439  -2.436  -2.490  0.00  0.00    -0.252 N 
ATOM     25  C   UNL     1       0.870  -2.657  -3.694  0.00  0.00    +0.134 A 
ATOM     26  C   UNL     1       1.819  -3.174  -4.510  0.00  0.00    +0.052 A 
ATOM     27  C   UNL     1       3.008  -3.271  -3.779  0.00  0.00    +0.068 A 
ATOM     28  N   UNL     1       2.782  -2.824  -2.571  0.00  0.00    -0.175 NA
ATOM     29  C   UNL     1       4.323  -3.795  -4.297  0.00  0.00    +0.068 C 
ATOM     30 CL   UNL     1      -0.783  -2.337  -4.120  0.00  0.00    -0.062 Cl
BRANCH  24  31
ATOM     31  C   UNL     1       0.770  -1.883  -1.309  0.00  0.00    +0.145 C 
BRANCH  31  32
ATOM     32  C   UNL     1       0.898  -0.358  -1.319  0.00  0.00    +0.023 C 
BRANCH  32  34
ATOM     33  C   UNL     1       0.327   1.744  -0.096  0.00  0.00    +0.004 C 
ATOM     34  C   UNL     1       0.200   0.220  -0.086  0.00  0.00    -0.002 C 
ENDBRANCH  32  34
ENDBRANCH  31  32
ENDBRANCH  24  31
ENDBRANCH   1  26
TORSDOF 4
