REMARK  Name = ZINC67642196
REMARK  7 active torsions:
REMARK  status: ('A' for Active; 'I' for Inactive)
REMARK    1  A    between atoms: C_1  and  C_2
REMARK    2  A    between atoms: C_4  and  C_14
REMARK    3  A    between atoms: C_18  and  N_29
REMARK    4  A    between atoms: C_21  and  C_23
REMARK    5  A    between atoms: N_25  and  C_26
REMARK    6  A    between atoms: C_26  and  C_27
REMARK    7  A    between atoms: C_26  and  C_28
REMARK                            x       y       z     vdW  Elec       q    Type
REMARK                         _______ _______ _______ _____ _____    ______ ____
ROOT
ATOM      1  C   UNL     1      -0.022   0.754  -3.104  0.00  0.00    +0.248 C 
ATOM      2  O   UNL     1       1.021   1.335  -3.329  0.00  0.00    -0.270 OA
ATOM      3  N   UNL     1      -1.199   1.366  -3.343  0.00  0.00    -0.288 N 
ATOM      4  C   UNL     1      -2.530   0.785  -3.111  0.00  0.00    +0.093 C 
ATOM      5  C   UNL     1      -3.571   1.855  -3.501  0.00  0.00    -0.055 C 
ATOM      6  C   UNL     1      -2.767   3.178  -3.395  0.00  0.00    +0.017 C 
ATOM      7  C   UNL     1      -1.366   2.731  -3.875  0.00  0.00    +0.161 C 
ENDROOT
BRANCH   1  11
ATOM      8  C   UNL     1      -0.018   1.503   0.010  0.00  0.00    +0.070 C 
ATOM      9  C   UNL     1       0.002  -0.004   0.002  0.00  0.00    +0.091 A 
ATOM     10  C   UNL     1       0.008  -0.864  -1.181  0.00  0.00    +0.076 A 
ATOM     11  C   UNL     1      -0.001  -0.625  -2.568  0.00  0.00    +0.056 A 
ATOM     12  C   UNL     1       0.010  -1.728  -3.421  0.00  0.00    -0.013 A 
ATOM     13  C   UNL     1       0.030  -3.006  -2.884  0.00  0.00    +0.049 A 
ATOM     14  N   UNL     1       0.039  -3.194  -1.577  0.00  0.00    -0.215 NA
ATOM     15  C   UNL     1       0.029  -2.190  -0.716  0.00  0.00    +0.259 A 
ATOM     16  O   UNL     1       0.034  -2.131   0.632  0.00  0.00    -0.334 OA
ATOM     17  N   UNL     1       0.023  -0.779   1.043  0.00  0.00    -0.080 NA
ATOM     18  C   UNL     1       0.040  -4.024  -4.008  0.00  0.00    +0.056 C 
ATOM     19  C   UNL     1      -0.419  -3.250  -5.261  0.00  0.00    +0.011 C 
ATOM     20  C   UNL     1       0.003  -1.802  -4.931  0.00  0.00    +0.038 C 
ENDBRANCH   1  11
BRANCH   7  21
ATOM     21  C   UNL     1      -0.304   3.644  -3.317  0.00  0.00    +0.234 C 
ATOM     22  O   UNL     1       0.303   3.327  -2.316  0.00  0.00    -0.274 OA
ATOM     23  N   UNL     1      -0.030   4.812  -3.930  0.00  0.00    -0.311 N 
ATOM     24  H   UNL     1      -0.515   5.066  -4.730  0.00  0.00    +0.149 HD
BRANCH  23  25
ATOM     25  C   UNL     1       1.002   5.700  -3.387  0.00  0.00    +0.067 C 
ATOM     26  C   UNL     1       2.373   5.270  -3.914  0.00  0.00    +0.027 C 
ATOM     27  C   UNL     1       0.717   7.139  -3.822  0.00  0.00    +0.027 C 
ENDBRANCH  23  25
ENDBRANCH   7  21
BRANCH   5  28
ATOM     28  N   UNL     1      -4.698   1.851  -2.559  0.00  0.00    +0.381 N 
ATOM     29  H   UNL     1      -4.357   2.025  -1.625  0.00  0.00    -0.090 HD
ATOM     30  H   UNL     1      -5.355   2.572  -2.817  0.00  0.00    -0.090 HD
ATOM     31  H   UNL     1      -5.157   0.953  -2.587  0.00  0.00    -0.090 HD
ENDBRANCH   5  28
TORSDOF 4
