REMARK  Name = ZINC59019615
REMARK  10 active torsions:
REMARK  status: ('A' for Active; 'I' for Inactive)
REMARK    1  A    between atoms: C_1  and  C_2
REMARK    2  A    between atoms: C_5  and  C_8
REMARK    3  A    between atoms: N_9  and  N_10
REMARK    4  A    between atoms: C_13  and  S_16
REMARK    5  A    between atoms: S_16  and  C_17
REMARK    6  A    between atoms: C_17  and  C_18
REMARK    7  A    between atoms: N_20  and  C_21
REMARK    8  A    between atoms: C_28  and  S_30
REMARK    9  A    between atoms: S_30  and  C_31
REMARK   10  A    between atoms: C_31  and  C_32
REMARK                            x       y       z     vdW  Elec       q    Type
REMARK                         _______ _______ _______ _____ _____    ______ ____
ROOT
ATOM      1  S   UNL     1      -0.268  -7.210   6.185  0.00  0.00    -0.075 S 
ENDROOT
BRANCH   1   5
ATOM      2  N   UNL     1      -0.433  -6.265   1.133  0.00  0.00    -0.205 N 
ATOM      3  C   UNL     1      -0.318  -6.967   2.318  0.00  0.00    +0.232 A 
ATOM      4  N   UNL     1      -0.396  -6.458   3.530  0.00  0.00    -0.186 NA
ATOM      5  C   UNL     1      -0.238  -7.428   4.437  0.00  0.00    +0.211 A 
ATOM      6  N   UNL     1      -0.059  -8.568   3.814  0.00  0.00    -0.144 NA
ATOM      7  N   UNL     1      -0.112  -8.296   2.438  0.00  0.00    -0.245 N 
ATOM      8  H   UNL     1      -0.366  -6.732   0.285  0.00  0.00    +0.177 HD
ATOM      9  H   UNL     1      -0.018  -8.936   1.715  0.00  0.00    +0.192 HD
BRANCH   2  11
ATOM     10  C   UNL     1      -0.755  -4.222   0.042  0.00  0.00    +0.138 C 
ATOM     11  N   UNL     1      -0.647  -4.881   1.156  0.00  0.00    -0.188 NA
BRANCH  10  16
ATOM     12  C   UNL     1      -1.633   1.461   0.138  0.00  0.00    +0.044 C 
ATOM     13  C   UNL     1      -1.403  -0.028   0.113  0.00  0.00    -0.050 A 
ATOM     14  C   UNL     1      -1.308  -0.690  -1.099  0.00  0.00    +0.004 A 
ATOM     15  C   UNL     1      -1.097  -2.053  -1.129  0.00  0.00    +0.010 A 
ATOM     16  C   UNL     1      -0.980  -2.765   0.067  0.00  0.00    -0.005 A 
ATOM     17  C   UNL     1      -1.077  -2.090   1.286  0.00  0.00    +0.010 A 
ATOM     18  C   UNL     1      -1.283  -0.726   1.301  0.00  0.00    +0.004 A 
ENDBRANCH  10  16
ENDBRANCH   2  11
ENDBRANCH   1   5
BRANCH   1  19
ATOM     19  C   UNL     1      -0.000  -8.880   6.840  0.00  0.00    +0.173 C 
BRANCH  19  20
ATOM     20  C   UNL     1      -0.003  -8.835   8.347  0.00  0.00    +0.227 C 
ATOM     21  O   UNL     1      -0.169  -7.780   8.922  0.00  0.00    -0.275 OA
ATOM     22  N   UNL     1       0.180  -9.967   9.055  0.00  0.00    -0.285 N 
ATOM     23  H   UNL     1       0.236 -10.821   8.599  0.00  0.00    +0.155 HD
BRANCH  22  24
ATOM     24  C   UNL     1       0.288  -9.910  10.451  0.00  0.00    +0.035 A 
ATOM     25  C   UNL     1      -0.186 -10.957  11.238  0.00  0.00    +0.025 A 
ATOM     26  C   UNL     1      -0.091 -10.923  12.604  0.00  0.00    +0.031 A 
ATOM     27  C   UNL     1       0.495  -9.817  13.263  0.00  0.00    +0.080 A 
ATOM     28  C   UNL     1       0.965  -8.773  12.435  0.00  0.00    +0.042 A 
ATOM     29  C   UNL     1       0.874  -8.812  11.067  0.00  0.00    +0.040 A 
ATOM     30  S   UNL     1       1.609  -7.613  13.617  0.00  0.00    -0.061 S 
ATOM     31  C   UNL     1       1.226  -8.554  15.088  0.00  0.00    +0.136 A 
ATOM     32  N   UNL     1       0.663  -9.633  14.591  0.00  0.00    -0.233 NA
BRANCH  31  33
ATOM     33  S   UNL     1       1.528  -8.141  16.774  0.00  0.00    -0.095 S 
BRANCH  33  34
ATOM     34  C   UNL     1       0.877  -9.561  17.696  0.00  0.00    +0.103 C 
BRANCH  34  35
ATOM     35  C   UNL     1       1.075  -9.334  19.173  0.00  0.00    -0.023 C 
ATOM     36  C   UNL     1       0.036  -9.202  19.960  0.00  0.00    +0.005 C 
ENDBRANCH  34  35
ENDBRANCH  33  34
ENDBRANCH  31  33
ENDBRANCH  22  24
ENDBRANCH  19  20
ENDBRANCH   1  19
TORSDOF 9
