REMARK  Name = ZINC44163231
REMARK  8 active torsions:
REMARK  status: ('A' for Active; 'I' for Inactive)
REMARK    1  A    between atoms: C_1  and  S_2
REMARK    2  A    between atoms: S_2  and  C_3
REMARK    3  A    between atoms: C_7  and  N_9
REMARK    4  A    between atoms: C_13  and  C_15
REMARK    5  A    between atoms: C_18  and  CA_20
REMARK    6  A    between atoms: CA_20  and  C_22
REMARK    7  A    between atoms: CA_20  and  N_24
REMARK    8  A    between atoms: C_22  and  O_23
REMARK                            x       y       z     vdW  Elec       q    Type
REMARK                         _______ _______ _______ _____ _____    ______ ____
ROOT
ATOM      1  N   UNL     1      -3.782  -3.489   0.030  0.00  0.00    -0.268 N 
ATOM      2  C   UNL     1      -5.116  -3.838   0.146  0.00  0.00    +0.312 A 
ATOM      3  N   UNL     1      -6.135  -3.013   0.163  0.00  0.00    -0.092 NA
ATOM      4  N   UNL     1      -7.227  -3.683   0.283  0.00  0.00    -0.104 NA
ATOM      5  C   UNL     1      -6.948  -4.962   0.347  0.00  0.00    +0.271 A 
ATOM      6  O   UNL     1      -5.606  -5.088   0.257  0.00  0.00    -0.403 OA
ATOM      7  H   UNL     1      -3.107  -4.179  -0.062  0.00  0.00    +0.157 HD
ENDROOT
BRANCH   1  12
ATOM      8  C   UNL     1      -1.865  -0.403  -0.554  0.00  0.00    +0.009 A 
ATOM      9  C   UNL     1      -2.675   0.530   0.085  0.00  0.00    +0.015 A 
ATOM     10  C   UNL     1      -3.844   0.127   0.699  0.00  0.00    +0.003 A 
ATOM     11  C   UNL     1      -4.213  -1.205   0.683  0.00  0.00    +0.023 A 
ATOM     12  C   UNL     1      -3.408  -2.143   0.047  0.00  0.00    +0.036 A 
ATOM     13  C   UNL     1      -2.236  -1.740  -0.577  0.00  0.00    +0.038 A 
BRANCH   8  15
ATOM     14  C   UNL     1      -0.321   1.903  -1.046  0.00  0.00    +0.090 C 
ATOM     15  S   UNL     1      -0.374   0.114  -1.338  0.00  0.00    -0.129 S 
ENDBRANCH   8  15
ENDBRANCH   1  12
BRANCH   5  16
ATOM     16  C   UNL     1      -7.923  -6.064   0.488  0.00  0.00    +0.165 A 
ATOM     17  C   UNL     1      -7.636  -7.389   0.562  0.00  0.00    +0.230 A 
ATOM     18  O   UNL     1      -8.809  -8.039   0.683  0.00  0.00    -0.449 OA
ATOM     19  C   UNL     1      -9.792  -7.128   0.684  0.00  0.00    +0.184 A 
ATOM     20  N   UNL     1      -9.274  -5.940   0.573  0.00  0.00    -0.210 NA
BRANCH  19  21
ATOM     21  CA  UNL     1     -11.263  -7.431   0.800  0.00  0.00    +0.039 C 
BRANCH  21  22
ATOM     22  N   UNL     1     -11.603  -8.555  -0.084  0.00  0.00    +0.387 N 
ATOM     23  H1  UNL     1     -11.070  -9.368   0.186  0.00  0.00    -0.089 HD
ATOM     24  H2  UNL     1     -12.588  -8.758  -0.006  0.00  0.00    -0.089 HD
ATOM     25  H3  UNL     1     -11.384  -8.310  -1.038  0.00  0.00    -0.089 HD
ENDBRANCH  21  22
BRANCH  21  26
ATOM     26  C   UNL     1     -11.595  -7.802   2.247  0.00  0.00    +0.149 C 
BRANCH  26  27
ATOM     27  O   UNL     1     -13.007  -7.976   2.382  0.00  0.00    -0.396 OA
ATOM     28  H   UNL     1     -13.290  -8.213   3.276  0.00  0.00    +0.209 HD
ENDBRANCH  26  27
ENDBRANCH  21  26
ENDBRANCH  19  21
ENDBRANCH   5  16
TORSDOF 7
