REMARK  Name = ZINC38154610
REMARK  9 active torsions:
REMARK  status: ('A' for Active; 'I' for Inactive)
REMARK    1  A    between atoms: C_1  and  O_2
REMARK    2  A    between atoms: O_2  and  C_3
REMARK    3  A    between atoms: C_6  and  O_9
REMARK    4  A    between atoms: O_9  and  C_10
REMARK    5  A    between atoms: C_10  and  C_11
REMARK    6  A    between atoms: N_13  and  N_14
REMARK    7  A    between atoms: C_16  and  C_27
REMARK    8  A    between atoms: C_22  and  O_25
REMARK    9  A    between atoms: O_25  and  C_26
REMARK                            x       y       z     vdW  Elec       q    Type
REMARK                         _______ _______ _______ _____ _____    ______ ____
ROOT
ATOM      1  N   UNL     1       3.962  -6.124  -6.896  0.00  0.00    -0.273 N 
ATOM      2  C   UNL     1       4.089  -7.405  -7.112  0.00  0.00    +0.224 A 
ATOM      3  C   UNL     1       4.679  -7.912  -8.371  0.00  0.00    +0.098 A 
ATOM      4  C   UNL     1       5.288  -9.144  -8.329  0.00  0.00    +0.030 A 
ATOM      5  C   UNL     1       5.303  -9.851  -7.044  0.00  0.00    +0.022 A 
ATOM      6  C   UNL     1       6.123 -10.969  -6.852  0.00  0.00    +0.012 A 
ATOM      7  C   UNL     1       6.124 -11.616  -5.636  0.00  0.00    +0.004 A 
ATOM      8  C   UNL     1       5.318 -11.166  -4.602  0.00  0.00    +0.049 A 
ATOM      9  C   UNL     1       4.499 -10.062  -4.775  0.00  0.00    +0.163 A 
ATOM     10  C   UNL     1       4.484  -9.397  -5.996  0.00  0.00    +0.179 A 
ATOM     11  O   UNL     1       3.688  -8.318  -6.183  0.00  0.00    -0.434 OA
ATOM     12  H   UNL     1       4.327  -5.487  -7.529  0.00  0.00    +0.188 HD
ENDROOT
BRANCH   3  13
ATOM     13  C   UNL     1       4.615  -7.130  -9.617  0.00  0.00    +0.247 C 
ATOM     14  O   UNL     1       4.147  -6.007  -9.608  0.00  0.00    -0.270 OA
ATOM     15  N   UNL     1       5.076  -7.657 -10.769  0.00  0.00    -0.325 N 
ATOM     16  H   UNL     1       5.381  -8.578 -10.792  0.00  0.00    +0.145 HD
ATOM     17  H   UNL     1       5.103  -7.117 -11.573  0.00  0.00    +0.145 HD
ENDBRANCH   3  13
BRANCH   1  20
ATOM     18  C   UNL     1       3.169  -4.346  -5.525  0.00  0.00    +0.268 C 
ATOM     19  O   UNL     1       3.625  -3.549  -6.318  0.00  0.00    -0.270 OA
ATOM     20  N   UNL     1       3.300  -5.669  -5.748  0.00  0.00    -0.224 N 
ATOM     21  H   UNL     1       2.935  -6.306  -5.114  0.00  0.00    +0.175 HD
BRANCH  18  22
ATOM     22  C   UNL     1       2.456  -3.858  -4.290  0.00  0.00    +0.326 C 
BRANCH  22  23
ATOM     23  O   UNL     1       2.448  -2.429  -4.279  0.00  0.00    -0.483 OA
BRANCH  23  27
ATOM     24  C   UNL     1       0.597  -0.589  -1.080  0.00  0.00    +0.120 A 
ATOM     25  C   UNL     1       1.175   0.177  -2.082  0.00  0.00    +0.049 A 
ATOM     26  C   UNL     1       1.795  -0.438  -3.152  0.00  0.00    +0.049 A 
ATOM     27  C   UNL     1       1.839  -1.823  -3.225  0.00  0.00    +0.121 A 
ATOM     28  C   UNL     1       1.262  -2.589  -2.224  0.00  0.00    +0.049 A 
ATOM     29  C   UNL     1       0.646  -1.974  -1.151  0.00  0.00    +0.049 A 
BRANCH  24  31
ATOM     30  C   UNL     1      -0.025   1.446  -0.019  0.00  0.00    +0.277 C 
ATOM     31  O   UNL     1      -0.013   0.017  -0.027  0.00  0.00    -0.495 OA
ENDBRANCH  24  31
ENDBRANCH  23  27
ENDBRANCH  22  23
ENDBRANCH  18  22
ENDBRANCH   1  20
BRANCH   9  32
ATOM     32  O   UNL     1       3.712  -9.630  -3.754  0.00  0.00    -0.491 OA
ATOM     33  C   UNL     1       3.780 -10.362  -2.528  0.00  0.00    +0.277 C 
ENDBRANCH   9  32
TORSDOF 7
