REMARK  Name = ZINC59020677
REMARK  7 active torsions:
REMARK  status: ('A' for Active; 'I' for Inactive)
REMARK    1  A    between atoms: C_1  and  C_2
REMARK    2  A    between atoms: C_2  and  C_23
REMARK    3  A    between atoms: N_3  and  N_4
REMARK    4  A    between atoms: C_7  and  S_10
REMARK    5  A    between atoms: S_10  and  C_11
REMARK    6  A    between atoms: C_11  and  C_12
REMARK    7  A    between atoms: N_14  and  C_15
REMARK                            x       y       z     vdW  Elec       q    Type
REMARK                         _______ _______ _______ _____ _____    ______ ____
ROOT
ATOM      1  N   UNL     1       1.240  -2.016   1.393  0.00  0.00    -0.205 N 
ATOM      2  C   UNL     1       0.606  -1.836   2.608  0.00  0.00    +0.232 A 
ATOM      3  N   UNL     1       1.052  -1.115   3.615  0.00  0.00    -0.186 NA
ATOM      4  C   UNL     1       0.179  -1.166   4.627  0.00  0.00    +0.211 A 
ATOM      5  N   UNL     1      -0.835  -1.921   4.277  0.00  0.00    -0.144 NA
ATOM      6  N   UNL     1      -0.584  -2.363   2.968  0.00  0.00    -0.245 N 
ATOM      7  H   UNL     1       0.828  -2.564   0.707  0.00  0.00    +0.177 HD
ATOM      8  H   UNL     1      -1.152  -2.936   2.430  0.00  0.00    +0.192 HD
ENDROOT
BRANCH   1  11
ATOM      9  C   UNL     1       4.411  -0.946  -0.250  0.00  0.00    +0.068 C 
ATOM     10  C   UNL     1       3.017  -1.474  -0.027  0.00  0.00    +0.063 C 
ATOM     11  N   UNL     1       2.479  -1.406   1.152  0.00  0.00    -0.184 NA
BRANCH  10  12
ATOM     12  C   UNL     1       2.264  -2.066  -1.148  0.00  0.00    -0.002 A 
ATOM     13  C   UNL     1       0.879  -1.901  -1.228  0.00  0.00    +0.011 A 
ATOM     14  C   UNL     1       0.181  -2.457  -2.280  0.00  0.00    +0.016 A 
ATOM     15  C   UNL     1       0.850  -3.177  -3.255  0.00  0.00    +0.018 A 
ATOM     16  C   UNL     1       2.223  -3.344  -3.182  0.00  0.00    +0.016 A 
ATOM     17  C   UNL     1       2.933  -2.789  -2.138  0.00  0.00    +0.011 A 
ATOM     18 BR   UNL     1      -0.115  -3.936  -4.693  0.00  0.00    -0.050 Br
ENDBRANCH  10  12
ENDBRANCH   1  11
BRANCH   4  19
ATOM     19  S   UNL     1       0.362  -0.352   6.179  0.00  0.00    -0.075 S 
BRANCH  19  20
ATOM     20  C   UNL     1      -1.134  -0.813   7.096  0.00  0.00    +0.173 C 
BRANCH  20  21
ATOM     21  C   UNL     1      -1.104  -0.174   8.460  0.00  0.00    +0.228 C 
ATOM     22  O   UNL     1      -0.166   0.523   8.783  0.00  0.00    -0.275 OA
ATOM     23  N   UNL     1      -2.120  -0.378   9.322  0.00  0.00    -0.282 N 
ATOM     24  H   UNL     1      -2.907  -0.868   9.037  0.00  0.00    +0.155 HD
BRANCH  23  25
ATOM     25  C   UNL     1      -2.039   0.117  10.629  0.00  0.00    +0.070 A 
ATOM     26  C   UNL     1      -1.736   1.455  10.849  0.00  0.00    +0.064 A 
ATOM     27  C   UNL     1      -1.657   1.941  12.141  0.00  0.00    +0.022 A 
ATOM     28  C   UNL     1      -1.880   1.097  13.213  0.00  0.00    +0.003 A 
ATOM     29  C   UNL     1      -2.182  -0.235  12.998  0.00  0.00    +0.022 A 
ATOM     30  C   UNL     1      -2.268  -0.726  11.709  0.00  0.00    +0.064 A 
ATOM     31 CL   UNL     1      -2.655  -2.397  11.440  0.00  0.00    -0.082 Cl
ATOM     32 CL   UNL     1      -1.456   2.515   9.503  0.00  0.00    -0.082 Cl
ENDBRANCH  23  25
ENDBRANCH  20  21
ENDBRANCH  19  20
ENDBRANCH   4  19
TORSDOF 6
