REMARK  Name = ZINC39671940
REMARK  5 active torsions:
REMARK  status: ('A' for Active; 'I' for Inactive)
REMARK    1  A    between atoms: C_6  and  C_10
REMARK    2  A    between atoms: C_10  and  N_11
REMARK    3  A    between atoms: C_12  and  C_14
REMARK    4  A    between atoms: C_25  and  C_27
REMARK    5  A    between atoms: C_29  and  C_34
REMARK                            x       y       z     vdW  Elec       q    Type
REMARK                         _______ _______ _______ _____ _____    ______ ____
ROOT
ATOM      1  C   UNL     1       5.146  -5.246   2.640  0.00  0.00    +0.100 C 
ATOM      2  C   UNL     1       5.862  -4.386   3.706  0.00  0.00    +0.121 C 
ATOM      3  N   UNL     1       6.572  -5.366   4.562  0.00  0.00    -0.296 N 
ATOM      4  C   UNL     1       7.086  -6.381   3.611  0.00  0.00    +0.115 C 
ATOM      5  C   UNL     1       5.953  -6.554   2.580  0.00  0.00    -0.004 C 
ATOM      6  C   UNL     1       6.537  -6.752   1.184  0.00  0.00    -0.010 C 
ATOM      7  C   UNL     1       7.285  -8.087   1.133  0.00  0.00    -0.082 C 
ATOM      8  N   UNL     1       6.362  -9.180   1.459  0.00  0.00    +0.379 N 
ATOM      9  C   UNL     1       5.877  -9.033   2.837  0.00  0.00    -0.082 C 
ATOM     10  C   UNL     1       5.069  -7.738   2.960  0.00  0.00    -0.010 C 
ATOM     11  C   UNL     1       6.717  -5.340   5.901  0.00  0.00    +0.247 C 
ATOM     12  O   UNL     1       6.127  -4.507   6.561  0.00  0.00    -0.270 OA
ATOM     13  H   UNL     1       5.578  -9.157   0.824  0.00  0.00    -0.086 HD
ATOM     14  H   UNL     1       6.841 -10.063   1.365  0.00  0.00    -0.086 HD
ENDROOT
BRANCH  11  15
ATOM     15  C   UNL     1       7.594  -6.325   6.569  0.00  0.00    +0.040 A 
ATOM     16  C   UNL     1       7.429  -6.604   7.927  0.00  0.00    +0.025 A 
ATOM     17  C   UNL     1       8.250  -7.525   8.545  0.00  0.00    +0.058 A 
ATOM     18  C   UNL     1       9.236  -8.172   7.823  0.00  0.00    +0.050 A 
ATOM     19  C   UNL     1       9.407  -7.900   6.475  0.00  0.00    +0.125 A 
ATOM     20  C   UNL     1       8.587  -6.984   5.843  0.00  0.00    +0.051 A 
ATOM     21  F   UNL     1      10.373  -8.535   5.776  0.00  0.00    -0.205 F 
BRANCH  17  22
ATOM     22  C   UNL     1       8.072  -7.825  10.011  0.00  0.00    +0.418 C 
ATOM     23  F   UNL     1       7.165  -8.880  10.164  0.00  0.00    -0.166 F 
ATOM     24  F   UNL     1       9.304  -8.186  10.566  0.00  0.00    -0.166 F 
ATOM     25  F   UNL     1       7.580  -6.690  10.664  0.00  0.00    -0.166 F 
ENDBRANCH  17  22
ENDBRANCH  11  15
BRANCH   1  27
ATOM     26  N   UNL     1       4.173  -4.751   0.420  0.00  0.00    -0.309 N 
ATOM     27  C   UNL     1       5.173  -4.552   1.302  0.00  0.00    +0.219 C 
ATOM     28  O   UNL     1       6.093  -3.814   1.020  0.00  0.00    -0.275 OA
ATOM     29  H   UNL     1       3.438  -5.341   0.646  0.00  0.00    +0.149 HD
BRANCH  26  30
ATOM     30  C   UNL     1       4.199  -4.076  -0.880  0.00  0.00    +0.161 C 
BRANCH  30  36
ATOM     31  C   UNL     1      -0.261  -6.238  -4.255  0.00  0.00    +0.005 A 
ATOM     32  C   UNL     1      -0.926  -5.087  -3.801  0.00  0.00    +0.018 A 
ATOM     33  C   UNL     1      -0.305  -4.226  -2.967  0.00  0.00    +0.092 A 
ATOM     34  N   UNL     1       0.974  -4.459  -2.553  0.00  0.00    -0.306 N 
ATOM     35  C   UNL     1       1.821  -3.768  -1.730  0.00  0.00    +0.117 A 
ATOM     36  C   UNL     1       2.977  -4.465  -1.672  0.00  0.00    +0.077 A 
ATOM     37  N   UNL     1       2.857  -5.556  -2.433  0.00  0.00    -0.231 NA
ATOM     38  C   UNL     1       1.649  -5.574  -2.978  0.00  0.00    +0.138 A 
ATOM     39  C   UNL     1       1.014  -6.483  -3.849  0.00  0.00    +0.047 A 
ENDBRANCH  30  36
ENDBRANCH  26  30
ENDBRANCH   1  27
TORSDOF 5
