REMARK  Name = ZINC06193528
REMARK  10 active torsions:
REMARK  status: ('A' for Active; 'I' for Inactive)
REMARK    1  A    between atoms: C_1  and  C_2
REMARK    2  A    between atoms: C_4  and  C_37
REMARK    3  A    between atoms: C_7  and  C_14
REMARK    4  A    between atoms: C_14  and  C_16
REMARK    5  A    between atoms: C_14  and  N_68
REMARK    6  A    between atoms: N_20  and  C_21
REMARK    7  A    between atoms: C_21  and  C_22
REMARK    8  A    between atoms: C_21  and  C_23
REMARK    9  A    between atoms: C_21  and  C_24
REMARK   10  A    between atoms: N_27  and  C_30
REMARK                            x       y       z     vdW  Elec       q    Type
REMARK                         _______ _______ _______ _____ _____    ______ ____
ROOT
ATOM      1  C   UNL     1       4.802   4.586  -0.134  0.00  0.00    +0.039 C 
ENDROOT
BRANCH   1   8
ATOM      2  C   UNL     1      -1.667   0.003   0.749  0.00  0.00    +0.044 C 
ATOM      3  C   UNL     1      -0.324   0.670   0.598  0.00  0.00    -0.048 A 
ATOM      4  C   UNL     1       0.832  -0.099   0.627  0.00  0.00    +0.007 A 
ATOM      5  C   UNL     1       2.059   0.486   0.494  0.00  0.00    -0.041 A 
ATOM      6  C   UNL     1       2.153   1.871   0.326  0.00  0.00    +0.002 A 
ATOM      7  C   UNL     1       3.452   2.530   0.179  0.00  0.00    +0.018 A 
ATOM      8  C   UNL     1       3.481   3.876   0.019  0.00  0.00    +0.011 A 
ATOM      9  C   UNL     1       2.279   4.615  -0.004  0.00  0.00    +0.251 A 
ATOM     10  O   UNL     1       2.328   5.825  -0.149  0.00  0.00    -0.268 OA
ATOM     11  N   UNL     1       1.081   4.019   0.130  0.00  0.00    -0.322 N 
ATOM     12  H   UNL     1       0.274   4.557   0.109  0.00  0.00    +0.169 HD
ATOM     13  C   UNL     1       0.984   2.654   0.296  0.00  0.00    +0.050 A 
ATOM     14  C   UNL     1      -0.255   2.036   0.434  0.00  0.00    +0.029 A 
ATOM     15  C   UNL     1       3.308  -0.358   0.528  0.00  0.00    +0.044 C 
ENDBRANCH   1   8
BRANCH   1  21
ATOM     16  C   UNL     1       6.107   6.469   0.650  0.00  0.00    -0.058 C 
ATOM     17  C   UNL     1       6.130   7.621   1.657  0.00  0.00    +0.086 C 
ATOM     18  N   UNL     1       6.100   7.076   3.022  0.00  0.00    -0.333 N 
ATOM     19  C   UNL     1       4.892   6.267   3.235  0.00  0.00    +0.086 C 
ATOM     20  C   UNL     1       4.868   5.115   2.228  0.00  0.00    -0.058 C 
ATOM     21  N   UNL     1       4.877   5.677   0.861  0.00  0.00    +0.391 N 
ATOM     22  H   UNL     1       4.062   6.290   0.747  0.00  0.00    -0.080 HD
BRANCH  18  23
ATOM     23  C   UNL     1       6.192   8.098   3.971  0.00  0.00    +0.030 A 
ATOM     24  C   UNL     1       5.208   8.238   4.941  0.00  0.00    +0.026 A 
ATOM     25  C   UNL     1       5.304   9.245   5.881  0.00  0.00    +0.040 A 
ATOM     26  C   UNL     1       6.376  10.122   5.851  0.00  0.00    +0.124 A 
ATOM     27  C   UNL     1       7.356   9.988   4.882  0.00  0.00    +0.040 A 
ATOM     28  C   UNL     1       7.266   8.979   3.943  0.00  0.00    +0.026 A 
ATOM     29  F   UNL     1       6.465  11.109   6.769  0.00  0.00    -0.205 F 
ENDBRANCH  18  23
ENDBRANCH   1  21
BRANCH   1  30
ATOM     30  C   UNL     1       4.897   5.176  -1.518  0.00  0.00    +0.143 A 
ATOM     31  N   UNL     1       4.187   6.168  -1.997  0.00  0.00    -0.115 NA
ATOM     32  N   UNL     1       4.564   6.378  -3.211  0.00  0.00    -0.023 NA
ATOM     33  N   UNL     1       5.492   5.541  -3.521  0.00  0.00    -0.043 NA
ATOM     34  N   UNL     1       5.725   4.782  -2.504  0.00  0.00    -0.225 N 
BRANCH  34  35
ATOM     35  C   UNL     1       6.707   3.697  -2.434  0.00  0.00    +0.059 C 
ATOM     36  C   UNL     1       5.998   2.389  -2.081  0.00  0.00    +0.036 C 
ATOM     37  C   UNL     1       7.403   3.551  -3.789  0.00  0.00    +0.036 C 
ATOM     38  C   UNL     1       7.748   4.019  -1.359  0.00  0.00    +0.036 C 
ENDBRANCH  34  35
ENDBRANCH   1  30
TORSDOF 5
