REMARK  Name = ZINC26780229
REMARK  10 active torsions:
REMARK  status: ('A' for Active; 'I' for Inactive)
REMARK    1  A    between atoms: C_1  and  C_2
REMARK    2  A    between atoms: C_5  and  N_11
REMARK    3  A    between atoms: C_7  and  C_10
REMARK    4  A    between atoms: N_11  and  C_12
REMARK    5  A    between atoms: C_12  and  N_14
REMARK    6  A    between atoms: N_14  and  C_15
REMARK    7  A    between atoms: C_19  and  S_21
REMARK    8  A    between atoms: S_21  and  N_24
REMARK    9  A    between atoms: N_24  and  C_25
REMARK   10  A    between atoms: N_24  and  C_26
REMARK                            x       y       z     vdW  Elec       q    Type
REMARK                         _______ _______ _______ _____ _____    ______ ____
ROOT
ATOM      1  C   UNL     1      -1.528   0.675   1.978  0.00  0.00    +0.135 C 
ATOM      2  S   UNL     1      -1.793  -0.963   1.558  0.00  0.00    -0.019 S 
ENDROOT
BRANCH   1   3
ATOM      3  N   UNL     1      -0.469   1.338   1.472  0.00  0.00    -0.324 N 
ATOM      4  H   UNL     1      -0.298   2.390   1.742  0.00  0.00    +0.148 HD
BRANCH   3   8
ATOM      5  C   UNL     1       2.933  -0.816   0.002  0.00  0.00    -0.014 C 
ATOM      6  C   UNL     1       2.770   0.658  -0.374  0.00  0.00    -0.073 C 
ATOM      7  C   UNL     1       1.826   1.337   0.621  0.00  0.00    +0.006 C 
ATOM      8  C   UNL     1       0.456   0.656   0.563  0.00  0.00    +0.069 C 
ATOM      9  C   UNL     1      -0.083   0.732  -0.869  0.00  0.00    +0.006 C 
ATOM     10  C   UNL     1       0.916   0.071  -1.821  0.00  0.00    -0.073 C 
ATOM     11  N   UNL     1       2.210   0.759  -1.728  0.00  0.00    +0.383 N 
ATOM     12  C   UNL     1       0.391   0.162  -3.255  0.00  0.00    -0.014 C 
ATOM     13  H   UNL     1       2.064   1.818  -1.987  0.00  0.00    -0.085 HD
ATOM     14  H   UNL     1       2.904   0.298  -2.447  0.00  0.00    -0.085 HD
ENDBRANCH   3   8
ENDBRANCH   1   3
BRANCH   1  15
ATOM     15  N   UNL     1      -2.378   1.302   2.815  0.00  0.00    -0.297 N 
ATOM     16  H   UNL     1      -2.170   2.332   3.140  0.00  0.00    +0.154 HD
BRANCH  15  17
ATOM     17  C   UNL     1      -3.525   0.643   3.270  0.00  0.00    +0.034 A 
ATOM     18  C   UNL     1      -3.442  -0.668   3.721  0.00  0.00    +0.023 A 
ATOM     19  C   UNL     1      -4.576  -1.315   4.170  0.00  0.00    +0.004 A 
ATOM     20  C   UNL     1      -5.794  -0.660   4.170  0.00  0.00    +0.028 A 
ATOM     21  C   UNL     1      -5.880   0.645   3.721  0.00  0.00    +0.107 A 
ATOM     22  C   UNL     1      -4.749   1.300   3.276  0.00  0.00    +0.051 A 
BRANCH  21  23
ATOM     23  S   UNL     1      -7.434   1.475   3.723  0.00  0.00    +0.060 S 
ATOM     24  O   UNL     1      -7.347   2.502   2.745  0.00  0.00    -0.153 OA
ATOM     25  O   UNL     1      -8.434   0.466   3.680  0.00  0.00    -0.153 OA
BRANCH  23  26
ATOM     26  N   UNL     1      -7.585   2.228   5.190  0.00  0.00    -0.183 NA
ATOM     27  C   UNL     1      -7.098   3.599   5.363  0.00  0.00    +0.131 C 
ATOM     28  C   UNL     1      -8.205   1.524   6.315  0.00  0.00    +0.131 C 
ENDBRANCH  23  26
ENDBRANCH  21  23
ENDBRANCH  15  17
ENDBRANCH   1  15
TORSDOF 6
