REMARK  Name = ZINC09441997
REMARK  6 active torsions:
REMARK  status: ('A' for Active; 'I' for Inactive)
REMARK    1  A    between atoms: C_4  and  C_7
REMARK    2  A    between atoms: C_7  and  C_9
REMARK    3  A    between atoms: C_7  and  N_64
REMARK    4  A    between atoms: N_11  and  C_12
REMARK    5  A    between atoms: C_16  and  S_18
REMARK    6  A    between atoms: S_18  and  N_21
REMARK                            x       y       z     vdW  Elec       q    Type
REMARK                         _______ _______ _______ _____ _____    ______ ____
ROOT
ATOM      1  C   UNL     1      -0.784   2.126   1.177  0.00  0.00    +0.208 C 
ATOM      2  O   UNL     1      -0.263   2.947   1.903  0.00  0.00    -0.277 OA
ATOM      3  N   UNL     1      -2.007   1.645   1.474  0.00  0.00    -0.287 N 
ATOM      4  H   UNL     1      -2.456   1.047   0.856  0.00  0.00    +0.155 HD
ENDROOT
BRANCH   3   5
ATOM      5  C   UNL     1      -2.630   2.007   2.673  0.00  0.00    +0.035 A 
ATOM      6  C   UNL     1      -4.012   2.139   2.728  0.00  0.00    +0.023 A 
ATOM      7  C   UNL     1      -4.623   2.497   3.913  0.00  0.00    +0.004 A 
ATOM      8  C   UNL     1      -3.862   2.725   5.045  0.00  0.00    +0.028 A 
ATOM      9  C   UNL     1      -2.486   2.594   4.994  0.00  0.00    +0.107 A 
ATOM     10  C   UNL     1      -1.869   2.231   3.813  0.00  0.00    +0.051 A 
BRANCH   9  11
ATOM     11  S   UNL     1      -1.521   2.885   6.439  0.00  0.00    +0.061 S 
ATOM     12  O   UNL     1      -0.216   3.229   5.993  0.00  0.00    -0.153 OA
ATOM     13  O   UNL     1      -2.289   3.737   7.276  0.00  0.00    -0.153 OA
BRANCH  11  14
ATOM     14  N   UNL     1      -1.383   1.439   7.234  0.00  0.00    -0.172 NA
ATOM     15  C   UNL     1      -2.366   1.038   8.253  0.00  0.00    +0.137 C 
ATOM     16  C   UNL     1      -2.846  -0.384   7.921  0.00  0.00    +0.177 C 
ATOM     17  O   UNL     1      -1.711  -1.238   7.765  0.00  0.00    -0.377 OA
ATOM     18  C   UNL     1      -0.849  -0.874   6.684  0.00  0.00    +0.177 C 
ATOM     19  C   UNL     1      -0.269   0.520   6.948  0.00  0.00    +0.137 C 
ENDBRANCH  11  14
ENDBRANCH   9  11
ENDBRANCH   3   5
BRANCH   1  20
ATOM     20  C   UNL     1      -0.063   1.644  -0.055  0.00  0.00    +0.051 C 
BRANCH  20  30
ATOM     21  C   UNL     1       1.077   3.772  -0.265  0.00  0.00    -0.072 C 
ATOM     22  C   UNL     1       2.428   4.434   0.004  0.00  0.00    +0.017 C 
ATOM     23  C   UNL     1       3.495   3.790  -0.844  0.00  0.00    -0.048 A 
ATOM     24  C   UNL     1       4.697   4.460  -1.015  0.00  0.00    +0.004 A 
ATOM     25  C   UNL     1       5.704   3.901  -1.777  0.00  0.00    +0.000 A 
ATOM     26  C   UNL     1       5.512   2.668  -2.373  0.00  0.00    +0.000 A 
ATOM     27  C   UNL     1       4.314   2.003  -2.205  0.00  0.00    +0.002 A 
ATOM     28  C   UNL     1       3.301   2.563  -1.440  0.00  0.00    -0.061 A 
ATOM     29  C   UNL     1       2.011   1.800  -1.290  0.00  0.00    -0.041 C 
ATOM     30  N   UNL     1       1.256   2.312  -0.134  0.00  0.00    +0.393 N 
ATOM     31  H   UNL     1       1.783   2.114   0.725  0.00  0.00    -0.080 HD
ENDBRANCH  20  30
BRANCH  20  35
ATOM     32  C   UNL     1       0.524  -2.580   0.199  0.00  0.00    +0.000 A 
ATOM     33  C   UNL     1      -0.511  -2.071  -0.563  0.00  0.00    +0.000 A 
ATOM     34  C   UNL     1      -0.700  -0.704  -0.645  0.00  0.00    +0.002 A 
ATOM     35  C   UNL     1       0.144   0.154   0.035  0.00  0.00    -0.052 A 
ATOM     36  C   UNL     1       1.182  -0.356   0.793  0.00  0.00    +0.002 A 
ATOM     37  C   UNL     1       1.369  -1.723   0.879  0.00  0.00    +0.000 A 
ENDBRANCH  20  35
ENDBRANCH   1  20
TORSDOF 6
