REMARK  Name = ZINC06260082
REMARK  8 active torsions:
REMARK  status: ('A' for Active; 'I' for Inactive)
REMARK    1  A    between atoms: C_1  and  C_2
REMARK    2  A    between atoms: C_2  and  C_4
REMARK    3  A    between atoms: C_2  and  N_47
REMARK    4  A    between atoms: N_6  and  C_7
REMARK    5  A    between atoms: C_10  and  S_13
REMARK    6  A    between atoms: S_13  and  N_16
REMARK    7  A    between atoms: C_17  and  C_18
REMARK    8  A    between atoms: C_17  and  N_47
REMARK                            x       y       z     vdW  Elec       q    Type
REMARK                         _______ _______ _______ _____ _____    ______ ____
ROOT
ATOM      1  C   UNL     1       1.260   4.011   1.441  0.00  0.00    -0.004 C 
ATOM      2  C   UNL     1       1.376   3.503   0.002  0.00  0.00    +0.013 C 
ENDROOT
BRANCH   2   3
ATOM      3  C   UNL     1       2.668   3.992  -0.601  0.00  0.00    +0.203 C 
ATOM      4  O   UNL     1       3.493   3.195  -0.995  0.00  0.00    -0.277 OA
ATOM      5  N   UNL     1       2.907   5.314  -0.702  0.00  0.00    -0.287 N 
ATOM      6  H   UNL     1       2.221   5.952  -0.449  0.00  0.00    +0.155 HD
BRANCH   5   7
ATOM      7  C   UNL     1       4.144   5.768  -1.171  0.00  0.00    +0.033 A 
ATOM      8  C   UNL     1       4.699   6.932  -0.656  0.00  0.00    +0.025 A 
ATOM      9  C   UNL     1       5.924   7.374  -1.118  0.00  0.00    +0.030 A 
ATOM     10  C   UNL     1       6.592   6.664  -2.099  0.00  0.00    +0.105 A 
ATOM     11  C   UNL     1       6.039   5.508  -2.618  0.00  0.00    +0.030 A 
ATOM     12  C   UNL     1       4.818   5.058  -2.156  0.00  0.00    +0.025 A 
BRANCH  10  13
ATOM     13  S   UNL     1       8.151   7.235  -2.689  0.00  0.00    +0.056 S 
ATOM     14  O   UNL     1       8.706   8.040  -1.658  0.00  0.00    -0.153 OA
ATOM     15  O   UNL     1       8.825   6.101  -3.217  0.00  0.00    -0.153 OA
BRANCH  13  16
ATOM     16  N   UNL     1       7.851   8.244  -3.967  0.00  0.00    -0.204 NA
ATOM     17  H   UNL     1       6.938   8.413  -4.248  0.00  0.00    +0.144 HD
ATOM     18  H   UNL     1       8.588   8.666  -4.436  0.00  0.00    +0.144 HD
ENDBRANCH  13  16
ENDBRANCH  10  13
ENDBRANCH   5   7
ENDBRANCH   2   3
BRANCH   2  19
ATOM     19  N   UNL     1       1.367   2.028  -0.002  0.00  0.00    +0.389 N 
ATOM     20  H   UNL     1       1.853   1.684   0.834  0.00  0.00    -0.085 HD
ATOM     21  H   UNL     1       1.849   1.689  -0.843  0.00  0.00    -0.085 HD
BRANCH  19  22
ATOM     22  C   UNL     1      -0.020   1.525   0.000  0.00  0.00    -0.033 C 
BRANCH  22  23
ATOM     23  C   UNL     1       0.003  -0.005  -0.004  0.00  0.00    +0.194 C 
ATOM     24  C   UNL     1      -1.432  -0.543  -0.098  0.00  0.00    +0.271 C 
ATOM     25  O   UNL     1      -1.375  -1.974  -0.086  0.00  0.00    -0.485 OA
ATOM     26  C   UNL     1      -0.571  -2.546   0.851  0.00  0.00    +0.162 A 
ATOM     27  C   UNL     1      -0.735  -3.889   1.160  0.00  0.00    +0.049 A 
ATOM     28  C   UNL     1       0.075  -4.485   2.107  0.00  0.00    +0.004 A 
ATOM     29  C   UNL     1       1.051  -3.746   2.750  0.00  0.00    +0.004 A 
ATOM     30  C   UNL     1       1.219  -2.408   2.447  0.00  0.00    +0.049 A 
ATOM     31  C   UNL     1       0.408  -1.803   1.498  0.00  0.00    +0.162 A 
ATOM     32  O   UNL     1       0.583  -0.483   1.214  0.00  0.00    -0.484 OA
ENDBRANCH  22  23
ENDBRANCH  19  22
ENDBRANCH   2  19
TORSDOF 7
