REMARK  Name = ZINC59020947
REMARK  7 active torsions:
REMARK  status: ('A' for Active; 'I' for Inactive)
REMARK    1  A    between atoms: C_1  and  C_2
REMARK    2  A    between atoms: C_2  and  C_23
REMARK    3  A    between atoms: N_3  and  N_4
REMARK    4  A    between atoms: C_7  and  S_10
REMARK    5  A    between atoms: S_10  and  C_11
REMARK    6  A    between atoms: C_11  and  C_12
REMARK    7  A    between atoms: N_14  and  C_15
REMARK                            x       y       z     vdW  Elec       q    Type
REMARK                         _______ _______ _______ _____ _____    ______ ____
ROOT
ATOM      1  N   UNL     1      -1.060  -1.501   1.394  0.00  0.00    -0.205 N 
ATOM      2  C   UNL     1      -1.635  -1.736   2.630  0.00  0.00    +0.232 A 
ATOM      3  N   UNL     1      -1.513  -0.976   3.698  0.00  0.00    -0.186 NA
ATOM      4  C   UNL     1      -2.204  -1.510   4.711  0.00  0.00    +0.211 A 
ATOM      5  N   UNL     1      -2.775  -2.617   4.301  0.00  0.00    -0.144 NA
ATOM      6  N   UNL     1      -2.425  -2.783   2.951  0.00  0.00    -0.245 N 
ATOM      7  H   UNL     1      -1.212  -2.119   0.663  0.00  0.00    +0.177 HD
ATOM      8  H   UNL     1      -2.696  -3.507   2.365  0.00  0.00    +0.192 HD
ENDROOT
BRANCH   1  11
ATOM      9  C   UNL     1       1.193   1.024  -0.167  0.00  0.00    +0.068 C 
ATOM     10  C   UNL     1       0.196  -0.091   0.015  0.00  0.00    +0.063 C 
ATOM     11  N   UNL     1      -0.258  -0.369   1.200  0.00  0.00    -0.184 NA
BRANCH  10  12
ATOM     12  C   UNL     1      -0.263  -0.867  -1.151  0.00  0.00    -0.002 A 
ATOM     13  C   UNL     1      -1.580  -1.331  -1.210  0.00  0.00    +0.011 A 
ATOM     14  C   UNL     1      -2.003  -2.056  -2.305  0.00  0.00    +0.016 A 
ATOM     15  C   UNL     1      -1.127  -2.324  -3.343  0.00  0.00    +0.018 A 
ATOM     16  C   UNL     1       0.179  -1.867  -3.290  0.00  0.00    +0.016 A 
ATOM     17  C   UNL     1       0.614  -1.136  -2.204  0.00  0.00    +0.011 A 
ATOM     18 BR   UNL     1      -1.717  -3.319  -4.839  0.00  0.00    -0.050 Br
ENDBRANCH  10  12
ENDBRANCH   1  11
BRANCH   4  19
ATOM     19  S   UNL     1      -2.327  -0.835   6.334  0.00  0.00    -0.075 S 
BRANCH  19  20
ATOM     20  C   UNL     1      -3.387  -2.011   7.219  0.00  0.00    +0.173 C 
BRANCH  20  21
ATOM     21  C   UNL     1      -3.576  -1.546   8.640  0.00  0.00    +0.227 C 
ATOM     22  O   UNL     1      -3.047  -0.522   9.019  0.00  0.00    -0.275 OA
ATOM     23  N   UNL     1      -4.332  -2.268   9.491  0.00  0.00    -0.285 N 
ATOM     24  H   UNL     1      -4.806  -3.052   9.172  0.00  0.00    +0.155 HD
BRANCH  23  25
ATOM     25  C   UNL     1      -4.434  -1.887  10.833  0.00  0.00    +0.036 A 
ATOM     26  C   UNL     1      -4.448  -2.852  11.831  0.00  0.00    +0.043 A 
ATOM     27  C   UNL     1      -4.548  -2.472  13.157  0.00  0.00    +0.044 A 
ATOM     28  C   UNL     1      -4.634  -1.131  13.489  0.00  0.00    +0.040 A 
ATOM     29  C   UNL     1      -4.621  -0.168  12.496  0.00  0.00    +0.044 A 
ATOM     30  C   UNL     1      -4.515  -0.542  11.169  0.00  0.00    +0.043 A 
ATOM     31 CL   UNL     1      -4.729   1.513  12.917  0.00  0.00    -0.083 Cl
ATOM     32 CL   UNL     1      -4.566  -3.678  14.405  0.00  0.00    -0.083 Cl
ENDBRANCH  23  25
ENDBRANCH  20  21
ENDBRANCH  19  20
ENDBRANCH   4  19
TORSDOF 6
