REMARK  Name = ZINC43592867
REMARK  7 active torsions:
REMARK  status: ('A' for Active; 'I' for Inactive)
REMARK    1  A    between atoms: C_1  and  C_2
REMARK    2  A    between atoms: C_2  and  C_4
REMARK    3  A    between atoms: C_2  and  N_17
REMARK    4  A    between atoms: C_4  and  N_5
REMARK    5  A    between atoms: N_5  and  S_6
REMARK    6  A    between atoms: S_6  and  C_9
REMARK    7  A    between atoms: C_12  and  N_16
REMARK                            x       y       z     vdW  Elec       q    Type
REMARK                         _______ _______ _______ _____ _____    ______ ____
ROOT
ATOM      1  S   UNL     1       1.463  -2.701   2.724  0.00  0.00    +0.061 S 
ATOM      2  O   UNL     1       1.096  -4.073   2.673  0.00  0.00    -0.153 OA
ATOM      3  O   UNL     1       2.808  -2.267   2.578  0.00  0.00    -0.153 OA
ENDROOT
BRANCH   1   4
ATOM      4  C   UNL     1       0.902  -2.087   4.278  0.00  0.00    +0.140 A 
ATOM      5  C   UNL     1       0.272  -2.936   5.168  0.00  0.00    +0.033 A 
ATOM      6  C   UNL     1      -0.169  -2.458   6.387  0.00  0.00    +0.025 A 
ATOM      7  C   UNL     1       0.022  -1.122   6.719  0.00  0.00    +0.027 A 
ATOM      8  C   UNL     1       0.655  -0.271   5.824  0.00  0.00    +0.063 A 
ATOM      9  C   UNL     1       1.099  -0.756   4.606  0.00  0.00    +0.151 A 
ATOM     10  F   UNL     1       1.721   0.070   3.736  0.00  0.00    -0.203 F 
BRANCH   7  11
ATOM     11  N   UNL     1      -0.423  -0.637   7.950  0.00  0.00    -0.358 N 
ATOM     12  H   UNL     1      -0.866  -1.233   8.575  0.00  0.00    +0.142 HD
ATOM     13  H   UNL     1      -0.290   0.295   8.181  0.00  0.00    +0.142 HD
ENDBRANCH   7  11
ENDBRANCH   1   4
BRANCH   1  14
ATOM     14  N   UNL     1       0.587  -1.932   1.548  0.00  0.00    -0.191 NA
ATOM     15  H   UNL     1      -0.017  -2.439   0.984  0.00  0.00    +0.148 HD
BRANCH  14  16
ATOM     16  C   UNL     1       0.724  -0.485   1.361  0.00  0.00    +0.090 C 
BRANCH  16  18
ATOM     17  C   UNL     1       0.215   1.430  -0.161  0.00  0.00    -0.012 C 
ATOM     18  C   UNL     1       0.141  -0.090   0.003  0.00  0.00    -0.056 C 
BRANCH  18  19
ATOM     19  N   UNL     1      -1.261  -0.522  -0.073  0.00  0.00    +0.382 N 
ATOM     20  C   UNL     1      -1.777  -0.270  -1.424  0.00  0.00    -0.078 C 
ATOM     21  C   UNL     1      -3.211  -0.793  -1.532  0.00  0.00    -0.019 C 
ATOM     22  C   UNL     1      -4.090  -0.073  -0.506  0.00  0.00    -0.004 C 
ATOM     23  C   UNL     1      -3.501  -0.281   0.892  0.00  0.00    -0.019 C 
ATOM     24  C   UNL     1      -2.056   0.223   0.911  0.00  0.00    -0.078 C 
ATOM     25  H   UNL     1      -1.319  -1.510   0.128  0.00  0.00    -0.081 HD
ENDBRANCH  18  19
ENDBRANCH  16  18
ENDBRANCH  14  16
ENDBRANCH   1  14
TORSDOF 6
