REMARK  Name = ZINC45944574
REMARK  5 active torsions:
REMARK  status: ('A' for Active; 'I' for Inactive)
REMARK    1  A    between atoms: C_1  and  C_2
REMARK    2  A    between atoms: N_8  and  C_9
REMARK    3  A    between atoms: C_9  and  C_11
REMARK    4  A    between atoms: C_9  and  C_17
REMARK    5  A    between atoms: C_26  and  O_27
REMARK                            x       y       z     vdW  Elec       q    Type
REMARK                         _______ _______ _______ _____ _____    ______ ____
ROOT
ATOM      1  C   UNL     1       0.062  -4.893  -1.120  0.00  0.00    +0.136 C 
ENDROOT
BRANCH   1   2
ATOM      2  C   UNL     1       0.791  -6.193  -0.894  0.00  0.00    +0.022 A 
ATOM      3  C   UNL     1       0.778  -6.776   0.370  0.00  0.00    +0.030 A 
ATOM      4  C   UNL     1       1.427  -7.951   0.606  0.00  0.00    +0.051 A 
ATOM      5  C   UNL     1       2.119  -8.586  -0.439  0.00  0.00    +0.022 A 
ATOM      6  C   UNL     1       2.801  -9.800  -0.234  0.00  0.00    +0.013 A 
ATOM      7  C   UNL     1       3.452 -10.361  -1.296  0.00  0.00    +0.020 A 
ATOM      8  C   UNL     1       3.429  -9.729  -2.537  0.00  0.00    +0.111 A 
ATOM      9  N   UNL     1       2.793  -8.598  -2.724  0.00  0.00    -0.251 NA
ATOM     10  C   UNL     1       2.136  -7.998  -1.727  0.00  0.00    +0.114 A 
ATOM     11  C   UNL     1       1.449  -6.784  -1.935  0.00  0.00    +0.148 A 
ATOM     12 CL   UNL     1       1.398  -8.659   2.191  0.00  0.00    -0.083 Cl
BRANCH  11  13
ATOM     13  O   UNL     1       1.446  -6.203  -3.163  0.00  0.00    -0.504 OA
ATOM     14  H   UNL     1       2.178  -5.588  -3.309  0.00  0.00    +0.292 HD
ENDBRANCH  11  13
ENDBRANCH   1   2
BRANCH   1  22
ATOM     15  C   UNL     1      -0.563   1.449   0.137  0.00  0.00    +0.045 C 
ATOM     16  C   UNL     1      -0.411  -0.050   0.099  0.00  0.00    -0.034 A 
ATOM     17  C   UNL     1      -0.362  -0.719  -1.117  0.00  0.00    +0.008 A 
ATOM     18  C   UNL     1      -0.222  -2.095  -1.108  0.00  0.00    +0.042 A 
ATOM     19  C   UNL     1      -0.135  -2.758   0.112  0.00  0.00    +0.097 A 
ATOM     20  N   UNL     1      -0.186  -2.084   1.250  0.00  0.00    -0.350 N 
ATOM     21  C   UNL     1      -0.314  -0.771   1.272  0.00  0.00    +0.087 A 
ATOM     22  N   UNL     1       0.005  -4.141   0.136  0.00  0.00    -0.320 N 
ATOM     23  H   UNL     1       0.066  -4.608   0.984  0.00  0.00    +0.148 HD
ATOM     24  H   UNL     1      -0.124  -2.567   2.089  0.00  0.00    +0.167 HD
ENDBRANCH   1  22
BRANCH   1  25
ATOM     25  C   UNL     1      -1.338  -5.179  -1.598  0.00  0.00    -0.020 A 
ATOM     26  C   UNL     1      -2.337  -5.529  -0.702  0.00  0.00    +0.025 A 
ATOM     27  C   UNL     1      -3.609  -5.784  -1.177  0.00  0.00    +0.111 A 
ATOM     28  N   UNL     1      -3.878  -5.697  -2.465  0.00  0.00    -0.263 NA
ATOM     29  C   UNL     1      -2.953  -5.367  -3.346  0.00  0.00    +0.111 A 
ATOM     30  C   UNL     1      -1.660  -5.093  -2.944  0.00  0.00    +0.025 A 
ENDBRANCH   1  25
TORSDOF 4
