REMARK  Name = ZINC20467700
REMARK  12 active torsions:
REMARK  status: ('A' for Active; 'I' for Inactive)
REMARK    1  A    between atoms: C_1  and  C_2
REMARK    2  A    between atoms: C_2  and  C_3
REMARK    3  A    between atoms: C_3  and  N_4
REMARK    4  A    between atoms: N_4  and  C_5
REMARK    5  A    between atoms: N_4  and  C_8
REMARK    6  A    between atoms: C_5  and  C_6
REMARK    7  A    between atoms: C_6  and  C_7
REMARK    8  A    between atoms: C_8  and  C_9
REMARK    9  A    between atoms: C_9  and  N_10
REMARK   10  A    between atoms: N_10  and  S_11
REMARK   11  A    between atoms: S_11  and  C_14
REMARK   12  A    between atoms: C_19  and  N_20
REMARK                            x       y       z     vdW  Elec       q    Type
REMARK                         _______ _______ _______ _____ _____    ______ ____
ROOT
ATOM      1  S   UNL     1       0.179   3.778  -0.369  0.00  0.00    +0.062 S 
ATOM      2  O   UNL     1       0.958   3.440  -1.508  0.00  0.00    -0.153 OA
ATOM      3  O   UNL     1      -0.398   5.065  -0.196  0.00  0.00    -0.153 OA
ENDROOT
BRANCH   1   4
ATOM      4  C   UNL     1      -1.147   2.619  -0.302  0.00  0.00    +0.146 A 
ATOM      5  C   UNL     1      -1.277   1.646  -1.277  0.00  0.00    +0.048 A 
ATOM      6  C   UNL     1      -2.340   0.757  -1.188  0.00  0.00    +0.038 A 
ATOM      7  C   UNL     1      -3.227   0.867  -0.135  0.00  0.00    +0.128 A 
ATOM      8  N   UNL     1      -3.075   1.802   0.783  0.00  0.00    -0.238 NA
ATOM      9  C   UNL     1      -2.074   2.668   0.733  0.00  0.00    +0.143 A 
ATOM     10 BR   UNL     1      -2.572  -0.589  -2.496  0.00  0.00    -0.049 Br
BRANCH   9  11
ATOM     11  N   UNL     1      -1.952   3.638   1.722  0.00  0.00    -0.342 N 
ATOM     12  H   UNL     1      -2.683   3.680   2.543  0.00  0.00    +0.144 HD
ATOM     13  H   UNL     1      -1.125   4.362   1.683  0.00  0.00    +0.144 HD
ENDBRANCH   9  11
ENDBRANCH   1   4
BRANCH   1  14
ATOM     14  N   UNL     1       1.134   3.506   0.956  0.00  0.00    -0.192 NA
ATOM     15  H   UNL     1       1.103   4.214   1.796  0.00  0.00    +0.148 HD
BRANCH  14  16
ATOM     16  C   UNL     1       1.841   2.231   1.099  0.00  0.00    +0.087 C 
BRANCH  16  17
ATOM     17  C   UNL     1       2.912   2.360   2.184  0.00  0.00    -0.062 C 
BRANCH  17  18
ATOM     18  N   UNL     1       3.622   1.082   2.327  0.00  0.00    +0.381 N 
ATOM     19  H   UNL     1       2.869   0.292   2.466  0.00  0.00    -0.082 HD
BRANCH  18  20
ATOM     20  C   UNL     1       4.389   0.767   1.115  0.00  0.00    -0.079 C 
BRANCH  20  22
ATOM     21  C   UNL     1       6.225   1.543  -0.391  0.00  0.00    +0.002 C 
ATOM     22  C   UNL     1       5.503   1.800   0.933  0.00  0.00    -0.022 C 
ENDBRANCH  20  22
ENDBRANCH  18  20
BRANCH  18  23
ATOM     23  C   UNL     1       4.490   1.092   3.512  0.00  0.00    -0.079 C 
BRANCH  23  24
ATOM     24  C   UNL     1       5.048  -0.314   3.747  0.00  0.00    -0.022 C 
ATOM     25  C   UNL     1       5.849  -0.333   5.051  0.00  0.00    +0.002 C 
ENDBRANCH  23  24
ENDBRANCH  18  23
ENDBRANCH  17  18
ENDBRANCH  16  17
ENDBRANCH  14  16
ENDBRANCH   1  14
TORSDOF 10
