REMARK  Name = ZINC34748049
REMARK  9 active torsions:
REMARK  status: ('A' for Active; 'I' for Inactive)
REMARK    1  A    between atoms: C_1  and  C_2
REMARK    2  A    between atoms: C_2  and  N_3
REMARK    3  A    between atoms: N_3  and  C_4
REMARK    4  A    between atoms: C_4  and  C_5
REMARK    5  A    between atoms: C_6  and  C_8
REMARK    6  A    between atoms: C_8  and  N_9
REMARK    7  A    between atoms: N_27  and  C_28
REMARK    8  A    between atoms: C_28  and  C_29
REMARK    9  A    between atoms: N_31  and  C_32
REMARK                            x       y       z     vdW  Elec       q    Type
REMARK                         _______ _______ _______ _____ _____    ______ ____
ROOT
ATOM      1  N   UNL     1      -1.736  -1.214  -4.429  0.00  0.00    +0.387 N 
ATOM      2  C   UNL     1      -2.882  -1.503  -5.301  0.00  0.00    -0.059 C 
ATOM      3  C   UNL     1      -2.377  -2.009  -6.656  0.00  0.00    +0.089 C 
ATOM      4  N   UNL     1      -1.434  -1.020  -7.201  0.00  0.00    -0.304 N 
ATOM      5  C   UNL     1      -0.344  -0.549  -6.333  0.00  0.00    +0.089 C 
ATOM      6  C   UNL     1      -0.945  -0.112  -4.993  0.00  0.00    -0.059 C 
ATOM      7  C   UNL     1      -1.568  -0.550  -8.484  0.00  0.00    +0.202 A 
ATOM      8  N   UNL     1      -2.310   0.514  -8.711  0.00  0.00    -0.208 NA
ATOM      9  C   UNL     1      -2.455   0.990  -9.944  0.00  0.00    +0.117 A 
ATOM     10  C   UNL     1      -1.836   0.393 -11.050  0.00  0.00    +0.076 A 
ATOM     11  C   UNL     1      -2.089   1.030 -12.354  0.00  0.00    -0.023 A 
ATOM     12  C   UNL     1      -2.880   2.114 -12.356  0.00  0.00    -0.004 A 
ATOM     13  S   UNL     1      -3.338   2.354 -10.654  0.00  0.00    -0.073 S 
ATOM     14  C   UNL     1      -3.062   2.682 -13.738  0.00  0.00    +0.043 C 
ATOM     15  C   UNL     1      -1.921   2.054 -14.568  0.00  0.00    +0.010 C 
ATOM     16  C   UNL     1      -1.653   0.749 -13.794  0.00  0.00    +0.037 C 
ATOM     17  C   UNL     1      -1.035  -0.760 -10.775  0.00  0.00    +0.264 A 
ATOM     18  O   UNL     1      -0.459  -1.344 -11.677  0.00  0.00    -0.267 OA
ATOM     19  N   UNL     1      -0.925  -1.188  -9.504  0.00  0.00    -0.271 N 
ATOM     20  H   UNL     1      -1.157  -2.037  -4.354  0.00  0.00    -0.081 HD
ENDROOT
BRANCH   1  21
ATOM     21  C   UNL     1      -2.220  -0.834  -3.096  0.00  0.00    +0.019 C 
BRANCH  21  23
ATOM     22  N   UNL     1      -3.458  -1.889  -1.232  0.00  0.00    -0.304 N 
ATOM     23  C   UNL     1      -2.927  -2.006  -2.466  0.00  0.00    +0.199 C 
ATOM     24  O   UNL     1      -3.018  -3.055  -3.068  0.00  0.00    -0.278 OA
BRANCH  22  26
ATOM     25  C   UNL     1      -5.630  -2.985  -0.985  0.00  0.00    +0.024 C 
ATOM     26  C   UNL     1      -4.145  -3.029  -0.620  0.00  0.00    +0.104 C 
ENDBRANCH  22  26
BRANCH  22  27
ATOM     27  C   UNL     1      -3.348  -0.623  -0.504  0.00  0.00    +0.104 C 
ATOM     28  C   UNL     1      -2.063  -0.623   0.327  0.00  0.00    +0.024 C 
ENDBRANCH  22  27
ENDBRANCH  21  23
ENDBRANCH   1  21
BRANCH  19  29
ATOM     29  C   UNL     1      -0.104  -2.365  -9.210  0.00  0.00    +0.223 C 
BRANCH  29  30
ATOM     30  C   UNL     1      -0.931  -3.612  -9.387  0.00  0.00    +0.233 C 
ATOM     31  O   UNL     1      -2.093  -3.526  -9.725  0.00  0.00    -0.274 OA
ATOM     32  N   UNL     1      -0.381  -4.823  -9.169  0.00  0.00    -0.311 N 
ATOM     33  H   UNL     1       0.548  -4.892  -8.899  0.00  0.00    +0.149 HD
BRANCH  32  34
ATOM     34  C   UNL     1      -1.185  -6.035  -9.341  0.00  0.00    +0.073 C 
ATOM     35  C   UNL     1      -1.961  -6.319  -8.054  0.00  0.00    +0.022 C 
ATOM     36  C   UNL     1      -2.801  -7.585  -8.233  0.00  0.00    +0.002 C 
ATOM     37  C   UNL     1      -1.882  -8.768  -8.546  0.00  0.00    +0.000 C 
ATOM     38  C   UNL     1      -1.106  -8.483  -9.834  0.00  0.00    +0.002 C 
ATOM     39  C   UNL     1      -0.266  -7.218  -9.654  0.00  0.00    +0.022 C 
ENDBRANCH  32  34
ENDBRANCH  29  30
ENDBRANCH  19  29
TORSDOF 7
