REMARK  Name = ZINC61856671
REMARK  5 active torsions:
REMARK  status: ('A' for Active; 'I' for Inactive)
REMARK    1  A    between atoms: C_1  and  N_2
REMARK    2  A    between atoms: N_2  and  C_3
REMARK    3  A    between atoms: N_2  and  C_10
REMARK    4  A    between atoms: C_3  and  C_4
REMARK    5  A    between atoms: C_13  and  C_17
REMARK                            x       y       z     vdW  Elec       q    Type
REMARK                         _______ _______ _______ _____ _____    ______ ____
ROOT
ATOM      1  C   UNL     1      -0.011  -0.681  -1.213  0.00  0.00    +0.031 A 
ATOM      2  C   UNL     1       0.139  -2.066  -1.219  0.00  0.00    +0.024 A 
ATOM      3  C   UNL     1       0.141  -2.755  -2.410  0.00  0.00    +0.014 A 
ATOM      4  C   UNL     1      -0.008  -2.064  -3.616  0.00  0.00    +0.030 A 
ATOM      5  C   UNL     1      -0.159  -0.674  -3.607  0.00  0.00    +0.053 A 
ATOM      6  C   UNL     1      -0.166   0.009  -2.410  0.00  0.00    +0.043 A 
ATOM      7 CL   UNL     1      -0.344   0.190  -5.102  0.00  0.00    -0.083 Cl
ENDROOT
BRANCH   4   8
ATOM      8  C   UNL     1      -0.005  -2.800  -4.895  0.00  0.00    +0.096 C 
ATOM      9  N   UNL     1       0.870  -2.477  -5.848  0.00  0.00    -0.387 N 
ATOM     10  N   UNL     1      -0.877  -3.788  -5.098  0.00  0.00    -0.345 N 
ATOM     11  H   UNL     1       1.554  -1.812  -5.673  0.00  0.00    +0.157 HD
ATOM     12  H   UNL     1      -1.514  -4.022  -4.405  0.00  0.00    +0.144 HD
ATOM     13  H   UNL     1      -0.875  -4.271  -5.939  0.00  0.00    +0.144 HD
ATOM     14  H   UNL     1       0.823  -2.908  -6.716  0.00  0.00    +0.157 HD
ENDBRANCH   4   8
BRANCH   1  16
ATOM     15  C   UNL     1      -0.177   1.467   0.002  0.00  0.00    +0.129 C 
ATOM     16  N   UNL     1      -0.013   0.011  -0.007  0.00  0.00    -0.328 N 
BRANCH  16  17
ATOM     17  C   UNL     1       0.149  -0.715   1.255  0.00  0.00    +0.147 C 
BRANCH  17  18
ATOM     18  C   UNL     1      -1.204  -1.123   1.778  0.00  0.00    +0.008 A 
ATOM     19  C   UNL     1      -1.899  -2.263   1.547  0.00  0.00    +0.014 A 
ATOM     20  C   UNL     1      -3.138  -2.425   2.139  0.00  0.00    +0.028 A 
ATOM     21  C   UNL     1      -3.621  -1.436   2.933  0.00  0.00    +0.078 A 
ATOM     22  S   UNL     1      -2.303  -0.233   2.867  0.00  0.00    -0.080 S 
ATOM     23 CL   UNL     1      -5.125  -1.364   3.796  0.00  0.00    -0.076 Cl
ENDBRANCH  17  18
ENDBRANCH  16  17
ENDBRANCH   1  16
TORSDOF 4
