REMARK  Name = ZINC08945710
REMARK  12 active torsions:
REMARK  status: ('A' for Active; 'I' for Inactive)
REMARK    1  A    between atoms: C_1  and  C_2
REMARK    2  A    between atoms: C_2  and  C_3
REMARK    3  A    between atoms: C_2  and  N_4
REMARK    4  A    between atoms: N_4  and  S_5
REMARK    5  A    between atoms: S_5  and  C_8
REMARK    6  A    between atoms: C_11  and  N_14
REMARK    7  A    between atoms: C_15  and  C_17
REMARK    8  A    between atoms: C_17  and  C_19
REMARK    9  A    between atoms: C_17  and  N_54
REMARK   10  A    between atoms: C_20  and  N_54
REMARK   11  A    between atoms: C_21  and  C_22
REMARK   12  A    between atoms: C_21  and  N_54
REMARK                            x       y       z     vdW  Elec       q    Type
REMARK                         _______ _______ _______ _____ _____    ______ ____
ROOT
ATOM      1  N   UNL     1       1.237  -2.079  -0.021  0.00  0.00    -0.287 N 
ATOM      2  C   UNL     1       2.410  -2.734  -0.138  0.00  0.00    +0.203 C 
ATOM      3  O   UNL     1       3.452  -2.114  -0.144  0.00  0.00    -0.277 OA
ATOM      4  H   UNL     1       0.408  -2.578   0.051  0.00  0.00    +0.155 HD
ENDROOT
BRANCH   1   8
ATOM      5  C   UNL     1       1.173   2.086   0.025  0.00  0.00    +0.105 A 
ATOM      6  C   UNL     1       0.143   1.387  -0.577  0.00  0.00    +0.030 A 
ATOM      7  C   UNL     1       0.161   0.006  -0.594  0.00  0.00    +0.025 A 
ATOM      8  C   UNL     1       1.216  -0.680  -0.005  0.00  0.00    +0.033 A 
ATOM      9  C   UNL     1       2.248   0.025   0.598  0.00  0.00    +0.025 A 
ATOM     10  C   UNL     1       2.224   1.405   0.612  0.00  0.00    +0.030 A 
BRANCH   5  11
ATOM     11  S   UNL     1       1.147   3.848   0.044  0.00  0.00    +0.059 S 
ATOM     12  O   UNL     1       2.495   4.273   0.188  0.00  0.00    -0.153 OA
ATOM     13  O   UNL     1       0.332   4.253  -1.047  0.00  0.00    -0.153 OA
BRANCH  11  14
ATOM     14  N   UNL     1       0.355   4.310   1.423  0.00  0.00    -0.187 NA
ATOM     15  H   UNL     1      -0.491   4.781   1.362  0.00  0.00    +0.148 HD
BRANCH  14  17
ATOM     16  C   UNL     1       1.734   5.215   3.228  0.00  0.00    +0.025 C 
ATOM     17  C   UNL     1       0.932   4.009   2.735  0.00  0.00    +0.070 C 
ATOM     18  C   UNL     1      -0.191   3.703   3.728  0.00  0.00    +0.025 C 
ENDBRANCH  14  17
ENDBRANCH  11  14
ENDBRANCH   5  11
ENDBRANCH   1   8
BRANCH   2  19
ATOM     19  C   UNL     1       2.425  -4.236  -0.260  0.00  0.00    +0.016 C 
ATOM     20  C   UNL     1       1.643  -4.654  -1.507  0.00  0.00    -0.004 C 
BRANCH  19  22
ATOM     21  C   UNL     1       4.460  -4.148  -1.569  0.00  0.00    -0.095 C 
ATOM     22  N   UNL     1       3.828  -4.694  -0.350  0.00  0.00    +0.388 N 
ATOM     23  H   UNL     1       4.342  -4.358   0.472  0.00  0.00    -0.081 HD
BRANCH  22  24
ATOM     24  C   UNL     1       3.876  -6.171  -0.375  0.00  0.00    -0.038 C 
BRANCH  24  25
ATOM     25  C   UNL     1       5.310  -6.613  -0.244  0.00  0.00    -0.010 A 
ATOM     26  C   UNL     1       6.079  -6.816  -1.378  0.00  0.00    +0.126 A 
ATOM     27  C   UNL     1       7.399  -7.216  -1.257  0.00  0.00    +0.038 A 
ATOM     28  C   UNL     1       7.945  -7.424  -0.004  0.00  0.00    +0.004 A 
ATOM     29  C   UNL     1       7.176  -7.228   1.127  0.00  0.00    +0.020 A 
ATOM     30  C   UNL     1       5.859  -6.822   1.008  0.00  0.00    +0.045 A 
ATOM     31 CL   UNL     1       4.894  -6.575   2.430  0.00  0.00    -0.083 Cl
ATOM     32  F   UNL     1       5.543  -6.617  -2.602  0.00  0.00    -0.205 F 
ENDBRANCH  24  25
ENDBRANCH  22  24
ENDBRANCH  19  22
ENDBRANCH   2  19
TORSDOF 8
