REMARK  Name = ZINC32516072
REMARK  7 active torsions:
REMARK  status: ('A' for Active; 'I' for Inactive)
REMARK    1  A    between atoms: C_2  and  C_3
REMARK    2  A    between atoms: C_3  and  N_4
REMARK    3  A    between atoms: C_7  and  C_9
REMARK    4  A    between atoms: C_18  and  N_22
REMARK    5  A    between atoms: N_22  and  C_23
REMARK    6  A    between atoms: C_23  and  C_24
REMARK    7  A    between atoms: C_24  and  N_29
REMARK                            x       y       z     vdW  Elec       q    Type
REMARK                         _______ _______ _______ _____ _____    ______ ____
ROOT
ATOM      1  N   UNL     1      -0.943  -0.501  -1.823  0.00  0.00    -0.264 N 
ATOM      2  C   UNL     1      -1.724  -0.576  -2.913  0.00  0.00    +0.043 A 
ATOM      3  C   UNL     1      -1.599  -1.831  -3.410  0.00  0.00    +0.004 A 
ATOM      4  C   UNL     1      -0.705  -2.498  -2.556  0.00  0.00    +0.151 A 
ATOM      5  N   UNL     1      -0.349  -1.627  -1.627  0.00  0.00    -0.166 NA
ATOM      6  C   UNL     1      -2.306  -2.338  -4.637  0.00  0.00    +0.023 C 
ATOM      7  C   UNL     1      -2.831  -1.130  -5.424  0.00  0.00    -0.067 C 
ATOM      8  C   UNL     1      -3.590  -0.194  -4.479  0.00  0.00    -0.009 C 
ATOM      9  C   UNL     1      -2.601   0.486  -3.524  0.00  0.00    +0.054 C 
ENDROOT
BRANCH   4  10
ATOM     10  C   UNL     1      -0.246  -3.897  -2.677  0.00  0.00    +0.267 C 
ATOM     11  O   UNL     1      -0.560  -4.558  -3.647  0.00  0.00    -0.268 OA
ATOM     12  N   UNL     1       0.520  -4.441  -1.710  0.00  0.00    -0.296 N 
ATOM     13  C   UNL     1       0.781  -3.710  -0.463  0.00  0.00    +0.108 C 
ATOM     14  C   UNL     1       0.398  -4.604   0.721  0.00  0.00    +0.019 C 
ATOM     15  C   UNL     1       1.138  -5.939   0.607  0.00  0.00    +0.003 C 
ATOM     16  C   UNL     1       0.724  -6.646  -0.685  0.00  0.00    +0.019 C 
ATOM     17  C   UNL     1       1.105  -5.777  -1.882  0.00  0.00    +0.108 C 
ENDBRANCH   4  10
BRANCH   7  18
ATOM     18  N   UNL     1      -3.736  -1.592  -6.485  0.00  0.00    +0.380 N 
ATOM     19  H   UNL     1      -3.260  -2.271  -7.060  0.00  0.00    -0.086 HD
ATOM     20  H   UNL     1      -4.552  -2.016  -6.070  0.00  0.00    -0.086 HD
BRANCH  18  21
ATOM     21  C   UNL     1      -4.144  -0.450  -7.313  0.00  0.00    -0.095 C 
BRANCH  21  22
ATOM     22  C   UNL     1      -5.024  -0.942  -8.464  0.00  0.00    -0.081 C 
ATOM     23  C   UNL     1      -4.198  -1.827  -9.419  0.00  0.00    -0.014 C 
ATOM     24  C   UNL     1      -4.738  -1.473 -10.827  0.00  0.00    -0.001 C 
ATOM     25  C   UNL     1      -4.985   0.052 -10.725  0.00  0.00    -0.001 C 
ATOM     26  C   UNL     1      -5.524   0.253  -9.294  0.00  0.00    -0.014 C 
BRANCH  22  27
ATOM     27  N   UNL     1      -6.166  -1.700  -7.934  0.00  0.00    +0.382 N 
ATOM     28  C   UNL     1      -7.052  -2.082  -9.040  0.00  0.00    -0.078 C 
ATOM     29  C   UNL     1      -8.200  -2.941  -8.505  0.00  0.00    -0.019 C 
ATOM     30  C   UNL     1      -8.991  -2.138  -7.469  0.00  0.00    -0.004 C 
ATOM     31  C   UNL     1      -8.041  -1.682  -6.358  0.00  0.00    -0.019 C 
ATOM     32  C   UNL     1      -6.899  -0.870  -6.972  0.00  0.00    -0.078 C 
ATOM     33  H   UNL     1      -5.831  -2.532  -7.472  0.00  0.00    -0.081 HD
ENDBRANCH  22  27
ENDBRANCH  21  22
ENDBRANCH  18  21
ENDBRANCH   7  18
BRANCH   1  34
ATOM     34  C   UNL     1      -0.785   0.689  -0.983  0.00  0.00    +0.170 C 
BRANCH  34  36
ATOM     35  C   UNL     1       0.154   2.787  -1.806  0.00  0.00    +0.006 C 
ATOM     36  C   UNL     1       0.352   1.527  -1.508  0.00  0.00    -0.012 C 
ENDBRANCH  34  36
ENDBRANCH   1  34
TORSDOF 7
