REMARK  Name = ZINC28731202
REMARK  13 active torsions:
REMARK  status: ('A' for Active; 'I' for Inactive)
REMARK    1  A    between atoms: C_1  and  C_2
REMARK    2  A    between atoms: C_2  and  C_3
REMARK    3  A    between atoms: C_3  and  C_4
REMARK    4  A    between atoms: C_7  and  C_10
REMARK    5  A    between atoms: C_10  and  C_12
REMARK    6  A    between atoms: C_10  and  N_15
REMARK    7  A    between atoms: C_12  and  C_13
REMARK    8  A    between atoms: C_12  and  C_14
REMARK    9  A    between atoms: N_15  and  C_16
REMARK   10  A    between atoms: C_16  and  C_17
REMARK   11  A    between atoms: N_19  and  C_20
REMARK   12  A    between atoms: C_20  and  C_21
REMARK   13  A    between atoms: N_23  and  C_24
REMARK                            x       y       z     vdW  Elec       q    Type
REMARK                         _______ _______ _______ _____ _____    ______ ____
ROOT
ATOM      1  C   UNL     1      -1.160  -2.447   3.029  0.00  0.00    +0.196 C 
ATOM      2  O   UNL     1      -0.192  -3.010   2.561  0.00  0.00    -0.278 OA
ATOM      3  N   UNL     1      -2.182  -3.170   3.530  0.00  0.00    -0.308 N 
ATOM      4  H   UNL     1      -3.059  -2.660   3.954  0.00  0.00    +0.149 HD
ENDROOT
BRANCH   1   5
ATOM      5  C   UNL     1      -1.220  -0.942   3.049  0.00  0.00    +0.016 C 
BRANCH   5   6
ATOM      6  N   UNL     1       0.004  -0.395   2.450  0.00  0.00    +0.389 N 
ATOM      7  H   UNL     1       0.084  -0.758   1.414  0.00  0.00    -0.084 HD
ATOM      8  H   UNL     1       0.870  -0.749   3.030  0.00  0.00    -0.084 HD
BRANCH   6   9
ATOM      9  C   UNL     1      -0.019   1.074   2.452  0.00  0.00    -0.038 C 
BRANCH   9  13
ATOM     10  C   UNL     1       3.985   2.561   2.388  0.00  0.00    -0.047 A 
ATOM     11  C   UNL     1       3.031   3.179   3.175  0.00  0.00    +0.004 A 
ATOM     12  C   UNL     1       1.735   2.698   3.195  0.00  0.00    +0.002 A 
ATOM     13  C   UNL     1       1.394   1.599   2.429  0.00  0.00    -0.061 A 
ATOM     14  C   UNL     1       2.349   0.978   1.647  0.00  0.00    +0.002 A 
ATOM     15  C   UNL     1       3.644   1.462   1.623  0.00  0.00    +0.004 A 
BRANCH  10  16
ATOM     16  C   UNL     1       5.398   3.085   2.366  0.00  0.00    +0.035 C 
BRANCH  16  18
ATOM     17  C   UNL     1       7.651   2.924   3.435  0.00  0.00    +0.004 C 
ATOM     18  C   UNL     1       6.216   2.392   3.457  0.00  0.00    +0.001 C 
ENDBRANCH  16  18
ENDBRANCH  10  16
ENDBRANCH   9  13
BRANCH   9  19
ATOM     19  C   UNL     1      -0.769   1.574   1.216  0.00  0.00    -0.027 C 
ATOM     20  C   UNL     1      -0.060   1.078  -0.046  0.00  0.00    +0.006 C 
ATOM     21  C   UNL     1      -0.793   3.104   1.219  0.00  0.00    +0.006 C 
ENDBRANCH   9  19
ENDBRANCH   6   9
ENDBRANCH   5   6
ENDBRANCH   1   5
BRANCH   3  22
ATOM     22  C   UNL     1      -2.123  -4.633   3.510  0.00  0.00    +0.200 C 
BRANCH  22  23
ATOM     23  C   UNL     1      -3.380  -5.194   4.125  0.00  0.00    +0.234 C 
ATOM     24  O   UNL     1      -4.239  -4.445   4.539  0.00  0.00    -0.274 OA
ATOM     25  N   UNL     1      -3.548  -6.529   4.215  0.00  0.00    -0.282 N 
ATOM     26  H   UNL     1      -2.804  -7.208   3.774  0.00  0.00    +0.155 HD
BRANCH  25  27
ATOM     27  C   UNL     1      -4.672  -7.050   4.870  0.00  0.00    +0.072 A 
ATOM     28  C   UNL     1      -5.889  -6.388   4.796  0.00  0.00    +0.029 A 
ATOM     29  C   UNL     1      -6.998  -6.905   5.438  0.00  0.00    +0.043 A 
ATOM     30  C   UNL     1      -6.895  -8.079   6.164  0.00  0.00    +0.161 A 
ATOM     31  C   UNL     1      -5.680  -8.742   6.245  0.00  0.00    +0.195 A 
ATOM     32  C   UNL     1      -4.567  -8.229   5.599  0.00  0.00    +0.182 A 
ATOM     33  F   UNL     1      -3.383  -8.874   5.677  0.00  0.00    -0.200 F 
ATOM     34  F   UNL     1      -5.581  -9.887   6.955  0.00  0.00    -0.199 F 
ATOM     35  F   UNL     1      -7.980  -8.580   6.795  0.00  0.00    -0.202 F 
ENDBRANCH  25  27
ENDBRANCH  22  23
ENDBRANCH   3  22
TORSDOF 10
