REMARK  Name = ZINC38804581
REMARK  6 active torsions:
REMARK  status: ('A' for Active; 'I' for Inactive)
REMARK    1  A    between atoms: C_1  and  C_2
REMARK    2  A    between atoms: C_10  and  N_21
REMARK    3  A    between atoms: C_11  and  C_12
REMARK    4  A    between atoms: C_22  and  C_24
REMARK    5  A    between atoms: C_24  and  O_25
REMARK    6  A    between atoms: O_25  and  C_26
REMARK                            x       y       z     vdW  Elec       q    Type
REMARK                         _______ _______ _______ _____ _____    ______ ____
ROOT
ATOM      1  C   UNL     1      -0.023   1.503   0.011  0.00  0.00    +0.109 C 
ATOM      2  C   UNL     1       0.002  -0.004   0.002  0.00  0.00    +0.213 C 
ATOM      3  O   UNL     1       0.116  -0.615   1.044  0.00  0.00    -0.276 OA
ATOM      4  N   UNL     1      -0.102  -0.673  -1.163  0.00  0.00    -0.297 N 
ATOM      5  C   UNL     1      -0.200  -2.140  -1.196  0.00  0.00    +0.113 C 
ATOM      6  C   UNL     1      -1.561  -2.550  -1.762  0.00  0.00    +0.055 C 
ATOM      7  C   UNL     1      -1.831  -1.765  -3.041  0.00  0.00    -0.023 A 
ATOM      8  C   UNL     1      -1.168  -0.616  -3.307  0.00  0.00    +0.013 A 
ATOM      9  S   UNL     1      -1.805  -0.070  -4.866  0.00  0.00    -0.076 S 
ATOM     10  C   UNL     1      -2.964  -1.395  -5.162  0.00  0.00    +0.082 A 
ATOM     11  C   UNL     1      -2.798  -2.188  -4.039  0.00  0.00    +0.039 A 
ATOM     12  C   UNL     1      -0.127   0.039  -2.457  0.00  0.00    +0.150 C 
ENDROOT
BRANCH  11  13
ATOM     13  C   UNL     1      -3.579  -3.424  -3.861  0.00  0.00    +0.112 A 
ATOM     14  N   UNL     1      -3.551  -4.283  -2.862  0.00  0.00    -0.239 NA
ATOM     15  C   UNL     1      -4.331  -5.383  -2.834  0.00  0.00    +0.079 A 
ATOM     16  C   UNL     1      -4.399  -6.379  -1.830  0.00  0.00    +0.029 A 
ATOM     17  C   UNL     1      -5.252  -7.443  -1.957  0.00  0.00    +0.002 A 
ATOM     18  C   UNL     1      -6.076  -7.585  -3.064  0.00  0.00    +0.001 A 
ATOM     19  C   UNL     1      -6.036  -6.630  -4.065  0.00  0.00    +0.017 A 
ATOM     20  C   UNL     1      -5.185  -5.560  -3.947  0.00  0.00    +0.040 A 
ATOM     21  S   UNL     1      -4.811  -4.136  -4.942  0.00  0.00    -0.067 S 
ENDBRANCH  11  13
BRANCH  10  22
ATOM     22  N   UNL     1      -3.816  -1.583  -6.245  0.00  0.00    -0.277 N 
ATOM     23  C   UNL     1      -3.831  -0.689  -7.253  0.00  0.00    +0.255 C 
ATOM     24  O   UNL     1      -3.102   0.280  -7.216  0.00  0.00    -0.272 OA
ATOM     25  H   UNL     1      -4.399  -2.357  -6.274  0.00  0.00    +0.155 HD
BRANCH  23  26
ATOM     26  C   UNL     1      -4.755  -0.893  -8.427  0.00  0.00    +0.324 C 
BRANCH  26  27
ATOM     27  O   UNL     1      -4.588   0.179  -9.356  0.00  0.00    -0.483 OA
BRANCH  27  28
ATOM     28  C   UNL     1      -5.353   0.147 -10.479  0.00  0.00    +0.122 A 
ATOM     29  C   UNL     1      -6.253  -0.905 -10.670  0.00  0.00    +0.046 A 
ATOM     30  C   UNL     1      -7.032  -0.965 -11.783  0.00  0.00    +0.012 A 
ATOM     31  C   UNL     1      -6.934   0.044 -12.758  0.00  0.00    -0.018 A 
ATOM     32  C   UNL     1      -7.724   0.014 -13.920  0.00  0.00    +0.008 A 
ATOM     33  C   UNL     1      -7.604   1.007 -14.842  0.00  0.00    +0.001 A 
ATOM     34  C   UNL     1      -6.707   2.057 -14.653  0.00  0.00    +0.001 A 
ATOM     35  C   UNL     1      -5.926   2.120 -13.541  0.00  0.00    +0.008 A 
ATOM     36  C   UNL     1      -6.022   1.112 -12.566  0.00  0.00    -0.014 A 
ATOM     37  C   UNL     1      -5.236   1.146 -11.403  0.00  0.00    +0.054 A 
ENDBRANCH  27  28
ENDBRANCH  26  27
ENDBRANCH  23  26
ENDBRANCH  10  22
TORSDOF 5
