REMARK  Name = ZINC55242781
REMARK  9 active torsions:
REMARK  status: ('A' for Active; 'I' for Inactive)
REMARK    1  A    between atoms: C_1  and  C_2
REMARK    2  A    between atoms: C_2  and  C_4
REMARK    3  A    between atoms: C_2  and  N_15
REMARK    4  A    between atoms: C_9  and  N_10
REMARK    5  A    between atoms: N_15  and  C_16
REMARK    6  A    between atoms: C_16  and  C_17
REMARK    7  A    between atoms: N_19  and  C_26
REMARK    8  A    between atoms: C_26  and  C_27
REMARK    9  A    between atoms: C_27  and  C_28
REMARK                            x       y       z     vdW  Elec       q    Type
REMARK                         _______ _______ _______ _____ _____    ______ ____
ROOT
ATOM      1  C   UNL     1       2.100  -0.070  -1.159  0.00  0.00    -0.044 C 
ENDROOT
BRANCH   1   2
ATOM      2  C   UNL     1       2.806  -0.556  -2.399  0.00  0.00    -0.039 A 
ATOM      3  C   UNL     1       3.580  -1.648  -2.501  0.00  0.00    +0.088 A 
ATOM      4  N   UNL     1       4.049  -1.769  -3.781  0.00  0.00    -0.346 N 
ATOM      5  C   UNL     1       3.576  -0.732  -4.553  0.00  0.00    +0.049 A 
ATOM      6  C   UNL     1       2.771   0.070  -3.723  0.00  0.00    +0.001 A 
ATOM      7  C   UNL     1       2.147   1.204  -4.244  0.00  0.00    +0.010 A 
ATOM      8  C   UNL     1       2.318   1.529  -5.560  0.00  0.00    +0.001 A 
ATOM      9  C   UNL     1       3.107   0.739  -6.384  0.00  0.00    +0.002 A 
ATOM     10  C   UNL     1       3.740  -0.381  -5.888  0.00  0.00    +0.026 A 
BRANCH   4  11
ATOM     11  C   UNL     1       4.924  -2.843  -4.258  0.00  0.00    +0.131 C 
BRANCH  11  12
ATOM     12  C   UNL     1       6.381  -2.381  -4.190  0.00  0.00    +0.117 C 
BRANCH  12  13
ATOM     13  C   UNL     1       7.282  -3.485  -4.681  0.00  0.00    +0.212 C 
ATOM     14  O   UNL     1       6.805  -4.538  -5.049  0.00  0.00    -0.276 OA
ATOM     15  N   UNL     1       8.617  -3.303  -4.712  0.00  0.00    -0.329 N 
ATOM     16  H   UNL     1       8.998  -2.461  -4.418  0.00  0.00    +0.145 HD
ATOM     17  H   UNL     1       9.196  -4.014  -5.028  0.00  0.00    +0.145 HD
ENDBRANCH  12  13
ENDBRANCH  11  12
ENDBRANCH   4  11
ENDBRANCH   1   2
BRANCH   1  18
ATOM     18  N   UNL     1       0.690  -0.478  -1.207  0.00  0.00    +0.386 N 
ATOM     19  H   UNL     1       0.632  -1.484  -1.254  0.00  0.00    -0.085 HD
ATOM     20  H   UNL     1       0.251  -0.077  -2.022  0.00  0.00    -0.085 HD
BRANCH  18  22
ATOM     21  C   UNL     1      -0.019   1.526   0.010  0.00  0.00    -0.009 C 
ATOM     22  C   UNL     1       0.002  -0.004   0.002  0.00  0.00    -0.042 C 
BRANCH  22  23
ATOM     23  C   UNL     1      -1.412  -0.526   0.013  0.00  0.00    -0.036 A 
ATOM     24  C   UNL     1      -1.998  -0.959  -1.161  0.00  0.00    +0.004 A 
ATOM     25  C   UNL     1      -3.295  -1.437  -1.152  0.00  0.00    +0.000 A 
ATOM     26  C   UNL     1      -4.009  -1.484   0.031  0.00  0.00    +0.002 A 
ATOM     27  C   UNL     1      -3.429  -1.052   1.208  0.00  0.00    +0.028 A 
ATOM     28  C   UNL     1      -2.124  -0.577   1.203  0.00  0.00    +0.067 A 
BRANCH  28  29
ATOM     29  N   UNL     1      -1.530  -0.143   2.396  0.00  0.00    -0.240 N 
ATOM     30  C   UNL     1      -2.108  -0.144   3.619  0.00  0.00    +0.114 A 
ATOM     31  C   UNL     1      -1.207   0.348   4.500  0.00  0.00    +0.041 A 
ATOM     32  C   UNL     1      -0.041   0.661   3.794  0.00  0.00    +0.135 A 
ATOM     33  N   UNL     1      -0.231   0.362   2.535  0.00  0.00    -0.175 NA
ENDBRANCH  28  29
ENDBRANCH  22  23
ENDBRANCH  18  22
ENDBRANCH   1  18
TORSDOF 8
