REMARK  Name = ZINC00989156
REMARK  6 active torsions:
REMARK  status: ('A' for Active; 'I' for Inactive)
REMARK    1  A    between atoms: C_1  and  C_2
REMARK    2  A    between atoms: C_2  and  O_3
REMARK    3  A    between atoms: O_3  and  C_4
REMARK    4  A    between atoms: C_4  and  C_6
REMARK    5  A    between atoms: C_7  and  N_27
REMARK    6  A    between atoms: N_18  and  C_21
REMARK                            x       y       z     vdW  Elec       q    Type
REMARK                         _______ _______ _______ _____ _____    ______ ____
ROOT
ATOM      1  C   UNL     1       1.449  -2.348   2.431  0.00  0.00    +0.117 C 
ATOM      2  C   UNL     1       1.493  -3.695   2.614  0.00  0.00    +0.195 C 
ATOM      3  O   UNL     1       2.146  -4.231   3.657  0.00  0.00    -0.446 OA
ATOM      4  C   UNL     1       2.417  -3.492   4.750  0.00  0.00    +0.115 C 
ATOM      5  C   UNL     1       2.422  -2.147   4.699  0.00  0.00    +0.057 C 
ATOM      6  C   UNL     1       2.137  -1.433   3.401  0.00  0.00    +0.141 C 
ATOM      7  C   UNL     1       3.395  -0.874   2.812  0.00  0.00    -0.002 A 
ATOM      8  C   UNL     1       4.546  -1.488   2.369  0.00  0.00    +0.007 A 
ATOM      9  C   UNL     1       5.548  -0.664   1.868  0.00  0.00    +0.000 A 
ATOM     10  C   UNL     1       5.393   0.707   1.819  0.00  0.00    +0.002 A 
ATOM     11  C   UNL     1       4.238   1.331   2.263  0.00  0.00    +0.024 A 
ATOM     12  C   UNL     1       3.225   0.515   2.768  0.00  0.00    +0.041 A 
ATOM     13  N   UNL     1       1.984   0.864   3.272  0.00  0.00    -0.273 N 
ATOM     14  C   UNL     1       1.277  -0.215   3.667  0.00  0.00    +0.240 C 
ATOM     15  O   UNL     1       0.162  -0.210   4.145  0.00  0.00    -0.274 OA
ATOM     16  C   UNL     1       1.497   2.242   3.365  0.00  0.00    +0.138 C 
ATOM     17  C   UNL     1       2.691  -1.372   5.844  0.00  0.00    +0.164 C 
ATOM     18  O   UNL     1       2.701  -0.161   5.755  0.00  0.00    -0.292 OA
ATOM     19  C   UNL     1       2.964  -2.017   7.175  0.00  0.00    +0.080 C 
ATOM     20  C   UNL     1       2.249  -3.372   7.227  0.00  0.00    +0.016 C 
ATOM     21  C   UNL     1       2.721  -4.215   6.041  0.00  0.00    +0.075 C 
ENDROOT
BRANCH   2  22
ATOM     22  N   UNL     1       0.860  -4.518   1.720  0.00  0.00    -0.329 N 
ATOM     23  H   UNL     1       0.461  -4.147   0.918  0.00  0.00    +0.145 HD
ATOM     24  H   UNL     1       0.811  -5.472   1.890  0.00  0.00    +0.145 HD
ENDBRANCH   2  22
BRANCH   1  25
ATOM     25  C   UNL     1       0.763  -1.813   1.329  0.00  0.00    +0.342 C 
ATOM     26  O   UNL     1       1.383  -1.437   0.350  0.00  0.00    -0.245 OA
BRANCH  25  27
ATOM     27  O   UNL     1      -0.584  -1.716   1.355  0.00  0.00    -0.462 OA
BRANCH  27  29
ATOM     28  C   UNL     1      -2.731  -1.131   0.412  0.00  0.00    +0.048 C 
ATOM     29  C   UNL     1      -1.216  -1.161   0.199  0.00  0.00    +0.229 C 
ENDBRANCH  27  29
ENDBRANCH  25  27
ENDBRANCH   1  25
TORSDOF 4
