REMARK  Name = ZINC04566428
REMARK  9 active torsions:
REMARK  status: ('A' for Active; 'I' for Inactive)
REMARK    1  A    between atoms: C_1  and  C_2
REMARK    2  A    between atoms: C_2  and  C_3
REMARK    3  A    between atoms: C_3  and  C_5
REMARK    4  A    between atoms: C_3  and  C_6
REMARK    5  A    between atoms: C_6  and  C_8
REMARK    6  A    between atoms: C_6  and  N_65
REMARK    7  A    between atoms: N_10  and  C_11
REMARK    8  A    between atoms: C_11  and  C_12
REMARK    9  A    between atoms: C_12  and  C_13
REMARK                            x       y       z     vdW  Elec       q    Type
REMARK                         _______ _______ _______ _____ _____    ______ ____
ROOT
ATOM      1  C   UNL     1       3.719   1.508  -0.025  0.00  0.00    +0.217 C 
ATOM      2  O   UNL     1       3.702   2.720   0.018  0.00  0.00    -0.276 OA
ATOM      3  N   UNL     1       4.895   0.851  -0.040  0.00  0.00    -0.297 N 
ATOM      4  C   UNL     1       4.918  -0.610   0.068  0.00  0.00    +0.136 C 
ATOM      5  C   UNL     1       5.793  -1.186  -1.052  0.00  0.00    +0.179 C 
ATOM      6  O   UNL     1       4.980  -1.495  -2.186  0.00  0.00    -0.376 OA
ATOM      7  C   UNL     1       5.668  -2.201  -3.220  0.00  0.00    +0.188 C 
ATOM      8  C   UNL     1       5.219  -1.673  -4.584  0.00  0.00    +0.188 C 
ATOM      9  O   UNL     1       6.273  -0.905  -5.168  0.00  0.00    -0.375 OA
ATOM     10  C   UNL     1       5.840   0.321  -5.761  0.00  0.00    +0.188 C 
ATOM     11  C   UNL     1       6.947   1.369  -5.630  0.00  0.00    +0.188 C 
ATOM     12  O   UNL     1       6.390   2.593  -5.147  0.00  0.00    -0.375 OA
ATOM     13  C   UNL     1       7.179   3.234  -4.142  0.00  0.00    +0.188 C 
ATOM     14  C   UNL     1       6.273   3.691  -2.998  0.00  0.00    +0.188 C 
ATOM     15  O   UNL     1       6.836   3.281  -1.750  0.00  0.00    -0.376 OA
ATOM     16  C   UNL     1       5.867   2.981  -0.744  0.00  0.00    +0.179 C 
ATOM     17  C   UNL     1       6.150   1.597  -0.159  0.00  0.00    +0.136 C 
ENDROOT
BRANCH   1  18
ATOM     18  C   UNL     1       2.424   0.738  -0.062  0.00  0.00    +0.114 C 
BRANCH  18  19
ATOM     19  C   UNL     1       1.248   1.716  -0.036  0.00  0.00    +0.113 C 
BRANCH  19  22
ATOM     20  C   UNL     1      -1.187   1.626  -0.063  0.00  0.00    +0.199 C 
ATOM     21  O   UNL     1      -1.204   2.837  -0.020  0.00  0.00    -0.278 OA
ATOM     22  N   UNL     1      -0.011   0.968  -0.072  0.00  0.00    -0.316 N 
ATOM     23  H   UNL     1       0.002  -0.002  -0.107  0.00  0.00    +0.149 HD
BRANCH  20  24
ATOM     24  C   UNL     1      -2.482   0.856  -0.107  0.00  0.00    +0.016 C 
BRANCH  24  27
ATOM     25  H   UNL     1      -3.671   2.534  -0.184  0.00  0.00    -0.089 HD
ATOM     26  H   UNL     1      -4.442   1.193   0.426  0.00  0.00    -0.089 HD
ATOM     27  N   UNL     1      -3.566   1.712   0.408  0.00  0.00    +0.386 N 
ATOM     28  H   UNL     1      -3.334   2.012   1.362  0.00  0.00    -0.089 HD
ENDBRANCH  24  27
BRANCH  24  29
ATOM     29  C   UNL     1      -2.775   0.431  -1.547  0.00  0.00    -0.020 C 
ATOM     30  C   UNL     1      -1.637  -0.455  -2.058  0.00  0.00    +0.006 C 
BRANCH  29  32
ATOM     31  C   UNL     1      -4.445  -0.668  -3.045  0.00  0.00    +0.004 C 
ATOM     32  C   UNL     1      -4.089  -0.351  -1.591  0.00  0.00    -0.001 C 
ENDBRANCH  29  32
ENDBRANCH  24  29
ENDBRANCH  20  24
ENDBRANCH  19  22
ENDBRANCH  18  19
ENDBRANCH   1  18
TORSDOF 7
