REMARK  Name = ZINC63952558
REMARK  7 active torsions:
REMARK  status: ('A' for Active; 'I' for Inactive)
REMARK    1  A    between atoms: C_1  and  O_2
REMARK    2  A    between atoms: O_2  and  C_3
REMARK    3  A    between atoms: C_7  and  C_12
REMARK    4  A    between atoms: C_12  and  C_13
REMARK    5  A    between atoms: C_13  and  N_14
REMARK    6  A    between atoms: C_18  and  C_23
REMARK    7  A    between atoms: N_21  and  N_22
REMARK                            x       y       z     vdW  Elec       q    Type
REMARK                         _______ _______ _______ _____ _____    ______ ____
ROOT
ATOM      1  N   UNL     1       5.312  -1.749  -6.426  0.00  0.00    -0.312 N 
ATOM      2  C   UNL     1       6.678  -1.654  -6.441  0.00  0.00    +0.235 A 
ATOM      3  N   UNL     1       7.355  -1.900  -5.335  0.00  0.00    -0.113 NA
ATOM      4  N   UNL     1       8.636  -1.832  -5.273  0.00  0.00    -0.140 NA
ATOM      5  C   UNL     1       9.356  -1.504  -6.332  0.00  0.00    +0.159 A 
ATOM      6  C   UNL     1       8.661  -1.218  -7.592  0.00  0.00    +0.298 A 
ATOM      7  O   UNL     1       9.277  -0.912  -8.598  0.00  0.00    -0.264 OA
ATOM      8  N   UNL     1       7.310  -1.313  -7.597  0.00  0.00    -0.199 N 
ATOM      9  H   UNL     1       4.805  -1.573  -7.234  0.00  0.00    +0.149 HD
ENDROOT
BRANCH   5  10
ATOM     10  C   UNL     1      10.832  -1.428  -6.249  0.00  0.00    +0.008 A 
ATOM     11  C   UNL     1      11.539  -0.584  -7.106  0.00  0.00    +0.011 A 
ATOM     12  C   UNL     1      12.915  -0.516  -7.024  0.00  0.00    +0.020 A 
ATOM     13  C   UNL     1      13.594  -1.285  -6.093  0.00  0.00    +0.041 A 
ATOM     14  C   UNL     1      12.897  -2.124  -5.240  0.00  0.00    +0.020 A 
ATOM     15  C   UNL     1      11.521  -2.195  -5.310  0.00  0.00    +0.011 A 
ATOM     16 CL   UNL     1      15.325  -1.195  -5.996  0.00  0.00    -0.084 Cl
ENDBRANCH   5  10
BRANCH   8  17
ATOM     17  N   UNL     1       6.597  -1.066  -8.736  0.00  0.00    -0.293 N 
ATOM     18  H   UNL     1       7.210  -0.827  -9.501  0.00  0.00    +0.163 HD
ATOM     19  H   UNL     1       6.011  -1.852  -8.973  0.00  0.00    +0.163 HD
ENDBRANCH   8  17
BRANCH   1  20
ATOM     20  C   UNL     1       4.617  -2.115  -5.189  0.00  0.00    +0.109 C 
BRANCH  20  21
ATOM     21  C   UNL     1       3.109  -2.149  -5.443  0.00  0.00    +0.052 C 
BRANCH  21  26
ATOM     22  C   UNL     1       0.597  -0.414  -1.102  0.00  0.00    +0.122 A 
ATOM     23  C   UNL     1       1.167   0.356  -2.133  0.00  0.00    +0.046 A 
ATOM     24  C   UNL     1       1.782  -0.218  -3.189  0.00  0.00    +0.013 A 
ATOM     25  C   UNL     1       1.857  -1.683  -3.262  0.00  0.00    -0.001 A 
ATOM     26  C   UNL     1       2.394  -2.526  -4.171  0.00  0.00    -0.040 C 
ATOM     27  C   UNL     1       2.132  -3.923  -3.656  0.00  0.00    +0.144 C 
ATOM     28  N   UNL     1       1.408  -3.757  -2.390  0.00  0.00    -0.380 N 
ATOM     29  C   UNL     1       1.251  -2.473  -2.165  0.00  0.00    +0.046 A 
ATOM     30  C   UNL     1       0.633  -1.771  -1.100  0.00  0.00    +0.071 A 
ATOM     31  H   UNL     1       1.098  -4.475  -1.817  0.00  0.00    +0.160 HD
BRANCH  22  33
ATOM     32  C   UNL     1      -0.022   1.651  -0.107  0.00  0.00    +0.277 C 
ATOM     33  O   UNL     1      -0.006   0.223  -0.068  0.00  0.00    -0.495 OA
ENDBRANCH  22  33
ENDBRANCH  21  26
ENDBRANCH  20  21
ENDBRANCH   1  20
TORSDOF 6
