REMARK  Name = ZINC02827315
REMARK  7 active torsions:
REMARK  status: ('A' for Active; 'I' for Inactive)
REMARK    1  A    between atoms: C_1  and  C_2
REMARK    2  A    between atoms: C_5  and  C_11
REMARK    3  A    between atoms: C_7  and  N_8
REMARK    4  A    between atoms: N_13  and  C_14
REMARK    5  A    between atoms: C_14  and  N_16
REMARK    6  A    between atoms: N_16  and  C_17
REMARK    7  A    between atoms: C_20  and  N_24
REMARK                            x       y       z     vdW  Elec       q    Type
REMARK                         _______ _______ _______ _____ _____    ______ ____
ROOT
ATOM      1  N   UNL     1      -3.003  -7.351   0.156  0.00  0.00    -0.295 N 
ATOM      2  H   UNL     1      -2.638  -8.155   0.559  0.00  0.00    +0.154 HD
ENDROOT
BRANCH   1   3
ATOM      3  C   UNL     1      -2.247  -6.172   0.135  0.00  0.00    +0.051 A 
ATOM      4  C   UNL     1      -2.867  -4.946   0.336  0.00  0.00    +0.026 A 
ATOM      5  C   UNL     1      -2.122  -3.784   0.316  0.00  0.00    +0.026 A 
ATOM      6  C   UNL     1      -0.752  -3.841   0.094  0.00  0.00    +0.046 A 
ATOM      7  C   UNL     1      -0.132  -5.065  -0.113  0.00  0.00    +0.045 A 
ATOM      8  C   UNL     1      -0.876  -6.229  -0.086  0.00  0.00    +0.064 A 
ATOM      9 CL   UNL     1      -0.100  -7.762  -0.338  0.00  0.00    -0.082 Cl
BRANCH   6  10
ATOM     10  N   UNL     1       0.004  -2.659   0.074  0.00  0.00    -0.202 N 
ATOM     11  C   UNL     1      -0.504  -1.427   0.257  0.00  0.00    +0.258 C 
ATOM     12  O   UNL     1      -1.672  -1.165   0.464  0.00  0.00    -0.269 OA
ATOM     13  C   UNL     1       0.597  -0.445   0.165  0.00  0.00    +0.050 A 
ATOM     14  C   UNL     1       0.675   0.934   0.268  0.00  0.00    +0.014 A 
ATOM     15  C   UNL     1       1.901   1.566   0.127  0.00  0.00    +0.001 A 
ATOM     16  C   UNL     1       3.045   0.829  -0.115  0.00  0.00    +0.001 A 
ATOM     17  C   UNL     1       2.982  -0.552  -0.221  0.00  0.00    +0.014 A 
ATOM     18  C   UNL     1       1.764  -1.197  -0.083  0.00  0.00    +0.050 A 
ATOM     19  C   UNL     1       1.332  -2.610  -0.133  0.00  0.00    +0.258 C 
ATOM     20  O   UNL     1       2.056  -3.566  -0.327  0.00  0.00    -0.269 OA
ENDBRANCH   6  10
ENDBRANCH   1   3
BRANCH   1  21
ATOM     21  C   UNL     1      -4.237  -7.370  -0.385  0.00  0.00    +0.141 C 
ATOM     22  S   UNL     1      -4.849  -5.978  -1.171  0.00  0.00    -0.018 S 
BRANCH  21  25
ATOM     23  C   UNL     1      -6.225  -8.504  -0.848  0.00  0.00    +0.250 C 
ATOM     24  O   UNL     1      -6.659  -7.516  -1.406  0.00  0.00    -0.270 OA
ATOM     25  N   UNL     1      -4.990  -8.485  -0.307  0.00  0.00    -0.264 N 
ATOM     26  H   UNL     1      -4.644  -9.274   0.138  0.00  0.00    +0.157 HD
BRANCH  23  31
ATOM     27  C   UNL     1      -9.440 -13.264  -0.513  0.00  0.00    +0.046 C 
ATOM     28  C   UNL     1      -8.598 -12.018  -0.602  0.00  0.00    -0.020 A 
ATOM     29  C   UNL     1      -7.331 -12.002  -0.045  0.00  0.00    +0.006 A 
ATOM     30  C   UNL     1      -6.552 -10.866  -0.127  0.00  0.00    +0.013 A 
ATOM     31  C   UNL     1      -7.050  -9.727  -0.762  0.00  0.00    +0.039 A 
ATOM     32  C   UNL     1      -8.329  -9.750  -1.321  0.00  0.00    +0.046 A 
ATOM     33  C   UNL     1      -9.095 -10.894  -1.238  0.00  0.00    +0.130 A 
BRANCH  33  34
ATOM     34  N   UNL     1     -10.451 -10.921  -1.830  0.00  0.00    +0.057 N 
ATOM     35  O   UNL     1     -10.864  -9.956  -2.449  0.00  0.00    -0.126 OA
ATOM     36  O   UNL     1     -11.154 -11.907  -1.699  0.00  0.00    -0.126 OA
ENDBRANCH  33  34
ENDBRANCH  23  31
ENDBRANCH  21  25
ENDBRANCH   1  21
TORSDOF 6
