REMARK  Name = ZINC43263482
REMARK  8 active torsions:
REMARK  status: ('A' for Active; 'I' for Inactive)
REMARK    1  A    between atoms: C_1  and  C_2
REMARK    2  A    between atoms: C_3  and  C_20
REMARK    3  A    between atoms: N_5  and  C_8
REMARK    4  A    between atoms: C_6  and  C_7
REMARK    5  A    between atoms: C_8  and  C_10
REMARK    6  A    between atoms: C_8  and  C_16
REMARK    7  A    between atoms: C_16  and  C_18
REMARK    8  A    between atoms: C_16  and  N_19
REMARK                            x       y       z     vdW  Elec       q    Type
REMARK                         _______ _______ _______ _____ _____    ______ ____
ROOT
ATOM      1  C   UNL     1       0.054  -3.280   1.509  0.00  0.00    +0.129 C 
ENDROOT
BRANCH   1   6
ATOM      2  C   UNL     1      -0.018   1.503   0.010  0.00  0.00    +0.047 C 
ATOM      3  C   UNL     1       0.002  -0.004   0.002  0.00  0.00    -0.007 A 
ATOM      4  C   UNL     1       0.009  -0.821  -1.133  0.00  0.00    +0.063 A 
ATOM      5  N   UNL     1       0.028  -2.068  -0.740  0.00  0.00    -0.175 NA
ATOM      6  N   UNL     1       0.034  -2.085   0.661  0.00  0.00    -0.262 N 
ATOM      7  C   UNL     1       0.023  -0.806   1.092  0.00  0.00    +0.040 A 
ATOM      8  C   UNL     1       0.030  -0.352   2.529  0.00  0.00    +0.065 C 
ATOM      9  C   UNL     1      -0.004  -0.346  -2.564  0.00  0.00    +0.068 C 
ENDBRANCH   1   6
BRANCH   1  10
ATOM     10  C   UNL     1       1.295  -4.083   1.215  0.00  0.00    +0.014 A 
ATOM     11  C   UNL     1       2.301  -4.435   2.052  0.00  0.00    +0.014 A 
ATOM     12  C   UNL     1       3.353  -5.184   1.558  0.00  0.00    +0.023 A 
ATOM     13  C   UNL     1       3.346  -5.544   0.250  0.00  0.00    +0.055 A 
ATOM     14  S   UNL     1       1.816  -4.824  -0.323  0.00  0.00    -0.084 S 
ATOM     15 BR   UNL     1       4.622  -6.554  -0.714  0.00  0.00    -0.043 Br
ENDBRANCH   1  10
BRANCH   1  16
ATOM     16  C   UNL     1      -1.184  -4.130   1.221  0.00  0.00    -0.048 C 
ATOM     17  C   UNL     1      -2.444  -3.315   1.519  0.00  0.00    -0.012 C 
BRANCH  16  18
ATOM     18  N   UNL     1      -1.164  -5.328   2.071  0.00  0.00    +0.381 N 
ATOM     19  H   UNL     1      -1.164  -5.052   3.041  0.00  0.00    -0.090 HD
ATOM     20  H   UNL     1      -1.981  -5.889   1.881  0.00  0.00    -0.090 HD
ATOM     21  H   UNL     1      -0.333  -5.866   1.874  0.00  0.00    -0.090 HD
ENDBRANCH  16  18
ENDBRANCH   1  16
TORSDOF 4
