REMARK  Name = ZINC20357222
REMARK  11 active torsions:
REMARK  status: ('A' for Active; 'I' for Inactive)
REMARK    1  A    between atoms: C_1  and  C_2
REMARK    2  A    between atoms: C_6  and  N_8
REMARK    3  A    between atoms: N_8  and  C_9
REMARK    4  A    between atoms: C_9  and  N_11
REMARK    5  A    between atoms: N_11  and  C_12
REMARK    6  A    between atoms: N_11  and  C_20
REMARK    7  A    between atoms: C_12  and  C_13
REMARK    8  A    between atoms: C_22  and  C_28
REMARK    9  A    between atoms: C_22  and  C_29
REMARK   10  A    between atoms: C_24  and  C_26
REMARK   11  A    between atoms: C_24  and  C_27
REMARK                            x       y       z     vdW  Elec       q    Type
REMARK                         _______ _______ _______ _____ _____    ______ ____
ROOT
ATOM      1  N   UNL     1      -0.360   4.584  -1.337  0.00  0.00    -0.305 N 
ENDROOT
BRANCH   1   2
ATOM      2  C   UNL     1       0.492   3.431  -1.020  0.00  0.00    +0.073 C 
ATOM      3  C   UNL     1       1.774   3.923  -0.349  0.00  0.00    +0.009 C 
ATOM      4  C   UNL     1       2.671   2.741   0.011  0.00  0.00    -0.072 C 
ATOM      5  N   UNL     1       1.968   1.693   0.721  0.00  0.00    +0.386 N 
ATOM      6  C   UNL     1       0.627   1.316   0.323  0.00  0.00    -0.072 C 
ATOM      7  C   UNL     1      -0.245   2.514  -0.044  0.00  0.00    +0.009 C 
ATOM      8  C   UNL     1       0.654   0.324  -0.846  0.00  0.00    -0.010 C 
ATOM      9  C   UNL     1      -0.045   0.599   1.515  0.00  0.00    -0.010 C 
ATOM     10  C   UNL     1       3.795   3.273   0.928  0.00  0.00    -0.010 C 
ATOM     11  C   UNL     1       3.340   2.199  -1.258  0.00  0.00    -0.010 C 
ATOM     12  H   UNL     1       2.537   0.755   0.648  0.00  0.00    -0.084 HD
ATOM     13  H   UNL     1       1.859   1.975   1.778  0.00  0.00    -0.084 HD
ENDBRANCH   1   2
BRANCH   1  14
ATOM     14  C   UNL     1      -0.877   5.334  -0.344  0.00  0.00    +0.138 C 
ATOM     15  S   UNL     1      -1.974   6.597  -0.708  0.00  0.00    -0.018 S 
BRANCH  14  16
ATOM     16  N   UNL     1      -0.530   5.090   0.935  0.00  0.00    -0.296 N 
ATOM     17  H   UNL     1       0.239   4.338   1.162  0.00  0.00    +0.154 HD
BRANCH  16  23
ATOM     18  C   UNL     1      -1.977   9.373   2.869  0.00  0.00    +0.044 C 
ATOM     19  C   UNL     1      -1.863   7.872   2.938  0.00  0.00    -0.049 A 
ATOM     20  C   UNL     1      -2.370   7.190   4.029  0.00  0.00    +0.005 A 
ATOM     21  C   UNL     1      -2.268   5.812   4.096  0.00  0.00    +0.022 A 
ATOM     22  C   UNL     1      -1.662   5.112   3.070  0.00  0.00    +0.062 A 
ATOM     23  C   UNL     1      -1.147   5.795   1.974  0.00  0.00    +0.051 A 
ATOM     24  C   UNL     1      -1.252   7.179   1.911  0.00  0.00    +0.028 A 
ATOM     25 CL   UNL     1      -1.539   3.383   3.151  0.00  0.00    -0.082 Cl
ENDBRANCH  16  23
ENDBRANCH  14  16
ENDBRANCH   1  14
BRANCH   1  26
ATOM     26  C   UNL     1      -0.649   4.918  -2.734  0.00  0.00    +0.145 C 
BRANCH  26  27
ATOM     27  C   UNL     1      -1.895   4.195  -3.177  0.00  0.00    +0.005 A 
ATOM     28  C   UNL     1      -3.084   4.887  -3.314  0.00  0.00    +0.008 A 
ATOM     29  C   UNL     1      -4.227   4.224  -3.720  0.00  0.00    +0.000 A 
ATOM     30  C   UNL     1      -4.182   2.869  -3.991  0.00  0.00    +0.003 A 
ATOM     31  C   UNL     1      -2.994   2.175  -3.855  0.00  0.00    +0.038 A 
ATOM     32  C   UNL     1      -1.848   2.839  -3.452  0.00  0.00    +0.128 A 
ATOM     33  F   UNL     1      -0.685   2.163  -3.324  0.00  0.00    -0.205 F 
ENDBRANCH  26  27
ENDBRANCH   1  26
TORSDOF 6
