REMARK  Name = ZINC02794269
REMARK  10 active torsions:
REMARK  status: ('A' for Active; 'I' for Inactive)
REMARK    1  A    between atoms: C_1  and  C_2
REMARK    2  A    between atoms: C_6  and  N_8
REMARK    3  A    between atoms: N_8  and  C_9
REMARK    4  A    between atoms: C_9  and  N_11
REMARK    5  A    between atoms: N_11  and  N_12
REMARK    6  A    between atoms: C_13  and  C_15
REMARK    7  A    between atoms: C_20  and  C_34
REMARK    8  A    between atoms: C_23  and  C_26
REMARK    9  A    between atoms: C_29  and  C_33
REMARK   10  A    between atoms: C_30  and  C_32
REMARK                            x       y       z     vdW  Elec       q    Type
REMARK                         _______ _______ _______ _____ _____    ______ ____
ROOT
ATOM      1  C   UNL     1      -1.479  10.013   0.373  0.00  0.00    +0.150 A 
ATOM      2  C   UNL     1      -1.650  11.412   0.487  0.00  0.00    +0.078 A 
ATOM      3  C   UNL     1      -2.974  11.664   0.458  0.00  0.00    +0.119 A 
ATOM      4  N   UNL     1      -3.631  10.472   0.340  0.00  0.00    -0.238 N 
ATOM      5  N   UNL     1      -2.675   9.458   0.288  0.00  0.00    -0.164 NA
ATOM      6  C   UNL     1      -5.091  10.350   0.286  0.00  0.00    +0.215 C 
ATOM      7  C   UNL     1      -5.716  11.629   0.854  0.00  0.00    +0.063 C 
ATOM      8  C   UNL     1      -5.083  12.858   0.192  0.00  0.00    +0.104 C 
ATOM      9  N   UNL     1      -3.646  12.886   0.532  0.00  0.00    -0.322 N 
ATOM     10  H   UNL     1      -3.168  13.834   0.823  0.00  0.00    +0.148 HD
ENDROOT
BRANCH   8  11
ATOM     11  C   UNL     1      -5.752  14.109   0.701  0.00  0.00    -0.027 A 
ATOM     12  C   UNL     1      -5.400  14.629   1.933  0.00  0.00    +0.006 A 
ATOM     13  C   UNL     1      -6.010  15.778   2.398  0.00  0.00    +0.004 A 
ATOM     14  C   UNL     1      -6.980  16.402   1.636  0.00  0.00    -0.048 A 
ATOM     15  C   UNL     1      -7.336  15.879   0.407  0.00  0.00    -0.047 A 
ATOM     16  C   UNL     1      -6.722  14.732  -0.060  0.00  0.00    +0.009 A 
ATOM     17  C   UNL     1      -8.394  16.560  -0.424  0.00  0.00    +0.044 C 
ATOM     18  C   UNL     1      -7.649  17.653   2.145  0.00  0.00    +0.044 C 
ENDBRANCH   8  11
BRANCH   1  20
ATOM     19  N   UNL     1      -0.164   7.953   0.248  0.00  0.00    -0.230 N 
ATOM     20  C   UNL     1      -0.188   9.296   0.357  0.00  0.00    +0.280 C 
ATOM     21  O   UNL     1       0.854   9.918   0.443  0.00  0.00    -0.267 OA
ATOM     22  H   UNL     1      -1.106   7.391   0.171  0.00  0.00    +0.173 HD
BRANCH  19  23
ATOM     23  N   UNL     1       1.061   7.273   0.234  0.00  0.00    -0.245 N 
ATOM     24  H   UNL     1       2.004   7.836   0.311  0.00  0.00    +0.172 HD
BRANCH  23  25
ATOM     25  C   UNL     1       1.085   5.930   0.125  0.00  0.00    +0.151 C 
ATOM     26  S   UNL     1       2.582   5.099   0.107  0.00  0.00    -0.017 S 
BRANCH  25  27
ATOM     27  N   UNL     1      -0.069   5.241   0.030  0.00  0.00    -0.296 N 
ATOM     28  H   UNL     1      -1.025   5.779  -0.051  0.00  0.00    +0.154 HD
BRANCH  27  34
ATOM     29  C   UNL     1      -1.724   0.983  -1.785  0.00  0.00    +0.044 C 
ATOM     30  C   UNL     1      -0.843   1.753  -0.835  0.00  0.00    -0.049 A 
ATOM     31  C   UNL     1      -0.016   1.076   0.042  0.00  0.00    +0.003 A 
ATOM     32  C   UNL     1       0.797   1.778   0.912  0.00  0.00    +0.002 A 
ATOM     33  C   UNL     1       0.782   3.160   0.910  0.00  0.00    +0.023 A 
ATOM     34  C   UNL     1      -0.051   3.842   0.034  0.00  0.00    +0.033 A 
ATOM     35  C   UNL     1      -0.867   3.133  -0.838  0.00  0.00    +0.026 A 
ENDBRANCH  27  34
ENDBRANCH  25  27
ENDBRANCH  23  25
ENDBRANCH  19  23
ENDBRANCH   1  20
BRANCH   6  36
ATOM     36  C   UNL     1      -5.536   9.148   1.120  0.00  0.00    +0.412 C 
ATOM     37  F   UNL     1      -5.133   9.327   2.448  0.00  0.00    -0.168 F 
ATOM     38  F   UNL     1      -6.929   9.034   1.067  0.00  0.00    -0.168 F 
ATOM     39  F   UNL     1      -4.953   7.983   0.609  0.00  0.00    -0.168 F 
ENDBRANCH   6  36
TORSDOF 7
