REMARK  Name = ZINC07109720
REMARK  9 active torsions:
REMARK  status: ('A' for Active; 'I' for Inactive)
REMARK    1  A    between atoms: C_1  and  C_2
REMARK    2  A    between atoms: C_2  and  O_3
REMARK    3  A    between atoms: O_3  and  C_4
REMARK    4  A    between atoms: N_10  and  C_22
REMARK    5  A    between atoms: N_13  and  C_14
REMARK    6  A    between atoms: C_14  and  N_60
REMARK    7  A    between atoms: C_18  and  O_21
REMARK    8  A    between atoms: C_22  and  N_62
REMARK    9  A    between atoms: C_26  and  O_29
REMARK                            x       y       z     vdW  Elec       q    Type
REMARK                         _______ _______ _______ _____ _____    ______ ____
ROOT
ATOM      1  C   UNL     1      -2.916   4.674   0.920  0.00  0.00    +0.123 A 
ATOM      2  C   UNL     1      -3.032   5.230   2.188  0.00  0.00    +0.048 A 
ATOM      3  C   UNL     1      -1.915   5.377   2.987  0.00  0.00    +0.031 A 
ATOM      4  C   UNL     1      -0.674   4.969   2.522  0.00  0.00    +0.066 A 
ATOM      5  C   UNL     1      -0.554   4.416   1.246  0.00  0.00    +0.069 A 
ATOM      6  C   UNL     1      -1.679   4.264   0.450  0.00  0.00    +0.073 A 
ATOM      7  N   UNL     1       0.791   4.105   1.066  0.00  0.00    -0.336 N 
ATOM      8  C   UNL     1       1.462   4.460   2.178  0.00  0.00    +0.158 A 
ATOM      9  S   UNL     1       3.147   4.274   2.414  0.00  0.00    -0.013 S 
ATOM     10  N   UNL     1       0.606   4.985   3.075  0.00  0.00    -0.336 N 
ENDROOT
BRANCH   1  11
ATOM     11  O   UNL     1      -4.020   4.532   0.139  0.00  0.00    -0.492 OA
BRANCH  11  13
ATOM     12  C   UNL     1      -6.382   4.735  -0.330  0.00  0.00    +0.048 C 
ATOM     13  C   UNL     1      -5.264   4.974   0.686  0.00  0.00    +0.225 C 
ENDBRANCH  11  13
ENDBRANCH   1  11
BRANCH  10  14
ATOM     14  C   UNL     1       0.960   5.487   4.405  0.00  0.00    +0.049 C 
BRANCH  14  20
ATOM     15  C   UNL     1       0.114   7.708   3.946  0.00  0.00    -0.076 C 
ATOM     16  C   UNL     1       0.527   9.165   3.722  0.00  0.00    -0.016 C 
ATOM     17  C   UNL     1       1.153   9.716   5.006  0.00  0.00    +0.027 C 
ATOM     18  C   UNL     1       2.349   8.844   5.397  0.00  0.00    +0.098 C 
ATOM     19  C   UNL     1       1.883   7.396   5.572  0.00  0.00    -0.045 C 
ATOM     20  N   UNL     1       1.313   6.917   4.295  0.00  0.00    +0.393 N 
ATOM     21  H   UNL     1       2.015   7.031   3.554  0.00  0.00    -0.079 HD
BRANCH  18  22
ATOM     22  O   UNL     1       2.905   9.319   6.624  0.00  0.00    -0.394 OA
ATOM     23  H   UNL     1       3.220  10.232   6.586  0.00  0.00    +0.210 HD
ENDBRANCH  18  22
ENDBRANCH  14  20
ENDBRANCH  10  14
BRANCH   7  24
ATOM     24  C   UNL     1       1.378   3.499  -0.132  0.00  0.00    +0.049 C 
BRANCH  24  30
ATOM     25  C   UNL     1      -0.019   1.526   0.010  0.00  0.00    -0.076 C 
ATOM     26  C   UNL     1       0.002  -0.004   0.002  0.00  0.00    -0.016 C 
ATOM     27  C   UNL     1       0.761  -0.506   1.233  0.00  0.00    +0.027 C 
ATOM     28  C   UNL     1       2.177   0.078   1.224  0.00  0.00    +0.098 C 
ATOM     29  C   UNL     1       2.093   1.605   1.197  0.00  0.00    -0.045 C 
ATOM     30  N   UNL     1       1.373   2.025  -0.024  0.00  0.00    +0.393 N 
ATOM     31  H   UNL     1       1.848   1.629  -0.844  0.00  0.00    -0.079 HD
BRANCH  28  32
ATOM     32  O   UNL     1       2.874  -0.341   2.399  0.00  0.00    -0.394 OA
ATOM     33  H   UNL     1       2.962  -1.300   2.483  0.00  0.00    +0.210 HD
ENDBRANCH  28  32
ENDBRANCH  24  30
ENDBRANCH   7  24
TORSDOF 8
