REMARK  Name = ZINC59170977
REMARK  8 active torsions:
REMARK  status: ('A' for Active; 'I' for Inactive)
REMARK    1  A    between atoms: C_1  and  C_2
REMARK    2  A    between atoms: C_2  and  N_3
REMARK    3  A    between atoms: N_3  and  C_4
REMARK    4  A    between atoms: N_3  and  C_6
REMARK    5  A    between atoms: C_4  and  C_5
REMARK    6  A    between atoms: C_11  and  C_25
REMARK    7  A    between atoms: N_13  and  C_14
REMARK    8  A    between atoms: C_25  and  N_27
REMARK                            x       y       z     vdW  Elec       q    Type
REMARK                         _______ _______ _______ _____ _____    ______ ____
ROOT
ATOM      1  C   UNL     1      -1.538  -0.823   1.907  0.00  0.00    +0.033 A 
ATOM      2  C   UNL     1      -1.176  -0.514   3.220  0.00  0.00    +0.024 A 
ATOM      3  C   UNL     1      -2.053  -0.716   4.244  0.00  0.00    +0.013 A 
ATOM      4  C   UNL     1      -3.325  -1.246   3.982  0.00  0.00    +0.018 A 
ATOM      5  C   UNL     1      -4.231  -1.494   5.043  0.00  0.00    +0.027 A 
ATOM      6  C   UNL     1      -5.393  -2.201   4.763  0.00  0.00    +0.064 A 
ATOM      7  C   UNL     1      -5.582  -2.672   3.376  0.00  0.00    +0.209 A 
ATOM      8  N   UNL     1      -6.333  -3.719   3.109  0.00  0.00    -0.325 N 
ATOM      9  O   UNL     1      -4.954  -1.986   2.387  0.00  0.00    -0.439 OA
ATOM     10  C   UNL     1      -3.705  -1.530   2.655  0.00  0.00    +0.139 A 
ATOM     11  C   UNL     1      -2.803  -1.322   1.626  0.00  0.00    +0.070 A 
ATOM     12  H   UNL     1      -6.697  -4.252   3.833  0.00  0.00    +0.169 HD
ENDROOT
BRANCH   8  13
ATOM     13  C   UNL     1      -6.599  -4.056   1.810  0.00  0.00    +0.043 A 
ATOM     14  C   UNL     1      -6.959  -3.069   0.889  0.00  0.00    +0.027 A 
ATOM     15  C   UNL     1      -7.225  -3.414  -0.419  0.00  0.00    +0.023 A 
ATOM     16  C   UNL     1      -7.137  -4.737  -0.821  0.00  0.00    +0.059 A 
ATOM     17  C   UNL     1      -6.781  -5.721   0.087  0.00  0.00    +0.061 A 
ATOM     18  C   UNL     1      -6.506  -5.387   1.398  0.00  0.00    +0.047 A 
ATOM     19 CL   UNL     1      -6.673  -7.376  -0.426  0.00  0.00    -0.082 Cl
ATOM     20 CL   UNL     1      -7.475  -5.163  -2.470  0.00  0.00    -0.082 Cl
ENDBRANCH   8  13
BRANCH   6  21
ATOM     21  C   UNL     1      -6.394  -2.470   5.804  0.00  0.00    +0.082 C 
ATOM     22  S   UNL     1      -7.884  -3.205   5.391  0.00  0.00    -0.035 S 
BRANCH  21  23
ATOM     23  N   UNL     1      -6.140  -2.137   7.085  0.00  0.00    -0.352 N 
ATOM     24  H   UNL     1      -5.296  -1.720   7.320  0.00  0.00    +0.143 HD
ATOM     25  H   UNL     1      -6.801  -2.315   7.773  0.00  0.00    +0.143 HD
ENDBRANCH  21  23
ENDBRANCH   6  21
BRANCH   1  26
ATOM     26  N   UNL     1      -0.628  -0.624   0.875  0.00  0.00    -0.330 N 
BRANCH  26  28
ATOM     27  C   UNL     1       0.681   1.430   1.094  0.00  0.00    +0.024 C 
ATOM     28  C   UNL     1       0.707  -0.098   1.167  0.00  0.00    +0.102 C 
ENDBRANCH  26  28
BRANCH  26  29
ATOM     29  C   UNL     1      -1.006  -0.941  -0.505  0.00  0.00    +0.102 C 
ATOM     30  C   UNL     1      -0.645  -2.396  -0.810  0.00  0.00    +0.024 C 
ENDBRANCH  26  29
ENDBRANCH   1  26
TORSDOF 6
