REMARK  Name = ZINC41668666
REMARK  11 active torsions:
REMARK  status: ('A' for Active; 'I' for Inactive)
REMARK    1  A    between atoms: C_1  and  C_2
REMARK    2  A    between atoms: C_2  and  C_3
REMARK    3  A    between atoms: C_2  and  N_4
REMARK    4  A    between atoms: N_9  and  C_12
REMARK    5  A    between atoms: C_12  and  C_13
REMARK    6  A    between atoms: C_12  and  C_14
REMARK    7  A    between atoms: N_15  and  C_16
REMARK    8  A    between atoms: C_18  and  C_24
REMARK    9  A    between atoms: C_18  and  C_25
REMARK   10  A    between atoms: C_20  and  C_22
REMARK   11  A    between atoms: C_20  and  C_23
REMARK                            x       y       z     vdW  Elec       q    Type
REMARK                         _______ _______ _______ _____ _____    ______ ____
ROOT
ATOM      1  N   UNL     1       1.031  -0.288  -1.156  0.00  0.00    -0.254 N 
ATOM      2  C   UNL     1       0.530  -0.012  -2.378  0.00  0.00    +0.297 A 
ATOM      3  O   UNL     1      -0.512   0.607  -2.492  0.00  0.00    -0.264 OA
ATOM      4  C   UNL     1       1.262  -0.468  -3.571  0.00  0.00    +0.205 A 
ATOM      5  N   UNL     1       2.379  -1.129  -3.414  0.00  0.00    -0.146 NA
ATOM      6  N   UNL     1       2.857  -1.391  -2.124  0.00  0.00    -0.210 N 
ATOM      7  C   UNL     1       2.187  -0.968  -1.038  0.00  0.00    +0.349 A 
ATOM      8  O   UNL     1       2.630  -1.206   0.069  0.00  0.00    -0.245 OA
ATOM      9  N   UNL     1       0.772  -0.199  -4.849  0.00  0.00    -0.321 N 
ATOM     10  H   UNL     1      -0.057   0.293  -4.957  0.00  0.00    +0.148 HD
ENDROOT
BRANCH   9  11
ATOM     11  C   UNL     1       1.512  -0.659  -6.031  0.00  0.00    +0.069 C 
ATOM     12  C   UNL     1       2.559   0.390  -6.409  0.00  0.00    +0.009 C 
ATOM     13  C   UNL     1       3.330  -0.069  -7.646  0.00  0.00    -0.072 C 
ATOM     14  N   UNL     1       2.444  -0.397  -8.753  0.00  0.00    +0.386 N 
ATOM     15  C   UNL     1       1.286  -1.229  -8.468  0.00  0.00    -0.072 C 
ATOM     16  C   UNL     1       0.543  -0.813  -7.203  0.00  0.00    +0.009 C 
ATOM     17  C   UNL     1       1.660  -2.712  -8.391  0.00  0.00    -0.010 C 
ATOM     18  C   UNL     1       0.301  -1.074  -9.651  0.00  0.00    -0.010 C 
ATOM     19  C   UNL     1       4.259  -1.228  -7.289  0.00  0.00    -0.010 C 
ATOM     20  C   UNL     1       4.221   1.112  -8.095  0.00  0.00    -0.010 C 
ATOM     21  H   UNL     1       2.117   0.477  -9.172  0.00  0.00    -0.084 HD
ATOM     22  H   UNL     1       2.997  -0.853  -9.483  0.00  0.00    -0.084 HD
ENDBRANCH   9  11
BRANCH   1  24
ATOM     23  C   UNL     1       0.192   1.681   0.027  0.00  0.00    +0.031 C 
ATOM     24  C   UNL     1       0.318   0.157   0.044  0.00  0.00    +0.089 C 
ATOM     25  C   UNL     1      -1.077  -0.470   0.071  0.00  0.00    +0.031 C 
ENDBRANCH   1  24
BRANCH   6  26
ATOM     26  C   UNL     1       4.109  -2.133  -1.955  0.00  0.00    +0.106 C 
ATOM     27  C   UNL     1       3.972  -3.517  -2.594  0.00  0.00    +0.032 C 
ATOM     28  C   UNL     1       5.250  -1.370  -2.631  0.00  0.00    +0.032 C 
ENDBRANCH   6  26
TORSDOF 3
