REMARK  Name = ZINC52860099
REMARK  5 active torsions:
REMARK  status: ('A' for Active; 'I' for Inactive)
REMARK    1  A    between atoms: C_1  and  N_2
REMARK    2  A    between atoms: N_2  and  C_3
REMARK    3  A    between atoms: N_2  and  C_11
REMARK    4  A    between atoms: C_3  and  C_4
REMARK    5  A    between atoms: C_16  and  C_17
REMARK                            x       y       z     vdW  Elec       q    Type
REMARK                         _______ _______ _______ _____ _____    ______ ____
ROOT
ATOM      1  C   UNL     1      -0.108  -0.848  -1.084  0.00  0.00    +0.040 A 
ATOM      2  C   UNL     1       1.048  -1.269  -1.730  0.00  0.00    +0.025 A 
ATOM      3  C   UNL     1       0.973  -1.820  -2.993  0.00  0.00    +0.022 A 
ATOM      4  C   UNL     1      -0.254  -1.957  -3.626  0.00  0.00    +0.042 A 
ATOM      5  C   UNL     1      -1.411  -1.545  -3.000  0.00  0.00    +0.033 A 
ATOM      6  C   UNL     1      -1.350  -0.991  -1.719  0.00  0.00    +0.034 A 
ATOM      7 CL   UNL     1      -0.332  -2.651  -5.215  0.00  0.00    -0.084 Cl
ENDROOT
BRANCH   6   8
ATOM      8  C   UNL     1      -2.585  -0.553  -1.040  0.00  0.00    +0.096 C 
ATOM      9  N   UNL     1      -2.705   0.707  -0.621  0.00  0.00    -0.387 N 
ATOM     10  N   UNL     1      -3.582  -1.417  -0.847  0.00  0.00    -0.345 N 
ATOM     11  H   UNL     1      -3.475   0.971  -0.094  0.00  0.00    +0.157 HD
ATOM     12  H   UNL     1      -3.495  -2.334  -1.152  0.00  0.00    +0.144 HD
ATOM     13  H   UNL     1      -4.394  -1.130  -0.401  0.00  0.00    +0.144 HD
ATOM     14  H   UNL     1      -2.021   1.358  -0.842  0.00  0.00    +0.157 HD
ENDBRANCH   6   8
BRANCH   1  16
ATOM     15  C   UNL     1       0.015   1.161   0.352  0.00  0.00    +0.129 C 
ATOM     16  N   UNL     1      -0.034  -0.294   0.189  0.00  0.00    -0.328 N 
BRANCH  16  17
ATOM     17  C   UNL     1      -0.005  -1.164   1.367  0.00  0.00    +0.140 C 
BRANCH  17  18
ATOM     18  C   UNL     1      -1.415  -1.516   1.766  0.00  0.00    -0.029 A 
ATOM     19  C   UNL     1      -2.102  -0.712   2.657  0.00  0.00    +0.005 A 
ATOM     20  C   UNL     1      -3.395  -1.035   3.024  0.00  0.00    +0.001 A 
ATOM     21  C   UNL     1      -4.002  -2.161   2.500  0.00  0.00    +0.015 A 
ATOM     22  C   UNL     1      -3.315  -2.965   1.608  0.00  0.00    +0.018 A 
ATOM     23  C   UNL     1      -2.023  -2.639   1.238  0.00  0.00    +0.020 A 
ATOM     24 BR   UNL     1      -4.144  -4.506   0.892  0.00  0.00    -0.050 Br
ENDBRANCH  17  18
ENDBRANCH  16  17
ENDBRANCH   1  16
TORSDOF 4
