REMARK  Name = ZINC08893209
REMARK  8 active torsions:
REMARK  status: ('A' for Active; 'I' for Inactive)
REMARK    1  A    between atoms: C_1  and  S_2
REMARK    2  A    between atoms: S_2  and  C_3
REMARK    3  A    between atoms: C_8  and  N_9
REMARK    4  A    between atoms: C_10  and  C_12
REMARK    5  A    between atoms: N_14  and  C_15
REMARK    6  A    between atoms: C_15  and  C_16
REMARK    7  A    between atoms: C_16  and  C_18
REMARK    8  A    between atoms: C_16  and  N_55
REMARK                            x       y       z     vdW  Elec       q    Type
REMARK                         _______ _______ _______ _____ _____    ______ ____
ROOT
ATOM      1  C   UNL     1       6.407   1.131   2.439  0.00  0.00    +0.299 C 
ATOM      2  O   UNL     1       5.827   1.331   3.487  0.00  0.00    -0.265 OA
ATOM      3  N   UNL     1       5.703   0.886   1.316  0.00  0.00    -0.309 N 
ATOM      4  H   UNL     1       6.167   0.727   0.479  0.00  0.00    +0.149 HD
ENDROOT
BRANCH   1   6
ATOM      5  N   UNL     1       8.602   1.400   3.519  0.00  0.00    -0.277 N 
ATOM      6  C   UNL     1       7.899   1.156   2.396  0.00  0.00    +0.303 C 
ATOM      7  O   UNL     1       8.479   0.956   1.348  0.00  0.00    -0.265 OA
ATOM      8  H   UNL     1       8.143   1.497   4.368  0.00  0.00    +0.155 HD
BRANCH   5  14
ATOM      9  C   UNL     1      10.777   1.099   4.540  0.00  0.00    +0.029 A 
ATOM     10  C   UNL     1      12.159   1.216   4.475  0.00  0.00    +0.016 A 
ATOM     11  C   UNL     1      12.755   1.742   3.345  0.00  0.00    +0.001 A 
ATOM     12  C   UNL     1      11.980   2.154   2.276  0.00  0.00    +0.002 A 
ATOM     13  C   UNL     1      10.604   2.036   2.329  0.00  0.00    +0.024 A 
ATOM     14  C   UNL     1       9.995   1.515   3.461  0.00  0.00    +0.047 A 
BRANCH   9  16
ATOM     15  C   UNL     1      11.406   0.044   7.077  0.00  0.00    +0.090 C 
ATOM     16  S   UNL     1      10.013   0.428   5.979  0.00  0.00    -0.127 S 
ENDBRANCH   9  16
ENDBRANCH   5  14
ENDBRANCH   1   6
BRANCH   3  17
ATOM     17  C   UNL     1       4.239   0.862   1.359  0.00  0.00    +0.094 C 
BRANCH  17  18
ATOM     18  C   UNL     1       3.689   0.723  -0.062  0.00  0.00    -0.020 C 
BRANCH  18  25
ATOM     19  C   UNL     1       3.126   2.407  -1.720  0.00  0.00    -0.078 C 
ATOM     20  C   UNL     1       3.646   3.339  -2.781  0.00  0.00    -0.019 C 
ATOM     21  C   UNL     1       3.828   2.540  -4.088  0.00  0.00    -0.002 C 
ATOM     22  C   UNL     1       5.048   1.740  -4.080  0.00  0.00    -0.002 C 
ATOM     23  C   UNL     1       5.051   0.694  -2.945  0.00  0.00    -0.019 C 
ATOM     24  C   UNL     1       5.398   1.388  -1.657  0.00  0.00    -0.078 C 
ATOM     25  N   UNL     1       4.216   1.848  -0.851  0.00  0.00    +0.385 N 
ATOM     26  H   UNL     1       4.529   2.585  -0.209  0.00  0.00    -0.081 HD
ENDBRANCH  18  25
BRANCH  18  27
ATOM     27  C   UNL     1       2.184   0.783  -0.026  0.00  0.00    -0.052 A 
ATOM     28  C   UNL     1       1.429  -0.304  -0.423  0.00  0.00    +0.009 A 
ATOM     29  C   UNL     1       0.077  -0.217  -0.380  0.00  0.00    +0.045 A 
ATOM     30  S   UNL     1      -0.166   1.440   0.238  0.00  0.00    -0.105 S 
ATOM     31  C   UNL     1       1.550   1.904   0.396  0.00  0.00    +0.047 A 
ENDBRANCH  18  27
ENDBRANCH  17  18
ENDBRANCH   3  17
TORSDOF 7
