REMARK  Name = ZINC63139388
REMARK  9 active torsions:
REMARK  status: ('A' for Active; 'I' for Inactive)
REMARK    1  A    between atoms: C_1  and  O_2
REMARK    2  A    between atoms: O_2  and  C_3
REMARK    3  A    between atoms: C_5  and  C_13
REMARK    4  A    between atoms: C_7  and  O_11
REMARK    5  A    between atoms: C_8  and  O_9
REMARK    6  A    between atoms: O_9  and  C_10
REMARK    7  A    between atoms: O_11  and  C_12
REMARK    8  A    between atoms: N_32  and  C_35
REMARK    9  A    between atoms: C_35  and  C_36
REMARK                            x       y       z     vdW  Elec       q    Type
REMARK                         _______ _______ _______ _____ _____    ______ ____
ROOT
ATOM      1  C   UNL     1      -4.871   0.264   0.038  0.00  0.00    +0.134 C 
ATOM      2  C   UNL     1      -5.510   0.207   1.429  0.00  0.00    +0.131 C 
ATOM      3  C   UNL     1      -6.905   0.803   1.295  0.00  0.00    -0.034 C 
ATOM      4  C   UNL     1      -6.978   1.790   2.180  0.00  0.00    -0.001 A 
ATOM      5  C   UNL     1      -8.086   2.679   2.566  0.00  0.00    +0.010 A 
ATOM      6  C   UNL     1      -7.805   3.608   3.519  0.00  0.00    +0.001 A 
ATOM      7  C   UNL     1      -6.548   3.739   4.118  0.00  0.00    +0.002 A 
ATOM      8  C   UNL     1      -5.475   2.961   3.827  0.00  0.00    +0.026 A 
ATOM      9  C   UNL     1      -5.648   1.944   2.844  0.00  0.00    +0.043 A 
ATOM     10  N   UNL     1      -4.794   1.044   2.394  0.00  0.00    -0.375 N 
ATOM     11  C   UNL     1      -7.892   0.325   0.258  0.00  0.00    +0.065 C 
ATOM     12  C   UNL     1      -7.144   0.317  -1.089  0.00  0.00    +0.167 C 
ATOM     13  N   UNL     1      -5.837  -0.310  -0.925  0.00  0.00    -0.279 N 
ATOM     14  C   UNL     1      -5.466  -1.397  -1.613  0.00  0.00    +0.234 C 
ATOM     15  O   UNL     1      -4.366  -1.857  -1.389  0.00  0.00    -0.274 OA
ATOM     16  C   UNL     1      -6.310  -2.083  -2.635  0.00  0.00    +0.204 C 
ATOM     17  N   UNL     1      -7.596  -1.431  -2.814  0.00  0.00    -0.287 N 
ATOM     18  C   UNL     1      -7.981  -0.358  -2.124  0.00  0.00    +0.237 C 
ATOM     19  O   UNL     1      -9.079   0.102  -2.356  0.00  0.00    -0.274 OA
ATOM     20  H   UNL     1      -3.862   0.948   2.646  0.00  0.00    +0.160 HD
ENDROOT
BRANCH   1  23
ATOM     21  C   UNL     1      -1.370  -0.894  -0.790  0.00  0.00    +0.165 A 
ATOM     22  C   UNL     1      -2.544  -0.155  -0.778  0.00  0.00    +0.055 A 
ATOM     23  C   UNL     1      -3.598  -0.543   0.028  0.00  0.00    -0.018 A 
ATOM     24  C   UNL     1      -3.488  -1.668   0.824  0.00  0.00    +0.055 A 
ATOM     25  C   UNL     1      -2.318  -2.412   0.817  0.00  0.00    +0.165 A 
ATOM     26  C   UNL     1      -1.258  -2.029   0.004  0.00  0.00    +0.204 A 
BRANCH  21  28
ATOM     27  C   UNL     1      -0.519   0.664  -2.372  0.00  0.00    +0.277 C 
ATOM     28  O   UNL     1      -0.333  -0.512  -1.583  0.00  0.00    -0.491 OA
ENDBRANCH  21  28
BRANCH  26  29
ATOM     29  O   UNL     1      -0.110  -2.761  -0.009  0.00  0.00    -0.488 OA
ATOM     30  C   UNL     1       0.901  -2.399   0.934  0.00  0.00    +0.277 C 
ENDBRANCH  26  29
BRANCH  25  31
ATOM     31  O   UNL     1      -2.211  -3.518   1.601  0.00  0.00    -0.491 OA
ATOM     32  C   UNL     1      -3.342  -3.856   2.406  0.00  0.00    +0.277 C 
ENDBRANCH  25  31
ENDBRANCH   1  23
BRANCH  17  33
ATOM     33  C   UNL     1      -8.522  -1.986  -3.804  0.00  0.00    +0.143 C 
BRANCH  33  34
ATOM     34  C   UNL     1      -9.404  -3.016  -3.145  0.00  0.00    -0.030 A 
ATOM     35  C   UNL     1      -9.008  -4.340  -3.106  0.00  0.00    +0.005 A 
ATOM     36  C   UNL     1      -9.817  -5.285  -2.501  0.00  0.00    +0.000 A 
ATOM     37  C   UNL     1     -11.020  -4.906  -1.937  0.00  0.00    +0.000 A 
ATOM     38  C   UNL     1     -11.415  -3.582  -1.976  0.00  0.00    +0.000 A 
ATOM     39  C   UNL     1     -10.604  -2.636  -2.576  0.00  0.00    +0.005 A 
ENDBRANCH  33  34
ENDBRANCH  17  33
TORSDOF 6
