REMARK  Name = ZINC47910689
REMARK  4 active torsions:
REMARK  status: ('A' for Active; 'I' for Inactive)
REMARK    1  A    between atoms: C_6  and  N_7
REMARK    2  A    between atoms: C_8  and  C_10
REMARK    3  A    between atoms: C_13  and  S_15
REMARK    4  A    between atoms: S_15  and  N_18
REMARK                            x       y       z     vdW  Elec       q    Type
REMARK                         _______ _______ _______ _____ _____    ______ ____
ROOT
ATOM      1  N   UNL     1      -1.198  -0.722   0.010  0.00  0.00    -0.279 N 
ATOM      2  C   UNL     1      -1.292  -1.885  -0.664  0.00  0.00    +0.284 C 
ATOM      3  O   UNL     1      -0.309  -2.356  -1.205  0.00  0.00    -0.266 OA
ATOM      4  H   UNL     1      -1.964  -0.380   0.497  0.00  0.00    +0.155 HD
ENDROOT
BRANCH   1  10
ATOM      5  C   UNL     1      -0.010   1.381   0.013  0.00  0.00    +0.023 A 
ATOM      6  C   UNL     1       1.180   2.080   0.012  0.00  0.00    +0.006 A 
ATOM      7  C   UNL     1       2.389   1.403   0.006  0.00  0.00    -0.044 A 
ATOM      8  C   UNL     1       2.406   0.020   0.001  0.00  0.00    -0.042 A 
ATOM      9  C   UNL     1       1.216  -0.685   0.003  0.00  0.00    +0.027 A 
ATOM     10  C   UNL     1       0.004  -0.008   0.009  0.00  0.00    +0.034 A 
ATOM     11  C   UNL     1       3.837  -0.473  -0.007  0.00  0.00    +0.036 C 
ATOM     12  C   UNL     1       4.681   0.742  -0.446  0.00  0.00    +0.009 C 
ATOM     13  C   UNL     1       3.807   1.932   0.002  0.00  0.00    +0.036 C 
ENDBRANCH   1  10
BRANCH   2  14
ATOM     14  C   UNL     1      -2.579  -2.582  -0.747  0.00  0.00    +0.192 A 
ATOM     15  C   UNL     1      -2.812  -3.764  -1.391  0.00  0.00    +0.057 A 
ATOM     16  C   UNL     1      -4.173  -4.058  -1.215  0.00  0.00    +0.072 A 
ATOM     17  C   UNL     1      -4.705  -3.056  -0.481  0.00  0.00    +0.258 A 
ATOM     18  O   UNL     1      -3.740  -2.171  -0.196  0.00  0.00    -0.432 OA
BRANCH  17  19
ATOM     19  S   UNL     1      -6.388  -2.936   0.024  0.00  0.00    +0.089 S 
ATOM     20  O   UNL     1      -6.646  -1.558   0.255  0.00  0.00    -0.150 OA
ATOM     21  O   UNL     1      -7.145  -3.709  -0.898  0.00  0.00    -0.150 OA
BRANCH  19  22
ATOM     22  N   UNL     1      -6.515  -3.693   1.492  0.00  0.00    -0.201 NA
ATOM     23  H   UNL     1      -7.178  -3.398   2.134  0.00  0.00    +0.144 HD
ATOM     24  H   UNL     1      -5.925  -4.433   1.708  0.00  0.00    +0.144 HD
ENDBRANCH  19  22
ENDBRANCH  17  19
ENDBRANCH   2  14
TORSDOF 4
