REMARK  Name = ZINC61227957
REMARK  9 active torsions:
REMARK  status: ('A' for Active; 'I' for Inactive)
REMARK    1  A    between atoms: C_1  and  C_2
REMARK    2  A    between atoms: C_2  and  C_3
REMARK    3  A    between atoms: C_2  and  N_13
REMARK    4  A    between atoms: C_7  and  S_9
REMARK    5  A    between atoms: S_9  and  N_12
REMARK    6  A    between atoms: C_14  and  C_16
REMARK    7  A    between atoms: C_17  and  C_18
REMARK    8  A    between atoms: C_21  and  S_24
REMARK    9  A    between atoms: S_24  and  C_25
REMARK                            x       y       z     vdW  Elec       q    Type
REMARK                         _______ _______ _______ _____ _____    ______ ____
ROOT
ATOM      1  C   UNL     1      -0.019   1.526   0.010  0.00  0.00    +0.033 C 
ATOM      2  C   UNL     1       0.002  -0.004   0.002  0.00  0.00    +0.100 C 
ENDROOT
BRANCH   2   3
ATOM      3  C   UNL     1       0.707  -0.490  -1.238  0.00  0.00    -0.026 A 
ATOM      4  C   UNL     1       2.089  -0.511  -1.284  0.00  0.00    +0.005 A 
ATOM      5  C   UNL     1       2.736  -0.957  -2.421  0.00  0.00    +0.002 A 
ATOM      6  C   UNL     1       2.002  -1.382  -3.512  0.00  0.00    +0.028 A 
ATOM      7  C   UNL     1       0.620  -1.362  -3.466  0.00  0.00    +0.105 A 
ATOM      8  C   UNL     1      -0.027  -0.920  -2.327  0.00  0.00    +0.034 A 
BRANCH   7   9
ATOM      9  S   UNL     1      -0.316  -1.904  -4.857  0.00  0.00    +0.056 S 
ATOM     10  O   UNL     1      -1.586  -1.274  -4.762  0.00  0.00    -0.153 OA
ATOM     11  O   UNL     1       0.524  -1.758  -5.994  0.00  0.00    -0.153 OA
BRANCH   9  12
ATOM     12  N   UNL     1      -0.578  -3.528  -4.668  0.00  0.00    -0.204 NA
ATOM     13  H   UNL     1      -1.379  -3.936  -5.032  0.00  0.00    +0.144 HD
ATOM     14  H   UNL     1       0.070  -4.072  -4.194  0.00  0.00    +0.144 HD
ENDBRANCH   9  12
ENDBRANCH   7   9
ENDBRANCH   2   3
BRANCH   2  15
ATOM     15  N   UNL     1       0.711  -0.489   1.189  0.00  0.00    -0.305 N 
ATOM     16  C   UNL     1       0.051  -0.633   2.355  0.00  0.00    +0.237 C 
ATOM     17  O   UNL     1      -1.133  -0.360   2.423  0.00  0.00    -0.271 OA
ATOM     18  H   UNL     1       1.654  -0.707   1.135  0.00  0.00    +0.150 HD
BRANCH  16  19
ATOM     19  C   UNL     1       0.758  -1.118   3.540  0.00  0.00    +0.068 C 
ATOM     20  C   UNL     1       0.097  -1.262   4.709  0.00  0.00    +0.013 C 
BRANCH  20  21
ATOM     21  C   UNL     1       0.807  -1.749   5.899  0.00  0.00    -0.025 A 
ATOM     22  C   UNL     1       2.172  -2.058   5.825  0.00  0.00    +0.009 A 
ATOM     23  C   UNL     1       2.829  -2.510   6.934  0.00  0.00    +0.015 A 
ATOM     24  C   UNL     1       2.144  -2.663   8.137  0.00  0.00    +0.008 A 
ATOM     25  C   UNL     1       0.787  -2.357   8.215  0.00  0.00    +0.015 A 
ATOM     26  C   UNL     1       0.124  -1.899   7.112  0.00  0.00    +0.009 A 
BRANCH  24  27
ATOM     27  S   UNL     1       2.996  -3.248   9.564  0.00  0.00    -0.129 S 
ATOM     28  C   UNL     1       1.720  -3.281  10.854  0.00  0.00    +0.090 C 
ENDBRANCH  24  27
ENDBRANCH  20  21
ENDBRANCH  16  19
ENDBRANCH   2  15
TORSDOF 7
