REMARK  Name = ZINC45551475
REMARK  12 active torsions:
REMARK  status: ('A' for Active; 'I' for Inactive)
REMARK    1  A    between atoms: C_1  and  C_2
REMARK    2  A    between atoms: C_2  and  C_3
REMARK    3  A    between atoms: C_2  and  N_4
REMARK    4  A    between atoms: N_4  and  C_5
REMARK    5  A    between atoms: C_5  and  C_6
REMARK    6  A    between atoms: C_5  and  C_7
REMARK    7  A    between atoms: C_5  and  C_19
REMARK    8  A    between atoms: C_7  and  C_8
REMARK    9  A    between atoms: C_8  and  C_9
REMARK   10  A    between atoms: C_9  and  C_10
REMARK   11  A    between atoms: C_10  and  S_11
REMARK   12  A    between atoms: S_11  and  C_12
REMARK                            x       y       z     vdW  Elec       q    Type
REMARK                         _______ _______ _______ _____ _____    ______ ____
ROOT
ATOM      1  C   UNL     1      -2.116  -0.233  -1.101  0.00  0.00    +0.007 C 
ATOM      2  C   UNL     1      -1.516  -1.022  -2.266  0.00  0.00    -0.001 C 
ENDROOT
BRANCH   1   3
ATOM      3  C   UNL     1      -2.049   1.241  -1.405  0.00  0.00    +0.199 C 
ATOM      4  O   UNL     1      -1.907   1.619  -2.549  0.00  0.00    -0.278 OA
ATOM      5  N   UNL     1      -2.146   2.141  -0.406  0.00  0.00    -0.330 N 
ATOM      6  H   UNL     1      -2.260   1.839   0.509  0.00  0.00    +0.145 HD
ATOM      7  H   UNL     1      -2.103   3.090  -0.601  0.00  0.00    +0.145 HD
ENDBRANCH   1   3
BRANCH   1   8
ATOM      8  N   UNL     1      -1.356  -0.515   0.124  0.00  0.00    +0.390 N 
ATOM      9  H   UNL     1      -1.502  -1.476   0.396  0.00  0.00    -0.084 HD
ATOM     10  H   UNL     1      -1.672   0.095   0.864  0.00  0.00    -0.084 HD
BRANCH   8  12
ATOM     11  C   UNL     1       0.320   1.205  -0.350  0.00  0.00    -0.014 C 
ATOM     12  C   UNL     1       0.074  -0.288  -0.122  0.00  0.00    -0.077 C 
ATOM     13  C   UNL     1       0.882  -0.759   1.088  0.00  0.00    -0.014 C 
ENDBRANCH   8  12
ENDBRANCH   1   8
BRANCH   1  14
ATOM     14  C   UNL     1      -3.575  -0.647  -0.903  0.00  0.00    -0.004 C 
BRANCH  14  15
ATOM     15  C   UNL     1      -4.367  -0.353  -2.179  0.00  0.00    -0.000 C 
BRANCH  15  16
ATOM     16  C   UNL     1      -5.826  -0.766  -1.981  0.00  0.00    +0.011 C 
BRANCH  16  17
ATOM     17  C   UNL     1      -6.617  -0.472  -3.257  0.00  0.00    +0.074 C 
BRANCH  17  18
ATOM     18  S   UNL     1      -8.348  -0.963  -3.023  0.00  0.00    -0.125 S 
BRANCH  18  19
ATOM     19  C   UNL     1      -9.115  -0.566  -4.558  0.00  0.00    +0.008 A 
ATOM     20  C   UNL     1      -8.366  -0.012  -5.589  0.00  0.00    +0.016 A 
ATOM     21  C   UNL     1      -8.970   0.298  -6.791  0.00  0.00    +0.016 A 
ATOM     22  C   UNL     1     -10.321   0.056  -6.971  0.00  0.00    +0.018 A 
ATOM     23  C   UNL     1     -11.070  -0.495  -5.947  0.00  0.00    +0.016 A 
ATOM     24  C   UNL     1     -10.470  -0.812  -4.744  0.00  0.00    +0.016 A 
ATOM     25 BR   UNL     1     -11.144   0.482  -8.619  0.00  0.00    -0.050 Br
ENDBRANCH  18  19
ENDBRANCH  17  18
ENDBRANCH  16  17
ENDBRANCH  15  16
ENDBRANCH  14  15
ENDBRANCH   1  14
TORSDOF 9
