REMARK  Name = ZINC37930421
REMARK  7 active torsions:
REMARK  status: ('A' for Active; 'I' for Inactive)
REMARK    1  A    between atoms: C_3  and  N_11
REMARK    2  A    between atoms: C_4  and  C_8
REMARK    3  A    between atoms: C_6  and  N_7
REMARK    4  A    between atoms: N_11  and  C_12
REMARK    5  A    between atoms: N_11  and  C_15
REMARK    6  A    between atoms: C_12  and  C_13
REMARK    7  A    between atoms: C_15  and  C_16
REMARK                            x       y       z     vdW  Elec       q    Type
REMARK                         _______ _______ _______ _____ _____    ______ ____
ROOT
ATOM      1  C   UNL     1      -0.017   1.388   0.010  0.00  0.00    +0.024 A 
ATOM      2  C   UNL     1       1.163   2.102   0.002  0.00  0.00    +0.026 A 
ATOM      3  C   UNL     1       2.382   1.435  -0.013  0.00  0.00    +0.046 A 
ATOM      4  C   UNL     1       2.409   0.031  -0.021  0.00  0.00    +0.086 A 
ATOM      5  C   UNL     1       1.206  -0.684  -0.013  0.00  0.00    +0.039 A 
ATOM      6  C   UNL     1       0.002  -0.004   0.002  0.00  0.00    +0.025 A 
ENDROOT
BRANCH   6   7
ATOM      7  N   UNL     1      -1.202  -0.718   0.010  0.00  0.00    -0.358 N 
ATOM      8  H   UNL     1      -2.048  -0.243   0.020  0.00  0.00    +0.142 HD
ATOM      9  H   UNL     1      -1.191  -1.688   0.004  0.00  0.00    +0.142 HD
ENDBRANCH   6   7
BRANCH   4  10
ATOM     10  C   UNL     1       3.694  -0.684  -0.037  0.00  0.00    +0.388 C 
ATOM     11  O   UNL     1       3.713  -1.907  -0.044  0.00  0.00    -0.241 OA
ATOM     12  O   UNL     1       4.744  -0.055  -0.044  0.00  0.00    -0.241 OA
ENDBRANCH   4  10
BRANCH   3  13
ATOM     13  N   UNL     1       3.571   2.156  -0.021  0.00  0.00    -0.303 N 
BRANCH  13  14
ATOM     14  C   UNL     1       4.209   2.529   1.244  0.00  0.00    +0.225 C 
BRANCH  14  15
ATOM     15  C   UNL     1       5.143   1.467   1.654  0.00  0.00    +0.082 C 
ATOM     16  N   UNL     1       5.863   0.648   1.971  0.00  0.00    -0.195 NA
ENDBRANCH  14  15
ENDBRANCH  13  14
BRANCH  13  17
ATOM     17  C   UNL     1       4.185   2.542  -1.294  0.00  0.00    +0.225 C 
BRANCH  17  18
ATOM     18  C   UNL     1       3.671   3.858  -1.707  0.00  0.00    +0.082 C 
ATOM     19  N   UNL     1       3.275   4.874  -2.026  0.00  0.00    -0.195 NA
ENDBRANCH  17  18
ENDBRANCH  13  17
ENDBRANCH   3  13
TORSDOF 7
