REMARK  Name = ZINC39919340
REMARK  4 active torsions:
REMARK  status: ('A' for Active; 'I' for Inactive)
REMARK    1  A    between atoms: C_10  and  C_21
REMARK    2  A    between atoms: C_12  and  C_19
REMARK    3  A    between atoms: C_13  and  N_18
REMARK    4  A    between atoms: C_24  and  O_27
REMARK                            x       y       z     vdW  Elec       q    Type
REMARK                         _______ _______ _______ _____ _____    ______ ____
ROOT
ATOM      1  C   UNL     1      -0.016   1.357   0.009  0.00  0.00    +0.001 A 
ATOM      2  C   UNL     1       1.162   2.096   0.002  0.00  0.00    +0.002 A 
ATOM      3  C   UNL     1       2.386   1.497  -0.016  0.00  0.00    +0.024 A 
ATOM      4  C   UNL     1       2.481   0.095  -0.026  0.00  0.00    +0.044 A 
ATOM      5  N   UNL     1       3.683  -0.493  -0.056  0.00  0.00    -0.284 N 
ATOM      6  C   UNL     1       3.863  -1.799  -0.048  0.00  0.00    +0.229 C 
ATOM      7  O   UNL     1       4.990  -2.259  -0.081  0.00  0.00    -0.275 OA
ATOM      8  C   UNL     1       2.668  -2.725   0.002  0.00  0.00    +0.154 C 
ATOM      9  C   UNL     1       2.713  -3.594  -1.260  0.00  0.00    +0.084 C 
ATOM     10  C   UNL     1       1.418  -4.345  -1.406  0.00  0.00    +0.095 C 
ATOM     11  C   UNL     1       0.271  -3.950  -0.811  0.00  0.00    +0.198 C 
ATOM     12  O   UNL     1       0.216  -2.852  -0.022  0.00  0.00    -0.444 OA
ATOM     13  C   UNL     1       1.298  -2.069   0.015  0.00  0.00    +0.129 C 
ATOM     14  C   UNL     1       1.237  -0.684  -0.011  0.00  0.00    +0.035 A 
ATOM     15  C   UNL     1       0.002  -0.004   0.002  0.00  0.00    +0.013 A 
ATOM     16  H   UNL     1       4.469   0.075  -0.086  0.00  0.00    +0.155 HD
ENDROOT
BRANCH   9  17
ATOM     17  C   UNL     1       2.920  -2.715  -2.466  0.00  0.00    -0.038 A 
ATOM     18  C   UNL     1       2.001  -1.726  -2.766  0.00  0.00    +0.008 A 
ATOM     19  C   UNL     1       2.189  -0.919  -3.872  0.00  0.00    +0.045 A 
ATOM     20  C   UNL     1       3.300  -1.101  -4.681  0.00  0.00    +0.117 A 
ATOM     21  C   UNL     1       4.222  -2.093  -4.378  0.00  0.00    +0.045 A 
ATOM     22  C   UNL     1       4.032  -2.894  -3.268  0.00  0.00    +0.008 A 
BRANCH  20  23
ATOM     23  O   UNL     1       3.487  -0.309  -5.770  0.00  0.00    -0.507 OA
ATOM     24  H   UNL     1       3.995   0.493  -5.590  0.00  0.00    +0.292 HD
ENDBRANCH  20  23
ENDBRANCH   9  17
BRANCH  11  25
ATOM     25  N   UNL     1      -0.871  -4.684  -1.014  0.00  0.00    -0.328 N 
ATOM     26  H   UNL     1      -0.848  -5.473  -1.577  0.00  0.00    +0.145 HD
ATOM     27  H   UNL     1      -1.703  -4.413  -0.594  0.00  0.00    +0.145 HD
ENDBRANCH  11  25
BRANCH  10  28
ATOM     28  C   UNL     1       1.401  -5.529  -2.211  0.00  0.00    +0.100 C 
ATOM     29  N   UNL     1       1.386  -6.468  -2.850  0.00  0.00    -0.191 NA
ENDBRANCH  10  28
TORSDOF 4
