REMARK  Name = ZINC42955702
REMARK  11 active torsions:
REMARK  status: ('A' for Active; 'I' for Inactive)
REMARK    1  A    between atoms: C_1  and  C_2
REMARK    2  A    between atoms: C_2  and  C_3
REMARK    3  A    between atoms: C_3  and  N_4
REMARK    4  A    between atoms: N_4  and  C_5
REMARK    5  A    between atoms: N_4  and  C_10
REMARK    6  A    between atoms: C_5  and  C_6
REMARK    7  A    between atoms: C_10  and  C_12
REMARK    8  A    between atoms: C_10  and  C_19
REMARK    9  A    between atoms: C_19  and  C_21
REMARK   10  A    between atoms: C_19  and  N_23
REMARK   11  A    between atoms: C_21  and  C_22
REMARK                            x       y       z     vdW  Elec       q    Type
REMARK                         _______ _______ _______ _____ _____    ______ ____
ROOT
ATOM      1  C   UNL     1       1.687  -2.704  -2.635  0.00  0.00    +0.073 C 
ENDROOT
BRANCH   1   2
ATOM      2  C   UNL     1       1.633  -4.151  -2.220  0.00  0.00    -0.032 A 
ATOM      3  C   UNL     1       0.493  -4.657  -1.623  0.00  0.00    +0.006 A 
ATOM      4  C   UNL     1       0.443  -5.984  -1.242  0.00  0.00    +0.015 A 
ATOM      5  C   UNL     1       1.534  -6.807  -1.458  0.00  0.00    +0.018 A 
ATOM      6  C   UNL     1       2.674  -6.301  -2.055  0.00  0.00    +0.015 A 
ATOM      7  C   UNL     1       2.721  -4.974  -2.441  0.00  0.00    +0.006 A 
ATOM      8 BR   UNL     1       1.466  -8.624  -0.936  0.00  0.00    -0.050 Br
ENDBRANCH   1   2
BRANCH   1   9
ATOM      9  N   UNL     1       1.606  -1.849  -1.443  0.00  0.00    -0.289 NA
BRANCH   9  10
ATOM     10  C   UNL     1       0.212  -1.674  -1.014  0.00  0.00    +0.085 C 
BRANCH  10  12
ATOM     11  C   UNL     1      -1.355  -0.232   0.292  0.00  0.00    +0.005 C 
ATOM     12  C   UNL     1       0.097  -0.413  -0.155  0.00  0.00    +0.012 C 
ENDBRANCH  10  12
ENDBRANCH   9  10
BRANCH   9  13
ATOM     13  C   UNL     1       2.429  -2.387  -0.352  0.00  0.00    +0.198 C 
BRANCH  13  14
ATOM     14  C   UNL     1       3.908  -2.152  -0.665  0.00  0.00    +0.402 C 
ATOM     15  F   UNL     1       4.120  -0.792  -0.918  0.00  0.00    -0.169 F 
ATOM     16  F   UNL     1       4.685  -2.550   0.427  0.00  0.00    -0.169 F 
ATOM     17  F   UNL     1       4.271  -2.898  -1.792  0.00  0.00    -0.169 F 
ENDBRANCH  13  14
ENDBRANCH   9  13
ENDBRANCH   1   9
BRANCH   1  18
ATOM     18  C   UNL     1       0.511  -2.396  -3.564  0.00  0.00    -0.053 C 
BRANCH  18  19
ATOM     19  N   UNL     1       0.641  -3.184  -4.797  0.00  0.00    +0.381 N 
ATOM     20  H   UNL     1       0.641  -4.167  -4.569  0.00  0.00    -0.090 HD
ATOM     21  H   UNL     1      -0.134  -2.981  -5.410  0.00  0.00    -0.090 HD
ATOM     22  H   UNL     1       1.506  -2.946  -5.259  0.00  0.00    -0.090 HD
ENDBRANCH  18  19
BRANCH  18  23
ATOM     23  C   UNL     1       0.511  -0.905  -3.910  0.00  0.00    -0.018 C 
ATOM     24  C   UNL     1      -0.656  -0.600  -4.852  0.00  0.00    +0.002 C 
ENDBRANCH  18  23
ENDBRANCH   1  18
TORSDOF 9
