REMARK  Name = ZINC08952007
REMARK  12 active torsions:
REMARK  status: ('A' for Active; 'I' for Inactive)
REMARK    1  A    between atoms: C_1  and  C_2
REMARK    2  A    between atoms: C_3  and  C_37
REMARK    3  A    between atoms: N_6  and  C_30
REMARK    4  A    between atoms: C_7  and  N_80
REMARK    5  A    between atoms: C_9  and  C_10
REMARK    6  A    between atoms: C_9  and  N_80
REMARK    7  A    between atoms: C_10  and  C_29
REMARK    8  A    between atoms: C_14  and  C_28
REMARK    9  A    between atoms: C_23  and  C_25
REMARK   10  A    between atoms: C_25  and  C_26
REMARK   11  A    between atoms: C_25  and  C_27
REMARK   12  A    between atoms: C_30  and  C_31
REMARK                            x       y       z     vdW  Elec       q    Type
REMARK                         _______ _______ _______ _____ _____    ______ ____
ROOT
ATOM      1  C   UNL     1       2.625  -0.054   3.512  0.00  0.00    -0.044 C 
ATOM      2  C   UNL     1       1.964  -1.201   2.745  0.00  0.00    +0.005 C 
ATOM      3  C   UNL     1       2.656  -2.534   2.996  0.00  0.00    +0.001 C 
ATOM      4  C   UNL     1       4.133  -2.444   2.612  0.00  0.00    +0.011 C 
ATOM      5  C   UNL     1       4.819  -1.383   3.468  0.00  0.00    -0.004 C 
ATOM      6  C   UNL     1       4.123  -0.043   3.314  0.00  0.00    +0.004 C 
ATOM      7  C   UNL     1       4.843   1.001   4.165  0.00  0.00    +0.009 C 
ATOM      8  C   UNL     1       6.205   1.276   3.524  0.00  0.00    +0.036 C 
ATOM      9  C   UNL     1       6.882   0.011   3.071  0.00  0.00    -0.043 A 
ATOM     10  C   UNL     1       6.262  -1.219   3.038  0.00  0.00    -0.038 A 
ATOM     11  C   UNL     1       6.956  -2.339   2.612  0.00  0.00    +0.005 A 
ATOM     12  C   UNL     1       8.274  -2.235   2.214  0.00  0.00    +0.004 A 
ATOM     13  C   UNL     1       8.902  -1.004   2.242  0.00  0.00    -0.045 A 
ATOM     14  C   UNL     1       8.210   0.110   2.668  0.00  0.00    +0.007 A 
ATOM     15  C   UNL     1       4.847  -1.861   4.919  0.00  0.00    +0.016 C 
ATOM     16  C   UNL     1       2.224  -0.107   4.986  0.00  0.00    +0.009 C 
ENDROOT
BRANCH  13  17
ATOM     17  C   UNL     1      10.340  -0.879   1.808  0.00  0.00    +0.013 C 
ATOM     18  C   UNL     1      11.219  -1.762   2.697  0.00  0.00    +0.012 C 
ATOM     19  C   UNL     1      10.473  -1.329   0.352  0.00  0.00    +0.012 C 
ENDBRANCH  13  17
BRANCH   1  20
ATOM     20  C   UNL     1       2.049   1.259   2.927  0.00  0.00    -0.073 C 
BRANCH  20  21
ATOM     21  N   UNL     1       0.581   1.249   3.069  0.00  0.00    +0.394 N 
ATOM     22  H   UNL     1       0.197   0.444   2.561  0.00  0.00    -0.083 HD
ATOM     23  H   UNL     1       0.338   1.174   4.064  0.00  0.00    -0.083 HD
BRANCH  21  30
ATOM     24  C   UNL     1      -0.951   3.408   4.867  0.00  0.00    +0.039 C 
ATOM     25  C   UNL     1      -1.096   2.993   3.425  0.00  0.00    -0.062 C 
ATOM     26  C   UNL     1      -2.216   2.998   2.710  0.00  0.00    +0.010 C 
ATOM     27  C   UNL     1      -1.939   2.528   1.349  0.00  0.00    +0.241 C 
ATOM     28  O   UNL     1      -2.766   2.428   0.464  0.00  0.00    -0.270 OA
ATOM     29  N   UNL     1      -0.634   2.220   1.225  0.00  0.00    -0.305 N 
ATOM     30  C   UNL     1       0.005   2.491   2.519  0.00  0.00    +0.046 C 
ATOM     31  C   UNL     1      -3.567   3.429   3.220  0.00  0.00    +0.049 C 
BRANCH  29  32
ATOM     32  C   UNL     1       0.028   1.715   0.019  0.00  0.00    +0.138 C 
BRANCH  32  33
ATOM     33  C   UNL     1      -0.015   0.186   0.017  0.00  0.00    +0.136 C 
ATOM     34  C   UNL     1       0.780  -0.358  -1.190  0.00  0.00    +0.035 C 
ATOM     35  C   UNL     1      -0.099  -1.553  -1.651  0.00  0.00    +0.031 C 
ATOM     36  C   UNL     1      -1.517  -1.016  -1.333  0.00  0.00    +0.160 C 
ATOM     37  O   UNL     1      -1.368  -0.263  -0.118  0.00  0.00    -0.375 OA
ENDBRANCH  32  33
ENDBRANCH  29  32
ENDBRANCH  21  30
ENDBRANCH  20  21
ENDBRANCH   1  20
TORSDOF 6
