REMARK  Name = ZINC02652513
REMARK  11 active torsions:
REMARK  status: ('A' for Active; 'I' for Inactive)
REMARK    1  A    between atoms: C_1  and  N_2
REMARK    2  A    between atoms: C_5  and  C_18
REMARK    3  A    between atoms: C_6  and  N_17
REMARK    4  A    between atoms: N_7  and  C_10
REMARK    5  A    between atoms: C_10  and  C_11
REMARK    6  A    between atoms: C_18  and  C_20
REMARK    7  A    between atoms: C_20  and  N_57
REMARK    8  A    between atoms: C_21  and  N_57
REMARK    9  A    between atoms: C_22  and  C_23
REMARK   10  A    between atoms: C_22  and  N_57
REMARK   11  A    between atoms: N_25  and  C_26
REMARK                            x       y       z     vdW  Elec       q    Type
REMARK                         _______ _______ _______ _____ _____    ______ ____
ROOT
ATOM      1  C   UNL     1       3.270  -0.935  -0.287  0.00  0.00    +0.157 C 
ATOM      2  N   UNL     1       2.045  -0.155  -0.483  0.00  0.00    -0.263 N 
ATOM      3  C   UNL     1       2.132   1.165  -0.747  0.00  0.00    +0.269 A 
ATOM      4  O   UNL     1       3.215   1.713  -0.825  0.00  0.00    -0.267 OA
ATOM      5  C   UNL     1       0.890   1.926  -0.939  0.00  0.00    +0.118 A 
ATOM      6  C   UNL     1      -0.328   1.233  -0.838  0.00  0.00    +0.116 A 
ATOM      7  N   UNL     1      -0.306  -0.106  -0.567  0.00  0.00    -0.277 N 
ATOM      8  C   UNL     1       0.852  -0.764  -0.398  0.00  0.00    +0.333 A 
ATOM      9  O   UNL     1       0.818  -1.956  -0.159  0.00  0.00    -0.246 OA
ENDROOT
BRANCH   6  10
ATOM     10  N   UNL     1      -1.510   1.883  -1.012  0.00  0.00    -0.344 N 
ATOM     11  H   UNL     1      -2.312   1.383  -1.231  0.00  0.00    +0.144 HD
ATOM     12  H   UNL     1      -1.552   2.848  -0.917  0.00  0.00    +0.144 HD
ENDBRANCH   6  10
BRANCH   5  13
ATOM     13  C   UNL     1       0.920   3.309  -1.218  0.00  0.00    +0.155 C 
ATOM     14  O   UNL     1      -0.116   3.940  -1.275  0.00  0.00    -0.294 OA
BRANCH  13  15
ATOM     15  C   UNL     1       2.238   4.004  -1.444  0.00  0.00    +0.003 C 
BRANCH  15  17
ATOM     16  C   UNL     1       1.286   5.612  -2.984  0.00  0.00    -0.095 C 
ATOM     17  N   UNL     1       1.984   5.439  -1.692  0.00  0.00    +0.388 N 
ATOM     18  H   UNL     1       1.391   5.807  -0.940  0.00  0.00    -0.081 HD
BRANCH  17  19
ATOM     19  C   UNL     1       3.261   6.183  -1.705  0.00  0.00    +0.019 C 
BRANCH  19  20
ATOM     20  C   UNL     1       2.963   7.660  -1.738  0.00  0.00    +0.201 C 
ATOM     21  O   UNL     1       1.814   8.046  -1.766  0.00  0.00    -0.278 OA
ATOM     22  N   UNL     1       3.974   8.552  -1.736  0.00  0.00    -0.287 N 
ATOM     23  H   UNL     1       4.892   8.244  -1.789  0.00  0.00    +0.155 HD
BRANCH  22  24
ATOM     24  C   UNL     1       3.698   9.921  -1.658  0.00  0.00    +0.035 A 
ATOM     25  C   UNL     1       4.520  10.835  -2.306  0.00  0.00    +0.025 A 
ATOM     26  C   UNL     1       4.242  12.185  -2.233  0.00  0.00    +0.023 A 
ATOM     27  C   UNL     1       3.153  12.631  -1.504  0.00  0.00    +0.059 A 
ATOM     28  C   UNL     1       2.336  11.724  -0.852  0.00  0.00    +0.061 A 
ATOM     29  C   UNL     1       2.606  10.370  -0.928  0.00  0.00    +0.044 A 
ATOM     30 CL   UNL     1       0.970  12.287   0.060  0.00  0.00    -0.082 Cl
ATOM     31 CL   UNL     1       2.812  14.331  -1.409  0.00  0.00    -0.082 Cl
ENDBRANCH  22  24
ENDBRANCH  19  20
ENDBRANCH  17  19
ENDBRANCH  15  17
ENDBRANCH  13  15
ENDBRANCH   5  13
BRANCH   7  32
ATOM     32  C   UNL     1      -1.570  -0.838  -0.459  0.00  0.00    +0.163 C 
BRANCH  32  33
ATOM     33  C   UNL     1      -1.961  -1.369  -1.814  0.00  0.00    -0.028 A 
ATOM     34  C   UNL     1      -2.748  -0.606  -2.655  0.00  0.00    +0.005 A 
ATOM     35  C   UNL     1      -3.102  -1.091  -3.900  0.00  0.00    +0.000 A 
ATOM     36  C   UNL     1      -2.678  -2.345  -4.299  0.00  0.00    +0.000 A 
ATOM     37  C   UNL     1      -1.895  -3.111  -3.455  0.00  0.00    +0.000 A 
ATOM     38  C   UNL     1      -1.537  -2.623  -2.213  0.00  0.00    +0.005 A 
ENDBRANCH  32  33
ENDBRANCH   7  32
TORSDOF 9
