REMARK  Name = ZINC46427598
REMARK  11 active torsions:
REMARK  status: ('A' for Active; 'I' for Inactive)
REMARK    1  A    between atoms: C_1  and  C_2
REMARK    2  A    between atoms: C_5  and  C_31
REMARK    3  A    between atoms: N_8  and  C_10
REMARK    4  A    between atoms: C_10  and  C_11
REMARK    5  A    between atoms: C_11  and  C_12
REMARK    6  A    between atoms: C_12  and  N_13
REMARK    7  A    between atoms: N_16  and  N_17
REMARK    8  A    between atoms: C_18  and  C_20
REMARK    9  A    between atoms: C_20  and  C_22
REMARK   10  A    between atoms: C_20  and  O_23
REMARK   11  A    between atoms: O_23  and  C_24
REMARK                            x       y       z     vdW  Elec       q    Type
REMARK                         _______ _______ _______ _____ _____    ______ ____
ROOT
ATOM      1  N   UNL     1       5.164  -1.820   3.521  0.00  0.00    -0.298 N 
ATOM      2  C   UNL     1       6.044  -1.974   4.530  0.00  0.00    +0.316 C 
ATOM      3  O   UNL     1       5.676  -2.436   5.593  0.00  0.00    -0.251 OA
ATOM      4  N   UNL     1       7.332  -1.616   4.361  0.00  0.00    -0.218 N 
ATOM      5  H   UNL     1       5.457  -1.452   2.673  0.00  0.00    +0.150 HD
ATOM      6  H   UNL     1       7.966  -1.727   5.087  0.00  0.00    +0.174 HD
ENDROOT
BRANCH   4   7
ATOM      7  N   UNL     1       7.756  -1.084   3.136  0.00  0.00    -0.230 N 
ATOM      8  C   UNL     1       9.044  -0.726   2.966  0.00  0.00    +0.270 C 
ATOM      9  O   UNL     1       9.837  -0.864   3.874  0.00  0.00    -0.270 OA
ATOM     10  H   UNL     1       7.123  -0.973   2.410  0.00  0.00    +0.173 HD
BRANCH   8  11
ATOM     11  C   UNL     1       9.500  -0.153   1.649  0.00  0.00    +0.257 C 
ATOM     12  C   UNL     1       8.810   1.191   1.411  0.00  0.00    +0.062 C 
BRANCH  11  13
ATOM     13  O   UNL     1      10.916   0.037   1.677  0.00  0.00    -0.477 OA
BRANCH  13  14
ATOM     14  C   UNL     1      11.562   0.039   0.480  0.00  0.00    +0.157 A 
ATOM     15  C   UNL     1      10.838  -0.025  -0.700  0.00  0.00    +0.048 A 
ATOM     16  C   UNL     1      11.497  -0.022  -1.915  0.00  0.00    +0.004 A 
ATOM     17  C   UNL     1      12.877   0.044  -1.955  0.00  0.00    +0.003 A 
ATOM     18  C   UNL     1      13.603   0.107  -0.780  0.00  0.00    +0.042 A 
ATOM     19  C   UNL     1      12.949   0.112   0.438  0.00  0.00    +0.165 A 
ATOM     20  F   UNL     1      13.658   0.180   1.587  0.00  0.00    -0.202 F 
ENDBRANCH  13  14
ENDBRANCH  11  13
ENDBRANCH   8  11
ENDBRANCH   4   7
BRANCH   1  21
ATOM     21  C   UNL     1       3.764  -2.209   3.706  0.00  0.00    +0.104 C 
BRANCH  21  22
ATOM     22  C   UNL     1       2.984  -1.933   2.418  0.00  0.00    +0.000 C 
BRANCH  22  23
ATOM     23  C   UNL     1       1.521  -2.340   2.611  0.00  0.00    -0.077 C 
BRANCH  23  29
ATOM     24  C   UNL     1       0.022   1.152  -0.475  0.00  0.00    +0.005 C 
ATOM     25  C   UNL     1       0.044  -0.355  -0.211  0.00  0.00    -0.031 C 
ATOM     26  C   UNL     1      -1.392  -0.882  -0.136  0.00  0.00    +0.003 C 
ATOM     27  C   UNL     1      -1.360  -2.374   0.207  0.00  0.00    -0.031 C 
ATOM     28  C   UNL     1      -0.600  -2.575   1.519  0.00  0.00    -0.076 C 
ATOM     29  N   UNL     1       0.773  -2.075   1.375  0.00  0.00    +0.380 N 
ATOM     30  C   UNL     1       0.753  -0.630   1.117  0.00  0.00    -0.076 C 
ATOM     31  C   UNL     1      -2.791  -2.894   0.360  0.00  0.00    +0.005 C 
ATOM     32  H   UNL     1       1.222  -2.547   0.604  0.00  0.00    -0.082 HD
ENDBRANCH  23  29
ENDBRANCH  22  23
ENDBRANCH  21  22
ENDBRANCH   1  21
TORSDOF 8
