REMARK  Name = ZINC48077851
REMARK  10 active torsions:
REMARK  status: ('A' for Active; 'I' for Inactive)
REMARK    1  A    between atoms: C_1  and  N_2
REMARK    2  A    between atoms: N_2  and  C_3
REMARK    3  A    between atoms: N_2  and  C_4
REMARK    4  A    between atoms: C_4  and  C_6
REMARK    5  A    between atoms: C_4  and  C_22
REMARK    6  A    between atoms: C_6  and  N_7
REMARK    7  A    between atoms: N_10  and  C_11
REMARK    8  A    between atoms: C_14  and  O_17
REMARK    9  A    between atoms: O_17  and  C_18
REMARK   10  A    between atoms: C_18  and  C_19
REMARK                            x       y       z     vdW  Elec       q    Type
REMARK                         _______ _______ _______ _____ _____    ______ ____
ROOT
ATOM      1  N   UNL     1      -0.394  -2.388   0.652  0.00  0.00    -0.300 N 
ATOM      2  C   UNL     1      -0.165  -3.715   0.705  0.00  0.00    +0.304 C 
ATOM      3  O   UNL     1      -0.586  -4.440  -0.175  0.00  0.00    -0.253 OA
ATOM      4  N   UNL     1       0.532  -4.238   1.734  0.00  0.00    -0.269 N 
ATOM      5  H   UNL     1      -0.058  -1.809   1.355  0.00  0.00    +0.150 HD
ATOM      6  H   UNL     1       0.794  -3.674   2.478  0.00  0.00    +0.156 HD
ENDROOT
BRANCH   4   7
ATOM      7  C   UNL     1       0.878  -5.596   1.727  0.00  0.00    +0.035 A 
ATOM      8  C   UNL     1       0.914  -6.309   2.917  0.00  0.00    +0.027 A 
ATOM      9  C   UNL     1       1.254  -7.648   2.910  0.00  0.00    +0.047 A 
ATOM     10  C   UNL     1       1.561  -8.279   1.713  0.00  0.00    +0.121 A 
ATOM     11  C   UNL     1       1.527  -7.566   0.523  0.00  0.00    +0.047 A 
ATOM     12  C   UNL     1       1.181  -6.229   0.529  0.00  0.00    +0.027 A 
BRANCH  10  13
ATOM     13  O   UNL     1       1.897  -9.597   1.706  0.00  0.00    -0.483 OA
BRANCH  13  14
ATOM     14  C   UNL     1       2.201 -10.182   0.439  0.00  0.00    +0.324 C 
BRANCH  14  15
ATOM     15  C   UNL     1       2.547 -11.637   0.628  0.00  0.00    +0.248 C 
ATOM     16  O   UNL     1       2.535 -12.124   1.738  0.00  0.00    -0.272 OA
ATOM     17  N   UNL     1       2.871 -12.396  -0.438  0.00  0.00    -0.327 N 
ATOM     18  H   UNL     1       2.881 -12.007  -1.326  0.00  0.00    +0.145 HD
ATOM     19  H   UNL     1       3.094 -13.332  -0.316  0.00  0.00    +0.145 HD
ENDBRANCH  14  15
ENDBRANCH  13  14
ENDBRANCH  10  13
ENDBRANCH   4   7
BRANCH   1  20
ATOM     20  C   UNL     1      -1.152  -1.819  -0.466  0.00  0.00    +0.095 C 
BRANCH  20  21
ATOM     21  C   UNL     1      -1.378  -0.326  -0.221  0.00  0.00    -0.021 C 
BRANCH  21  22
ATOM     22  C   UNL     1      -2.185  -0.139   1.038  0.00  0.00    -0.059 A 
ATOM     23  C   UNL     1      -3.556  -0.313   1.011  0.00  0.00    +0.005 A 
ATOM     24  C   UNL     1      -4.298  -0.143   2.164  0.00  0.00    +0.038 A 
ATOM     25  C   UNL     1      -3.667   0.202   3.348  0.00  0.00    +0.123 A 
ATOM     26  C   UNL     1      -2.293   0.376   3.373  0.00  0.00    +0.038 A 
ATOM     27  C   UNL     1      -1.553   0.200   2.219  0.00  0.00    +0.005 A 
ATOM     28  F   UNL     1      -4.390   0.369   4.476  0.00  0.00    -0.205 F 
ENDBRANCH  21  22
BRANCH  21  30
ATOM     29  C   UNL     1      -2.236   1.703  -1.171  0.00  0.00    -0.096 C 
ATOM     30  N   UNL     1      -2.105   0.252  -1.359  0.00  0.00    +0.382 N 
ATOM     31  C   UNL     1      -1.365  -0.016  -2.600  0.00  0.00    -0.096 C 
ATOM     32  H   UNL     1      -3.022  -0.164  -1.419  0.00  0.00    -0.082 HD
ENDBRANCH  21  30
ENDBRANCH  20  21
ENDBRANCH   1  20
TORSDOF 8
