REMARK  Name = ZINC09809430
REMARK  8 active torsions:
REMARK  status: ('A' for Active; 'I' for Inactive)
REMARK    1  A    between atoms: C_1  and  N_2
REMARK    2  A    between atoms: C_3  and  C_25
REMARK    3  A    between atoms: C_6  and  S_7
REMARK    4  A    between atoms: S_7  and  C_8
REMARK    5  A    between atoms: C_8  and  C_9
REMARK    6  A    between atoms: N_11  and  C_12
REMARK    7  A    between atoms: C_17  and  C_18
REMARK    8  A    between atoms: C_18  and  C_19
REMARK                            x       y       z     vdW  Elec       q    Type
REMARK                         _______ _______ _______ _____ _____    ______ ____
ROOT
ATOM      1  C   UNL     1      -5.274   3.051   0.050  0.00  0.00    +0.227 C 
ATOM      2  O   UNL     1      -5.870   1.995   0.021  0.00  0.00    -0.275 OA
ATOM      3  N   UNL     1      -5.959   4.212   0.046  0.00  0.00    -0.285 N 
ATOM      4  H   UNL     1      -5.484   5.056  -0.015  0.00  0.00    +0.155 HD
ENDROOT
BRANCH   3   5
ATOM      5  C   UNL     1      -7.355   4.200   0.131  0.00  0.00    +0.037 A 
ATOM      6  C   UNL     1      -8.008   3.124   0.717  0.00  0.00    +0.023 A 
ATOM      7  C   UNL     1      -9.387   3.115   0.799  0.00  0.00    +0.002 A 
ATOM      8  C   UNL     1     -10.117   4.178   0.298  0.00  0.00    +0.000 A 
ATOM      9  C   UNL     1      -9.470   5.251  -0.285  0.00  0.00    +0.006 A 
ATOM     10  C   UNL     1      -8.091   5.268  -0.366  0.00  0.00    -0.022 A 
BRANCH  10  11
ATOM     11  C   UNL     1      -7.387   6.441  -0.997  0.00  0.00    +0.072 C 
BRANCH  11  12
ATOM     12  C   UNL     1      -7.113   6.142  -2.448  0.00  0.00    -0.043 A 
ATOM     13  C   UNL     1      -5.928   5.535  -2.817  0.00  0.00    +0.004 A 
ATOM     14  C   UNL     1      -5.679   5.256  -4.148  0.00  0.00    +0.000 A 
ATOM     15  C   UNL     1      -6.612   5.593  -5.111  0.00  0.00    +0.000 A 
ATOM     16  C   UNL     1      -7.795   6.206  -4.742  0.00  0.00    +0.000 A 
ATOM     17  C   UNL     1      -8.046   6.480  -3.411  0.00  0.00    +0.004 A 
ENDBRANCH  11  12
ENDBRANCH  10  11
ENDBRANCH   3   5
BRANCH   1  18
ATOM     18  C   UNL     1      -3.767   3.066   0.091  0.00  0.00    +0.173 C 
BRANCH  18  19
ATOM     19  S   UNL     1      -3.148   1.365   0.086  0.00  0.00    -0.077 S 
BRANCH  19  25
ATOM     20  C   UNL     1      -0.588  -0.726   0.128  0.00  0.00    +0.153 C 
ATOM     21  N   UNL     1      -0.424   0.729   0.151  0.00  0.00    -0.305 N 
ATOM     22  C   UNL     1       0.758   1.433   0.186  0.00  0.00    +0.166 A 
ATOM     23  N   UNL     1       0.447   2.708   0.196  0.00  0.00    -0.128 NA
ATOM     24  N   UNL     1      -0.830   2.849   0.170  0.00  0.00    -0.122 NA
ATOM     25  C   UNL     1      -1.413   1.671   0.136  0.00  0.00    +0.192 A 
BRANCH  22  26
ATOM     26  C   UNL     1       2.120   0.860   0.208  0.00  0.00    +0.038 A 
ATOM     27  C   UNL     1       2.396  -0.264   0.988  0.00  0.00    +0.013 A 
ATOM     28  C   UNL     1       3.670  -0.794   1.004  0.00  0.00    +0.001 A 
ATOM     29  C   UNL     1       4.674  -0.213   0.250  0.00  0.00    +0.001 A 
ATOM     30  C   UNL     1       4.409   0.901  -0.526  0.00  0.00    +0.021 A 
ATOM     31  C   UNL     1       3.137   1.438  -0.556  0.00  0.00    +0.052 A 
ATOM     32 CL   UNL     1       2.804   2.832  -1.535  0.00  0.00    -0.083 Cl
ENDBRANCH  22  26
ENDBRANCH  19  25
ENDBRANCH  18  19
ENDBRANCH   1  18
TORSDOF 7
