REMARK  Name = ZINC45134901
REMARK  8 active torsions:
REMARK  status: ('A' for Active; 'I' for Inactive)
REMARK    1  A    between atoms: C_1  and  C_2
REMARK    2  A    between atoms: C_2  and  C_22
REMARK    3  A    between atoms: C_4  and  N_6
REMARK    4  A    between atoms: N_6  and  S_7
REMARK    5  A    between atoms: S_7  and  C_10
REMARK    6  A    between atoms: C_14  and  C_18
REMARK    7  A    between atoms: C_15  and  O_16
REMARK    8  A    between atoms: O_16  and  C_17
REMARK                            x       y       z     vdW  Elec       q    Type
REMARK                         _______ _______ _______ _____ _____    ______ ____
ROOT
ATOM      1  C   UNL     1       2.370  -2.467   3.269  0.00  0.00    +0.149 A 
ATOM      2  C   UNL     1       2.776  -1.536   4.205  0.00  0.00    +0.052 A 
ATOM      3  C   UNL     1       2.730  -1.835   5.558  0.00  0.00    +0.044 A 
ATOM      4  C   UNL     1       2.280  -3.066   5.984  0.00  0.00    +0.039 A 
ATOM      5  C   UNL     1       1.866  -4.019   5.047  0.00  0.00    +0.108 A 
ATOM      6  C   UNL     1       1.908  -3.709   3.679  0.00  0.00    +0.161 A 
ATOM      7 CL   UNL     1       3.244  -0.653   6.721  0.00  0.00    -0.083 Cl
ENDROOT
BRANCH   1   8
ATOM      8  S   UNL     1       2.432  -2.074   1.553  0.00  0.00    +0.062 S 
ATOM      9  O   UNL     1       3.100  -3.153   0.913  0.00  0.00    -0.153 OA
ATOM     10  O   UNL     1       2.890  -0.732   1.460  0.00  0.00    -0.153 OA
BRANCH   8  11
ATOM     11  N   UNL     1       0.874  -2.083   0.992  0.00  0.00    -0.186 NA
ATOM     12  H   UNL     1       0.599  -2.742   0.335  0.00  0.00    +0.148 HD
BRANCH  11  16
ATOM     13  C   UNL     1      -1.552   0.899   0.639  0.00  0.00    +0.012 C 
ATOM     14  C   UNL     1      -1.127  -0.564   0.498  0.00  0.00    -0.016 C 
ATOM     15  C   UNL     1      -1.550  -1.532   1.604  0.00  0.00    +0.029 C 
ATOM     16  C   UNL     1      -0.088  -1.096   1.487  0.00  0.00    +0.083 C 
ATOM     17  C   UNL     1      -1.081  -1.103  -0.933  0.00  0.00    +0.012 C 
ENDBRANCH  11  16
ENDBRANCH   8  11
ENDBRANCH   1   8
BRANCH   5  18
ATOM     18  C   UNL     1       1.383  -5.335   5.494  0.00  0.00    +0.390 C 
ATOM     19  O   UNL     1       1.344  -5.599   6.687  0.00  0.00    -0.240 OA
ATOM     20  O   UNL     1       1.022  -6.166   4.671  0.00  0.00    -0.240 OA
ENDBRANCH   5  18
BRANCH   6  21
ATOM     21  O   UNL     1       1.504  -4.622   2.761  0.00  0.00    -0.492 OA
ATOM     22  C   UNL     1       2.470  -5.586   2.336  0.00  0.00    +0.277 C 
ENDBRANCH   6  21
TORSDOF 5
