REMARK  Name = ZINC01276423
REMARK  8 active torsions:
REMARK  status: ('A' for Active; 'I' for Inactive)
REMARK    1  A    between atoms: C_1  and  C_2
REMARK    2  A    between atoms: C_5  and  N_8
REMARK    3  A    between atoms: C_9  and  C_31
REMARK    4  A    between atoms: C_11  and  C_14
REMARK    5  A    between atoms: C_12  and  C_13
REMARK    6  A    between atoms: C_19  and  S_30
REMARK    7  A    between atoms: N_20  and  C_23
REMARK    8  A    between atoms: C_26  and  C_29
REMARK                            x       y       z     vdW  Elec       q    Type
REMARK                         _______ _______ _______ _____ _____    ______ ____
ROOT
ATOM      1  C   UNL     1       5.881  -1.407  -1.511  0.00  0.00    +0.028 C 
ATOM      2  C   UNL     1       6.934  -0.795  -0.851  0.00  0.00    +0.102 C 
ATOM      3  C   UNL     1       7.985  -0.061  -1.586  0.00  0.00    +0.274 C 
ATOM      4  O   UNL     1       7.952   0.024  -2.802  0.00  0.00    -0.268 OA
ATOM      5  N   UNL     1       8.976   0.508  -0.884  0.00  0.00    -0.154 NA
ATOM      6  C   UNL     1       9.034   0.431   0.426  0.00  0.00    +0.157 C 
ATOM      7  N   UNL     1       8.110  -0.224   1.185  0.00  0.00    -0.217 N 
ATOM      8  C   UNL     1       7.051  -0.841   0.617  0.00  0.00    +0.262 C 
ATOM      9  O   UNL     1       6.224  -1.421   1.296  0.00  0.00    -0.269 OA
ENDROOT
BRANCH   1  13
ATOM     10  N   UNL     1       3.159  -3.221  -0.040  0.00  0.00    -0.317 N 
ATOM     11  C   UNL     1       4.204  -3.842   0.587  0.00  0.00    +0.022 A 
ATOM     12  C   UNL     1       5.358  -3.304   0.163  0.00  0.00    +0.031 A 
ATOM     13  C   UNL     1       4.997  -2.254  -0.802  0.00  0.00    -0.003 A 
ATOM     14  C   UNL     1       3.612  -2.265  -0.873  0.00  0.00    +0.028 A 
ATOM     15  C   UNL     1       2.763  -1.364  -1.733  0.00  0.00    +0.064 C 
ATOM     16  C   UNL     1       4.079  -4.958   1.592  0.00  0.00    +0.064 C 
BRANCH  10  21
ATOM     17  C   UNL     1      -2.316  -4.478   0.772  0.00  0.00    +0.044 C 
ATOM     18  C   UNL     1      -0.862  -4.144   0.557  0.00  0.00    -0.050 A 
ATOM     19  C   UNL     1      -0.019  -5.075  -0.023  0.00  0.00    +0.005 A 
ATOM     20  C   UNL     1       1.315  -4.773  -0.217  0.00  0.00    +0.026 A 
ATOM     21  C   UNL     1       1.807  -3.531   0.160  0.00  0.00    +0.047 A 
ATOM     22  C   UNL     1       0.957  -2.597   0.737  0.00  0.00    +0.026 A 
ATOM     23  C   UNL     1      -0.375  -2.906   0.934  0.00  0.00    +0.005 A 
ENDBRANCH  10  21
ENDBRANCH   1  13
BRANCH   7  24
ATOM     24  C   UNL     1       8.257  -0.252   2.578  0.00  0.00    +0.043 A 
ATOM     25  C   UNL     1       8.887  -1.327   3.189  0.00  0.00    +0.024 A 
ATOM     26  C   UNL     1       9.034  -1.350   4.562  0.00  0.00    +0.005 A 
ATOM     27  C   UNL     1       8.547  -0.307   5.329  0.00  0.00    -0.050 A 
ATOM     28  C   UNL     1       7.915   0.763   4.723  0.00  0.00    +0.005 A 
ATOM     29  C   UNL     1       7.768   0.794   3.350  0.00  0.00    +0.024 A 
ATOM     30  C   UNL     1       8.705  -0.338   6.827  0.00  0.00    +0.044 C 
ENDBRANCH   7  24
BRANCH   6  31
ATOM     31  S   UNL     1      10.381   1.216   1.247  0.00  0.00    -0.110 S 
ATOM     32  H   UNL     1      11.067   1.750   0.137  0.00  0.00    +0.110 HD
ENDBRANCH   6  31
TORSDOF 4
