REMARK  Name = ZINC63314610
REMARK  6 active torsions:
REMARK  status: ('A' for Active; 'I' for Inactive)
REMARK    1  A    between atoms: C_1  and  O_2
REMARK    2  A    between atoms: O_2  and  C_3
REMARK    3  A    between atoms: C_6  and  N_9
REMARK    4  A    between atoms: C_15  and  C_17
REMARK    5  A    between atoms: C_17  and  C_18
REMARK    6  A    between atoms: C_18  and  N_19
REMARK                            x       y       z     vdW  Elec       q    Type
REMARK                         _______ _______ _______ _____ _____    ______ ____
ROOT
ATOM      1  N   UNL     1       3.994  -7.552   9.260  0.00  0.00    -0.299 N 
ATOM      2  C   UNL     1       4.620  -8.161  10.286  0.00  0.00    +0.302 C 
ATOM      3  O   UNL     1       5.129  -7.497  11.168  0.00  0.00    -0.253 OA
ATOM      4  N   UNL     1       4.684  -9.507  10.334  0.00  0.00    -0.283 N 
ATOM      5  C   UNL     1       4.181 -10.297   9.206  0.00  0.00    +0.114 C 
ATOM      6  C   UNL     1       3.088 -11.262   9.703  0.00  0.00    +0.052 C 
ATOM      7  C   UNL     1       3.614 -11.896  10.967  0.00  0.00    -0.035 C 
ATOM      8  C   UNL     1       3.720 -13.168  11.332  0.00  0.00    +0.001 A 
ATOM      9  C   UNL     1       3.267 -14.412  10.691  0.00  0.00    +0.030 A 
ATOM     10  C   UNL     1       3.565 -15.567  11.344  0.00  0.00    +0.042 A 
ATOM     11  C   UNL     1       4.262 -15.607  12.557  0.00  0.00    +0.022 A 
ATOM     12  C   UNL     1       4.709 -14.511  13.221  0.00  0.00    +0.027 A 
ATOM     13  C   UNL     1       4.447 -13.238  12.636  0.00  0.00    +0.043 A 
ATOM     14  N   UNL     1       4.735 -12.043  13.061  0.00  0.00    -0.376 N 
ATOM     15  C   UNL     1       4.178 -11.072  12.118  0.00  0.00    +0.124 C 
ATOM     16  C   UNL     1       5.263 -10.166  11.515  0.00  0.00    +0.138 C 
ATOM     17 CL   UNL     1       3.056 -17.069  10.637  0.00  0.00    -0.084 Cl
ATOM     18  H   UNL     1       3.522  -8.081   8.598  0.00  0.00    +0.150 HD
ATOM     19  H   UNL     1       5.235 -11.831  13.865  0.00  0.00    +0.160 HD
ENDROOT
BRANCH   1  20
ATOM     20  C   UNL     1       4.024  -6.092   9.146  0.00  0.00    +0.115 C 
BRANCH  20  21
ATOM     21  C   UNL     1       3.242  -5.661   7.904  0.00  0.00    +0.114 C 
BRANCH  21  28
ATOM     22  N   UNL     1       2.500  -2.510   4.237  0.00  0.00    -0.327 N 
ATOM     23  C   UNL     1       3.218  -1.722   5.249  0.00  0.00    +0.124 C 
ATOM     24  C   UNL     1       2.668  -2.086   6.634  0.00  0.00    +0.126 C 
ATOM     25  N   UNL     1       2.646  -3.550   6.761  0.00  0.00    -0.298 N 
ATOM     26  C   UNL     1       1.929  -4.338   5.749  0.00  0.00    +0.126 C 
ATOM     27  C   UNL     1       2.474  -3.974   4.367  0.00  0.00    +0.124 C 
ATOM     28  C   UNL     1       3.273  -4.159   7.787  0.00  0.00    +0.217 C 
ATOM     29  O   UNL     1       3.862  -3.498   8.615  0.00  0.00    -0.276 OA
BRANCH  22  33
ATOM     30  C   UNL     1       0.560  -0.627   1.065  0.00  0.00    +0.120 A 
ATOM     31  C   UNL     1       0.625  -2.012   1.114  0.00  0.00    +0.047 A 
ATOM     32  C   UNL     1       1.267  -2.636   2.164  0.00  0.00    +0.027 A 
ATOM     33  C   UNL     1       1.849  -1.878   3.172  0.00  0.00    +0.030 A 
ATOM     34  C   UNL     1       1.784  -0.492   3.122  0.00  0.00    +0.027 A 
ATOM     35  C   UNL     1       1.146   0.131   2.067  0.00  0.00    +0.047 A 
BRANCH  30  37
ATOM     36  C   UNL     1      -0.654  -0.855  -0.968  0.00  0.00    +0.277 C 
ATOM     37  O   UNL     1      -0.073  -0.013   0.030  0.00  0.00    -0.495 OA
ENDBRANCH  30  37
ENDBRANCH  22  33
ENDBRANCH  21  28
ENDBRANCH  20  21
ENDBRANCH   1  20
TORSDOF 5
