REMARK  Name = ZINC39632049
REMARK  14 active torsions:
REMARK  status: ('A' for Active; 'I' for Inactive)
REMARK    1  A    between atoms: C_1  and  C_2
REMARK    2  A    between atoms: C_2  and  O_3
REMARK    3  A    between atoms: O_3  and  C_4
REMARK    4  A    between atoms: C_8  and  C_10
REMARK    5  A    between atoms: C_14  and  C_23
REMARK    6  A    between atoms: N_25  and  C_26
REMARK    7  A    between atoms: C_26  and  C_28
REMARK    8  A    between atoms: C_26  and  C_29
REMARK    9  A    between atoms: C_29  and  C_30
REMARK   10  A    between atoms: C_30  and  C_31
REMARK   11  A    between atoms: C_31  and  C_32
REMARK   12  A    between atoms: C_32  and  C_33
REMARK   13  A    between atoms: C_32  and  C_34
REMARK   14  A    between atoms: C_32  and  O_35
REMARK                            x       y       z     vdW  Elec       q    Type
REMARK                         _______ _______ _______ _____ _____    ______ ____
ROOT
ATOM      1  C   UNL     1       0.238  -3.111  -4.197  0.00  0.00    +0.247 C 
ATOM      2  O   UNL     1       0.549  -2.434  -5.157  0.00  0.00    -0.270 OA
ATOM      3  N   UNL     1       0.752  -4.349  -4.051  0.00  0.00    -0.296 N 
ATOM      4  C   UNL     1       0.408  -5.359  -3.023  0.00  0.00    +0.121 C 
ATOM      5  C   UNL     1       0.408  -6.705  -3.782  0.00  0.00    +0.100 C 
ATOM      6  C   UNL     1       1.316  -6.468  -5.000  0.00  0.00    -0.004 C 
ATOM      7  C   UNL     1       1.783  -5.009  -4.886  0.00  0.00    +0.115 C 
ATOM      8  C   UNL     1       0.530  -6.664  -6.293  0.00  0.00    -0.010 C 
ATOM      9  C   UNL     1       1.468  -6.479  -7.489  0.00  0.00    -0.082 C 
ATOM     10  N   UNL     1       2.565  -7.451  -7.407  0.00  0.00    +0.379 N 
ATOM     11  C   UNL     1       3.372  -7.197  -6.208  0.00  0.00    -0.082 C 
ATOM     12  C   UNL     1       2.514  -7.412  -4.958  0.00  0.00    -0.010 C 
ATOM     13  H   UNL     1       2.183  -8.384  -7.362  0.00  0.00    -0.086 HD
ATOM     14  H   UNL     1       3.147  -7.369  -8.227  0.00  0.00    -0.086 HD
ENDROOT
BRANCH   1  19
ATOM     15  C   UNL     1      -2.401  -0.998  -2.553  0.00  0.00    +0.121 A 
ATOM     16  C   UNL     1      -2.464  -1.580  -1.294  0.00  0.00    +0.046 A 
ATOM     17  C   UNL     1      -1.653  -2.655  -0.983  0.00  0.00    +0.004 A 
ATOM     18  C   UNL     1      -0.773  -3.156  -1.921  0.00  0.00    +0.013 A 
ATOM     19  C   UNL     1      -0.703  -2.577  -3.189  0.00  0.00    +0.040 A 
ATOM     20  C   UNL     1      -1.527  -1.496  -3.504  0.00  0.00    +0.058 A 
BRANCH  15  21
ATOM     21  O   UNL     1      -3.201   0.059  -2.854  0.00  0.00    -0.492 OA
BRANCH  21  23
ATOM     22  C   UNL     1      -4.894   1.707  -2.346  0.00  0.00    +0.048 C 
ATOM     23  C   UNL     1      -4.079   0.521  -1.825  0.00  0.00    +0.225 C 
ENDBRANCH  21  23
ENDBRANCH  15  21
ENDBRANCH   1  19
BRANCH   5  24
ATOM     24  C   UNL     1      -0.989  -7.056  -4.227  0.00  0.00    +0.218 C 
ATOM     25  O   UNL     1      -1.772  -6.177  -4.517  0.00  0.00    -0.275 OA
ATOM     26  N   UNL     1      -1.367  -8.348  -4.302  0.00  0.00    -0.312 N 
ATOM     27  H   UNL     1      -0.719  -9.053  -4.146  0.00  0.00    +0.149 HD
BRANCH  26  28
ATOM     28  C   UNL     1      -2.756  -8.687  -4.621  0.00  0.00    +0.070 C 
ATOM     29  C   UNL     1      -2.932  -8.737  -6.140  0.00  0.00    +0.028 C 
BRANCH  28  30
ATOM     30  C   UNL     1      -3.097 -10.053  -4.023  0.00  0.00    +0.022 C 
BRANCH  30  31
ATOM     31  C   UNL     1      -2.985  -9.984  -2.498  0.00  0.00    +0.005 C 
BRANCH  31  32
ATOM     32  C   UNL     1      -3.214 -11.377  -1.907  0.00  0.00    +0.034 C 
BRANCH  32  33
ATOM     33  C   UNL     1      -3.231 -11.286  -0.380  0.00  0.00    +0.061 C 
ATOM     34  C   UNL     1      -3.531 -12.665   0.210  0.00  0.00    +0.041 C 
ATOM     35  C   UNL     1      -1.866 -10.804   0.118  0.00  0.00    +0.041 C 
BRANCH  33  36
ATOM     36  O   UNL     1      -4.241 -10.362   0.031  0.00  0.00    -0.389 OA
ATOM     37  H   UNL     1      -4.308 -10.254   0.990  0.00  0.00    +0.210 HD
ENDBRANCH  33  36
ENDBRANCH  32  33
ENDBRANCH  31  32
ENDBRANCH  30  31
ENDBRANCH  28  30
ENDBRANCH  26  28
ENDBRANCH   5  24
TORSDOF 10
