REMARK  Name = ZINC03089145
REMARK  7 active torsions:
REMARK  status: ('A' for Active; 'I' for Inactive)
REMARK    1  A    between atoms: C_4  and  C_7
REMARK    2  A    between atoms: C_7  and  O_9
REMARK    3  A    between atoms: O_9  and  C_10
REMARK    4  A    between atoms: C_13  and  C_19
REMARK    5  A    between atoms: C_15  and  N_16
REMARK    6  A    between atoms: N_20  and  N_21
REMARK    7  A    between atoms: C_22  and  C_24
REMARK                            x       y       z     vdW  Elec       q    Type
REMARK                         _______ _______ _______ _____ _____    ______ ____
ROOT
ATOM      1  C   UNL     1       5.942  -0.799  -0.065  0.00  0.00    +0.162 A 
ATOM      2  C   UNL     1       5.782  -2.178  -0.125  0.00  0.00    +0.049 A 
ATOM      3  C   UNL     1       6.886  -3.002  -0.151  0.00  0.00    +0.013 A 
ATOM      4  C   UNL     1       8.169  -2.448  -0.107  0.00  0.00    -0.003 A 
ATOM      5  C   UNL     1       8.325  -1.061  -0.041  0.00  0.00    +0.046 A 
ATOM      6  C   UNL     1       7.215  -0.245  -0.020  0.00  0.00    +0.169 A 
ENDROOT
BRANCH   6   7
ATOM      7  N   UNL     1       7.379   1.224   0.049  0.00  0.00    +0.060 N 
ATOM      8  O   UNL     1       8.495   1.711   0.088  0.00  0.00    -0.126 OA
ATOM      9  O   UNL     1       6.398   1.946   0.067  0.00  0.00    -0.126 OA
ENDBRANCH   6   7
BRANCH   4  10
ATOM     10  C   UNL     1       9.354  -3.325  -0.128  0.00  0.00    +0.138 C 
ATOM     11  N   UNL     1       9.206  -4.614  -0.190  0.00  0.00    -0.187 NA
BRANCH  11  12
ATOM     12  N   UNL     1      10.332  -5.447  -0.210  0.00  0.00    -0.203 N 
ATOM     13  C   UNL     1      10.179  -6.785  -0.274  0.00  0.00    +0.263 C 
ATOM     14  O   UNL     1       9.064  -7.268  -0.313  0.00  0.00    -0.268 OA
ATOM     15  H   UNL     1      11.222  -5.062  -0.179  0.00  0.00    +0.178 HD
BRANCH  13  16
ATOM     16  C   UNL     1      11.367  -7.664  -0.295  0.00  0.00    +0.039 A 
ATOM     17  C   UNL     1      12.649  -7.112  -0.256  0.00  0.00    +0.013 A 
ATOM     18  C   UNL     1      13.753  -7.939  -0.271  0.00  0.00    +0.002 A 
ATOM     19  C   UNL     1      13.593  -9.311  -0.337  0.00  0.00    +0.015 A 
ATOM     20  C   UNL     1      12.325  -9.865  -0.381  0.00  0.00    +0.019 A 
ATOM     21  C   UNL     1      11.212  -9.050  -0.361  0.00  0.00    +0.028 A 
ATOM     22 BR   UNL     1      12.119 -11.743  -0.470  0.00  0.00    -0.050 Br
ENDBRANCH  13  16
ENDBRANCH  11  12
ENDBRANCH   4  10
BRANCH   1  23
ATOM     23  O   UNL     1       4.850   0.009  -0.044  0.00  0.00    -0.420 OA
BRANCH  23  24
ATOM     24  C   UNL     1       4.413   0.477  -1.229  0.00  0.00    +0.345 C 
ATOM     25  O   UNL     1       5.043   0.248  -2.243  0.00  0.00    -0.245 OA
BRANCH  24  29
ATOM     26  C   UNL     1       0.832   2.751  -1.423  0.00  0.00    +0.000 A 
ATOM     27  C   UNL     1       1.278   2.272  -0.204  0.00  0.00    +0.001 A 
ATOM     28  C   UNL     1       2.441   1.533  -0.134  0.00  0.00    +0.015 A 
ATOM     29  C   UNL     1       3.167   1.268  -1.297  0.00  0.00    +0.059 A 
ATOM     30  C   UNL     1       2.711   1.754  -2.523  0.00  0.00    +0.015 A 
ATOM     31  C   UNL     1       1.547   2.493  -2.579  0.00  0.00    +0.001 A 
ENDBRANCH  24  29
ENDBRANCH  23  24
ENDBRANCH   1  23
TORSDOF 7
