REMARK  Name = ZINC09510670
REMARK  9 active torsions:
REMARK  status: ('A' for Active; 'I' for Inactive)
REMARK    1  A    between atoms: C_1  and  C_2
REMARK    2  A    between atoms: C_5  and  N_8
REMARK    3  A    between atoms: N_8  and  C_9
REMARK    4  A    between atoms: C_10  and  C_36
REMARK    5  A    between atoms: C_15  and  S_18
REMARK    6  A    between atoms: S_18  and  C_19
REMARK    7  A    between atoms: C_19  and  C_20
REMARK    8  A    between atoms: C_32  and  C_34
REMARK    9  A    between atoms: C_32  and  C_35
REMARK                            x       y       z     vdW  Elec       q    Type
REMARK                         _______ _______ _______ _____ _____    ______ ____
ROOT
ATOM      1  C   UNL     1      -2.191  -4.736  -0.128  0.00  0.00    +0.129 A 
ATOM      2  C   UNL     1      -1.589  -4.177   0.992  0.00  0.00    +0.094 A 
ATOM      3  C   UNL     1      -0.263  -3.670   0.910  0.00  0.00    -0.015 A 
ATOM      4  C   UNL     1       0.410  -3.740  -0.260  0.00  0.00    +0.027 A 
ATOM      5  C   UNL     1      -0.218  -4.310  -1.394  0.00  0.00    +0.169 A 
ATOM      6  N   UNL     1      -1.504  -4.797  -1.308  0.00  0.00    -0.256 N 
ATOM      7  C   UNL     1      -1.807  -5.270  -2.555  0.00  0.00    +0.198 A 
ATOM      8  N   UNL     1      -0.755  -5.066  -3.314  0.00  0.00    -0.122 NA
ATOM      9  N   UNL     1       0.182  -4.502  -2.637  0.00  0.00    -0.128 NA
ATOM     10  C   UNL     1       1.823  -3.234  -0.393  0.00  0.00    +0.199 C 
ATOM     11  O   UNL     1       2.154  -2.384   0.704  0.00  0.00    -0.369 OA
ATOM     12  C   UNL     1       1.873  -2.978   1.977  0.00  0.00    +0.068 C 
ATOM     13  C   UNL     1       0.354  -3.063   2.143  0.00  0.00    +0.071 C 
ATOM     14  C   UNL     1       2.466  -2.114   3.091  0.00  0.00    +0.041 C 
ATOM     15  C   UNL     1       2.477  -4.382   2.036  0.00  0.00    +0.041 C 
ENDROOT
BRANCH   1  16
ATOM     16  N   UNL     1      -3.471  -5.227  -0.050  0.00  0.00    -0.299 N 
ATOM     17  H   UNL     1      -4.226  -4.640  -0.211  0.00  0.00    +0.154 HD
BRANCH  16  22
ATOM     18  C   UNL     1      -4.342 -10.688   1.211  0.00  0.00    +0.044 C 
ATOM     19  C   UNL     1      -4.110  -9.237   0.876  0.00  0.00    -0.050 A 
ATOM     20  C   UNL     1      -5.186  -8.375   0.761  0.00  0.00    +0.005 A 
ATOM     21  C   UNL     1      -4.977  -7.045   0.454  0.00  0.00    +0.023 A 
ATOM     22  C   UNL     1      -3.685  -6.573   0.260  0.00  0.00    +0.032 A 
ATOM     23  C   UNL     1      -2.608  -7.442   0.370  0.00  0.00    +0.023 A 
ATOM     24  C   UNL     1      -2.823  -8.770   0.683  0.00  0.00    +0.005 A 
ENDBRANCH  16  22
ENDBRANCH   1  16
BRANCH   2  25
ATOM     25  C   UNL     1      -2.306  -4.110   2.230  0.00  0.00    +0.103 C 
ATOM     26  N   UNL     1      -2.874  -4.058   3.212  0.00  0.00    -0.191 NA
ENDBRANCH   2  25
BRANCH   7  27
ATOM     27  S   UNL     1      -3.326  -6.014  -3.050  0.00  0.00    -0.078 S 
BRANCH  27  28
ATOM     28  C   UNL     1      -3.057  -6.442  -4.792  0.00  0.00    +0.151 C 
BRANCH  28  29
ATOM     29  C   UNL     1      -4.266  -7.169  -5.323  0.00  0.00    +0.118 A 
ATOM     30  N   UNL     1      -5.326  -6.575  -5.935  0.00  0.00    -0.341 N 
ATOM     31  H   UNL     1      -5.438  -5.597  -6.108  0.00  0.00    +0.167 HD
ATOM     32  C   UNL     1      -6.218  -7.574  -6.272  0.00  0.00    +0.066 A 
ATOM     33  C   UNL     1      -7.455  -7.593  -6.902  0.00  0.00    +0.028 A 
ATOM     34  C   UNL     1      -8.105  -8.794  -7.092  0.00  0.00    +0.002 A 
ATOM     35  C   UNL     1      -7.532  -9.981  -6.659  0.00  0.00    +0.002 A 
ATOM     36  C   UNL     1      -6.316  -9.981  -6.037  0.00  0.00    +0.030 A 
ATOM     37  C   UNL     1      -5.638  -8.776  -5.833  0.00  0.00    +0.089 A 
ATOM     38  N   UNL     1      -4.446  -8.457  -5.267  0.00  0.00    -0.232 NA
ENDBRANCH  28  29
ENDBRANCH  27  28
ENDBRANCH   7  27
TORSDOF 6
