REMARK  Name = ZINC52759486
REMARK  7 active torsions:
REMARK  status: ('A' for Active; 'I' for Inactive)
REMARK    1  A    between atoms: C_3  and  S_9
REMARK    2  A    between atoms: C_4  and  N_8
REMARK    3  A    between atoms: S_9  and  N_12
REMARK    4  A    between atoms: C_16  and  C_18
REMARK    5  A    between atoms: C_18  and  C_19
REMARK    6  A    between atoms: C_19  and  C_20
REMARK    7  A    between atoms: C_20  and  O_21
REMARK                            x       y       z     vdW  Elec       q    Type
REMARK                         _______ _______ _______ _____ _____    ______ ____
ROOT
ATOM      1  S   UNL     1       4.453   2.079   0.322  0.00  0.00    +0.063 S 
ATOM      2  O   UNL     1       3.162   2.475   0.765  0.00  0.00    -0.153 OA
ATOM      3  O   UNL     1       4.668   0.896  -0.435  0.00  0.00    -0.153 OA
ENDROOT
BRANCH   1   6
ATOM      4  C   UNL     1       6.154   4.215  -2.625  0.00  0.00    +0.017 A 
ATOM      5  C   UNL     1       5.656   3.168  -1.871  0.00  0.00    +0.031 A 
ATOM      6  C   UNL     1       5.088   3.413  -0.637  0.00  0.00    +0.126 A 
ATOM      7  C   UNL     1       5.019   4.713  -0.151  0.00  0.00    +0.052 A 
ATOM      8  C   UNL     1       5.520   5.763  -0.910  0.00  0.00    +0.040 A 
ATOM      9  C   UNL     1       6.087   5.511  -2.145  0.00  0.00    +0.020 A 
ATOM     10 BR   UNL     1       6.770   6.939  -3.180  0.00  0.00    -0.050 Br
BRANCH   7  11
ATOM     11  N   UNL     1       4.445   4.964   1.097  0.00  0.00    -0.356 N 
ATOM     12  H   UNL     1       3.968   4.259   1.563  0.00  0.00    +0.142 HD
ATOM     13  H   UNL     1       4.523   5.843   1.499  0.00  0.00    +0.142 HD
ENDBRANCH   7  11
ENDBRANCH   1   6
BRANCH   1  14
ATOM     14  N   UNL     1       5.400   1.953   1.675  0.00  0.00    -0.173 NA
ATOM     15  C   UNL     1       5.082   2.514   3.001  0.00  0.00    +0.110 C 
ATOM     16  C   UNL     1       6.455   2.683   3.699  0.00  0.00    +0.019 C 
ATOM     17  C   UNL     1       7.217   1.429   3.196  0.00  0.00    +0.022 C 
ATOM     18  C   UNL     1       6.693   1.259   1.754  0.00  0.00    +0.080 C 
BRANCH  18  19
ATOM     19  C   UNL     1       6.507  -0.227   1.438  0.00  0.00    +0.023 C 
BRANCH  19  20
ATOM     20  C   UNL     1       7.866  -0.929   1.469  0.00  0.00    +0.029 C 
BRANCH  20  21
ATOM     21  C   UNL     1       7.697  -2.385   1.030  0.00  0.00    +0.156 C 
BRANCH  21  22
ATOM     22  O   UNL     1       8.944  -3.071   1.165  0.00  0.00    -0.395 OA
ATOM     23  H   UNL     1       8.911  -4.001   0.904  0.00  0.00    +0.209 HD
ENDBRANCH  21  22
ENDBRANCH  20  21
ENDBRANCH  19  20
ENDBRANCH  18  19
ENDBRANCH   1  14
TORSDOF 7
