REMARK  Name = ZINC64993461
REMARK  10 active torsions:
REMARK  status: ('A' for Active; 'I' for Inactive)
REMARK    1  A    between atoms: C_1  and  C_2
REMARK    2  A    between atoms: C_6  and  C_7
REMARK    3  A    between atoms: C_7  and  N_8
REMARK    4  A    between atoms: N_8  and  C_9
REMARK    5  A    between atoms: N_8  and  C_24
REMARK    6  A    between atoms: C_9  and  C_10
REMARK    7  A    between atoms: C_13  and  C_15
REMARK    8  A    between atoms: C_18  and  C_21
REMARK    9  A    between atoms: C_24  and  C_25
REMARK   10  A    between atoms: C_24  and  C_26
REMARK                            x       y       z     vdW  Elec       q    Type
REMARK                         _______ _______ _______ _____ _____    ______ ____
ROOT
ATOM      1  C   UNL     1      -2.296   1.815   4.752  0.00  0.00    +0.033 A 
ATOM      2  C   UNL     1      -2.724   1.246   5.912  0.00  0.00    +0.068 A 
ATOM      3  S   UNL     1      -4.306   2.055   6.113  0.00  0.00    -0.075 S 
ATOM      4  C   UNL     1      -4.226   3.058   4.635  0.00  0.00    +0.108 A 
ATOM      5  N   UNL     1      -3.046   2.704   4.146  0.00  0.00    -0.246 NA
ENDROOT
BRANCH   4   6
ATOM      6  C   UNL     1      -5.208   4.026   4.105  0.00  0.00    +0.007 A 
ATOM      7  C   UNL     1      -4.945   4.707   2.914  0.00  0.00    +0.011 A 
ATOM      8  C   UNL     1      -5.860   5.608   2.420  0.00  0.00    +0.014 A 
ATOM      9  C   UNL     1      -7.053   5.843   3.110  0.00  0.00    +0.037 A 
ATOM     10  C   UNL     1      -7.316   5.162   4.301  0.00  0.00    +0.014 A 
ATOM     11  C   UNL     1      -6.403   4.256   4.792  0.00  0.00    +0.011 A 
BRANCH   9  12
ATOM     12  C   UNL     1      -8.035   6.810   2.580  0.00  0.00    +0.242 C 
ATOM     13  O   UNL     1      -7.806   7.403   1.543  0.00  0.00    -0.270 OA
ATOM     14  N   UNL     1      -9.185   7.036   3.245  0.00  0.00    -0.325 N 
ATOM     15  H   UNL     1      -9.368   6.563   4.072  0.00  0.00    +0.145 HD
ATOM     16  H   UNL     1      -9.830   7.671   2.897  0.00  0.00    +0.145 HD
ENDBRANCH   9  12
ENDBRANCH   4   6
BRANCH   1  17
ATOM     17  C   UNL     1      -0.962   1.429   4.168  0.00  0.00    -0.021 C 
BRANCH  17  18
ATOM     18  N   UNL     1      -1.092   1.268   2.713  0.00  0.00    +0.388 N 
ATOM     19  H   UNL     1      -1.545   2.082   2.324  0.00  0.00    -0.080 HD
BRANCH  18  20
ATOM     20  C   UNL     1      -1.896   0.074   2.423  0.00  0.00    -0.074 C 
ATOM     21  C   UNL     1      -1.271  -1.142   3.109  0.00  0.00    -0.013 C 
ATOM     22  C   UNL     1      -3.320   0.278   2.945  0.00  0.00    -0.013 C 
ENDBRANCH  18  20
BRANCH  18  23
ATOM     23  C   UNL     1       0.242   1.117   2.116  0.00  0.00    -0.034 C 
BRANCH  23  29
ATOM     24  C   UNL     1       0.027   3.484   0.170  0.00  0.00    +0.044 C 
ATOM     25  C   UNL     1       0.018   2.047  -0.285  0.00  0.00    -0.042 A 
ATOM     26  C   UNL     1      -0.085   1.737  -1.628  0.00  0.00    +0.011 A 
ATOM     27  C   UNL     1      -0.090   0.435  -2.004  0.00  0.00    +0.045 A 
ATOM     28  S   UNL     1       0.052  -0.403  -0.433  0.00  0.00    -0.103 S 
ATOM     29  C   UNL     1       0.115   1.040   0.617  0.00  0.00    -0.024 A 
ENDBRANCH  23  29
ENDBRANCH  18  23
ENDBRANCH  17  18
ENDBRANCH   1  17
TORSDOF 7
