REMARK  Name = ZINC14981033
REMARK  5 active torsions:
REMARK  status: ('A' for Active; 'I' for Inactive)
REMARK    1  A    between atoms: C_7  and  C_14
REMARK    2  A    between atoms: N_9  and  C_10
REMARK    3  A    between atoms: C_10  and  C_11
REMARK    4  A    between atoms: C_14  and  N_54
REMARK    5  A    between atoms: C_15  and  N_54
REMARK                            x       y       z     vdW  Elec       q    Type
REMARK                         _______ _______ _______ _____ _____    ______ ____
ROOT
ATOM      1  N   UNL     1      -2.671  -2.622   0.131  0.00  0.00    +0.385 N 
ATOM      2  H   UNL     1      -3.252  -2.064  -0.506  0.00  0.00    -0.085 HD
ATOM      3  H   UNL     1      -2.641  -3.595  -0.197  0.00  0.00    -0.085 HD
ENDROOT
BRANCH   1   4
ATOM      4  C   UNL     1      -1.303  -2.072   0.150  0.00  0.00    -0.054 C 
ATOM      5  C   UNL     1      -0.509  -2.655  -1.022  0.00  0.00    -0.013 C 
ATOM      6  C   UNL     1       0.891  -2.036  -1.038  0.00  0.00    +0.017 C 
ATOM      7  C   UNL     1       0.769  -0.514  -1.142  0.00  0.00    +0.107 C 
ATOM      8  N   UNL     1       0.002  -0.004   0.002  0.00  0.00    -0.311 N 
ATOM      9  C   UNL     1      -1.361  -0.549   0.012  0.00  0.00    +0.091 C 
ATOM     10  C   UNL     1      -0.017   1.376   0.010  0.00  0.00    +0.162 A 
ATOM     11  N   UNL     1       0.995   2.214   0.004  0.00  0.00    -0.225 NA
ATOM     12  C   UNL     1       0.827   3.554   0.013  0.00  0.00    +0.080 A 
ATOM     13  C   UNL     1       1.822   4.559   0.008  0.00  0.00    +0.029 A 
ATOM     14  C   UNL     1       1.478   5.885   0.017  0.00  0.00    +0.002 A 
ATOM     15  C   UNL     1       0.151   6.290   0.031  0.00  0.00    +0.001 A 
ATOM     16  C   UNL     1      -0.848   5.334   0.036  0.00  0.00    +0.017 A 
ATOM     17  C   UNL     1      -0.513   4.003   0.027  0.00  0.00    +0.041 A 
ATOM     18  S   UNL     1      -1.424   2.478   0.021  0.00  0.00    -0.052 S 
ENDBRANCH   1   4
BRANCH   1  19
ATOM     19  C   UNL     1      -3.258  -2.583   1.484  0.00  0.00    -0.044 C 
BRANCH  19  26
ATOM     20  C   UNL     1      -4.941  -6.957   1.417  0.00  0.00    +0.001 A 
ATOM     21  C   UNL     1      -6.328  -7.002   1.368  0.00  0.00    +0.002 A 
ATOM     22  C   UNL     1      -7.068  -5.841   1.345  0.00  0.00    +0.026 A 
ATOM     23  C   UNL     1      -6.422  -4.609   1.369  0.00  0.00    +0.050 A 
ATOM     24  C   UNL     1      -5.017  -4.569   1.418  0.00  0.00    +0.001 A 
ATOM     25  C   UNL     1      -4.286  -5.758   1.442  0.00  0.00    +0.010 A 
ATOM     26  C   UNL     1      -4.653  -3.150   1.434  0.00  0.00    -0.039 A 
ATOM     27  C   UNL     1      -5.798  -2.451   1.402  0.00  0.00    +0.089 A 
ATOM     28  N   UNL     1      -6.866  -3.306   1.357  0.00  0.00    -0.338 N 
BRANCH  28  29
ATOM     29  C   UNL     1      -8.271  -2.896   1.308  0.00  0.00    +0.217 C 
BRANCH  29  30
ATOM     30  C   UNL     1      -8.837  -2.877   2.705  0.00  0.00    +0.230 C 
ATOM     31  O   UNL     1      -8.136  -3.177   3.648  0.00  0.00    -0.274 OA
ATOM     32  N   UNL     1     -10.123  -2.527   2.906  0.00  0.00    -0.328 N 
ATOM     33  H   UNL     1     -10.684  -2.287   2.152  0.00  0.00    +0.145 HD
ATOM     34  H   UNL     1     -10.488  -2.515   3.805  0.00  0.00    +0.145 HD
ENDBRANCH  29  30
ENDBRANCH  28  29
ENDBRANCH  19  26
ENDBRANCH   1  19
TORSDOF 5
