REMARK  Name = ZINC23244870
REMARK  11 active torsions:
REMARK  status: ('A' for Active; 'I' for Inactive)
REMARK    1  A    between atoms: C_1  and  C_2
REMARK    2  A    between atoms: C_5  and  C_8
REMARK    3  A    between atoms: N_13  and  C_15
REMARK    4  A    between atoms: C_15  and  C_16
REMARK    5  A    between atoms: C_16  and  N_17
REMARK    6  A    between atoms: N_20  and  S_23
REMARK    7  A    between atoms: S_23  and  C_26
REMARK    8  A    between atoms: C_29  and  N_32
REMARK    9  A    between atoms: C_33  and  C_35
REMARK   10  A    between atoms: C_35  and  C_36
REMARK   11  A    between atoms: C_35  and  C_37
REMARK                            x       y       z     vdW  Elec       q    Type
REMARK                         _______ _______ _______ _____ _____    ______ ____
ROOT
ATOM      1  N   UNL     1      -0.824   8.640   4.000  0.00  0.00    +0.383 N 
ATOM      2  C   UNL     1       0.341   8.189   3.228  0.00  0.00    -0.061 C 
ATOM      3  C   UNL     1       0.346   8.886   1.863  0.00  0.00    +0.091 C 
ATOM      4  N   UNL     1      -0.955   8.657   1.216  0.00  0.00    -0.180 NA
ATOM      5  C   UNL     1      -2.175   8.963   1.980  0.00  0.00    +0.091 C 
ATOM      6  C   UNL     1      -2.080   8.257   3.342  0.00  0.00    -0.061 C 
ATOM      7  H   UNL     1      -0.791   9.739   4.045  0.00  0.00    -0.082 HD
ENDROOT
BRANCH   4   8
ATOM      8  S   UNL     1      -1.044   8.076  -0.332  0.00  0.00    +0.061 S 
ATOM      9  O   UNL     1       0.182   8.415  -0.964  0.00  0.00    -0.153 OA
ATOM     10  O   UNL     1      -2.304   8.485  -0.847  0.00  0.00    -0.153 OA
BRANCH   8  11
ATOM     11  C   UNL     1      -1.089   6.318  -0.227  0.00  0.00    +0.106 A 
ATOM     12  C   UNL     1      -2.303   5.663  -0.130  0.00  0.00    +0.030 A 
ATOM     13  C   UNL     1      -2.341   4.285  -0.048  0.00  0.00    +0.025 A 
ATOM     14  C   UNL     1      -1.159   3.557  -0.063  0.00  0.00    +0.034 A 
ATOM     15  C   UNL     1       0.059   4.218  -0.156  0.00  0.00    +0.025 A 
ATOM     16  C   UNL     1       0.090   5.596  -0.243  0.00  0.00    +0.030 A 
BRANCH  14  17
ATOM     17  N   UNL     1      -1.195   2.161   0.019  0.00  0.00    -0.285 N 
ATOM     18  C   UNL     1      -2.198   1.476  -0.564  0.00  0.00    +0.220 C 
ATOM     19  O   UNL     1      -3.117   2.073  -1.085  0.00  0.00    -0.275 OA
ATOM     20  H   UNL     1      -0.403   1.622   0.561  0.00  0.00    +0.155 HD
BRANCH  18  21
ATOM     21  C   UNL     1      -2.182  -0.031  -0.565  0.00  0.00    +0.069 C 
ATOM     22  C   UNL     1      -2.169  -0.541   0.877  0.00  0.00    +0.017 C 
ATOM     23  C   UNL     1      -3.429  -0.554  -1.280  0.00  0.00    +0.017 C 
ENDBRANCH  18  21
ENDBRANCH  14  17
ENDBRANCH   8  11
ENDBRANCH   4   8
BRANCH   1  24
ATOM     24  C   UNL     1      -0.773   8.129   5.376  0.00  0.00    -0.055 C 
BRANCH  24  25
ATOM     25  C   UNL     1      -2.108   8.404   6.072  0.00  0.00    +0.129 C 
BRANCH  25  31
ATOM     26  C   UNL     1      -2.405   6.165   8.880  0.00  0.00    +0.092 A 
ATOM     27  C   UNL     1      -1.968   6.936   9.982  0.00  0.00    +0.035 A 
ATOM     28  C   UNL     1      -1.574   8.221   9.755  0.00  0.00    +0.074 A 
ATOM     29  C   UNL     1      -1.622   8.703   8.428  0.00  0.00    +0.267 A 
ATOM     30  O   UNL     1      -1.275   9.845   8.176  0.00  0.00    -0.266 OA
ATOM     31  N   UNL     1      -2.058   7.894   7.444  0.00  0.00    -0.231 N 
ATOM     32  N   UNL     1      -2.425   6.686   7.676  0.00  0.00    -0.168 NA
BRANCH  26  37
ATOM     33  C   UNL     1      -4.101   0.720   9.679  0.00  0.00    +0.044 C 
ATOM     34  C   UNL     1      -3.658   2.145   9.470  0.00  0.00    -0.050 A 
ATOM     35  C   UNL     1      -3.679   2.694   8.200  0.00  0.00    +0.004 A 
ATOM     36  C   UNL     1      -3.273   3.998   8.003  0.00  0.00    +0.010 A 
ATOM     37  C   UNL     1      -2.842   4.762   9.086  0.00  0.00    +0.002 A 
ATOM     38  C   UNL     1      -2.817   4.202  10.361  0.00  0.00    +0.010 A 
ATOM     39  C   UNL     1      -3.230   2.898  10.548  0.00  0.00    +0.004 A 
ENDBRANCH  26  37
ENDBRANCH  25  31
ENDBRANCH  24  25
ENDBRANCH   1  24
TORSDOF 8
