REMARK  Name = ZINC35354392
REMARK  5 active torsions:
REMARK  status: ('A' for Active; 'I' for Inactive)
REMARK    1  A    between atoms: C_1  and  C_2
REMARK    2  A    between atoms: C_2  and  C_3
REMARK    3  A    between atoms: C_2  and  C_4
REMARK    4  A    between atoms: C_2  and  C_5
REMARK    5  A    between atoms: C_19  and  O_20
REMARK                            x       y       z     vdW  Elec       q    Type
REMARK                         _______ _______ _______ _____ _____    ______ ____
ROOT
ATOM      1  C   UNL     1       0.718  -0.497  -1.256  0.00  0.00    -0.001 C 
ATOM      2  C   UNL     1      -0.002   0.029  -2.504  0.00  0.00    +0.010 C 
ATOM      3  C   UNL     1       0.586  -0.675  -3.722  0.00  0.00    +0.056 C 
ATOM      4  C   UNL     1       2.095  -0.652  -3.702  0.00  0.00    +0.047 A 
ATOM      5  C   UNL     1       2.828  -0.313  -2.579  0.00  0.00    -0.017 A 
ATOM      6  C   UNL     1       4.219  -0.326  -2.629  0.00  0.00    +0.008 A 
ATOM      7  C   UNL     1       5.094   0.157  -1.548  0.00  0.00    +0.027 A 
ATOM      8  C   UNL     1       4.642   0.929  -0.483  0.00  0.00    +0.027 A 
ATOM      9  C   UNL     1       5.513   1.325   0.514  0.00  0.00    +0.019 A 
ATOM     10  C   UNL     1       6.855   0.983   0.448  0.00  0.00    +0.019 A 
ATOM     11  C   UNL     1       7.330   0.254  -0.620  0.00  0.00    +0.048 A 
ATOM     12  C   UNL     1       6.465  -0.155  -1.627  0.00  0.00    +0.140 A 
ATOM     13  O   UNL     1       6.945  -0.841  -2.685  0.00  0.00    -0.424 OA
ATOM     14  C   UNL     1       6.229  -1.013  -3.805  0.00  0.00    +0.296 A 
ATOM     15  C   UNL     1       4.860  -0.790  -3.816  0.00  0.00    +0.105 A 
ATOM     16  C   UNL     1       4.016  -1.029  -4.992  0.00  0.00    +0.139 A 
ATOM     17  N   UNL     1       2.686  -0.968  -4.845  0.00  0.00    -0.234 NA
ATOM     18  N   UNL     1       4.527  -1.294  -6.184  0.00  0.00    -0.383 N 
ATOM     19 BR   UNL     1       4.867   2.337   1.975  0.00  0.00    -0.050 Br
ATOM     20  C   UNL     1       2.146   0.047  -1.284  0.00  0.00    +0.041 C 
ATOM     21  H   UNL     1       5.489  -1.336  -6.301  0.00  0.00    +0.157 HD
ATOM     22  H   UNL     1       3.940  -1.447  -6.940  0.00  0.00    +0.157 HD
ENDROOT
BRANCH   1  24
ATOM     23  C   UNL     1      -0.019   1.526   0.010  0.00  0.00    +0.011 C 
ATOM     24  C   UNL     1       0.002  -0.004   0.002  0.00  0.00    -0.035 C 
ATOM     25  C   UNL     1       0.742  -0.511   1.242  0.00  0.00    +0.011 C 
ATOM     26  C   UNL     1      -1.433  -0.534   0.013  0.00  0.00    +0.011 C 
ENDBRANCH   1  24
BRANCH  14  27
ATOM     27  O   UNL     1       6.877  -1.410  -4.915  0.00  0.00    -0.479 OA
ATOM     28  H   UNL     1       7.828  -1.536  -4.791  0.00  0.00    +0.295 HD
ENDBRANCH  14  27
TORSDOF 2
