REMARK  Name = ZINC35385462
REMARK  13 active torsions:
REMARK  status: ('A' for Active; 'I' for Inactive)
REMARK    1  A    between atoms: C_1  and  O_2
REMARK    2  A    between atoms: O_2  and  C_3
REMARK    3  A    between atoms: C_3  and  C_5
REMARK    4  A    between atoms: C_8  and  C_11
REMARK    5  A    between atoms: C_11  and  C_13
REMARK    6  A    between atoms: C_11  and  N_27
REMARK    7  A    between atoms: C_13  and  C_15
REMARK    8  A    between atoms: C_13  and  C_24
REMARK    9  A    between atoms: C_15  and  N_16
REMARK   10  A    between atoms: N_16  and  C_17
REMARK   11  A    between atoms: C_17  and  C_18
REMARK   12  A    between atoms: N_27  and  C_28
REMARK   13  A    between atoms: C_28  and  C_29
REMARK                            x       y       z     vdW  Elec       q    Type
REMARK                         _______ _______ _______ _____ _____    ______ ____
ROOT
ATOM      1  C   UNL     1       0.849  -6.238  -1.244  0.00  0.00    -0.028 C 
ENDROOT
BRANCH   1   5
ATOM      2  C   UNL     1       1.477  -2.057  -0.602  0.00  0.00    +0.059 A 
ATOM      3  C   UNL     1       0.852  -2.831   0.379  0.00  0.00    +0.015 A 
ATOM      4  C   UNL     1       0.653  -4.179   0.165  0.00  0.00    +0.003 A 
ATOM      5  C   UNL     1       1.070  -4.765  -1.018  0.00  0.00    -0.061 A 
ATOM      6  C   UNL     1       1.690  -4.004  -1.993  0.00  0.00    +0.003 A 
ATOM      7  C   UNL     1       1.890  -2.653  -1.795  0.00  0.00    +0.015 A 
BRANCH   2   8
ATOM      8  C   UNL     1       1.694  -0.613  -0.380  0.00  0.00    +0.339 C 
ATOM      9  O   UNL     1       2.233   0.059  -1.236  0.00  0.00    -0.245 OA
BRANCH   8  11
ATOM     10  C   UNL     1       1.536   1.360   0.919  0.00  0.00    +0.280 C 
ATOM     11  O   UNL     1       1.294  -0.041   0.772  0.00  0.00    -0.464 OA
ENDBRANCH   8  11
ENDBRANCH   2   8
ENDBRANCH   1   5
BRANCH   1  12
ATOM     12  N   UNL     1       0.443  -6.464  -2.637  0.00  0.00    +0.387 N 
ATOM     13  H   UNL     1       1.128  -6.059  -3.257  0.00  0.00    -0.085 HD
ATOM     14  H   UNL     1       0.376  -7.456  -2.812  0.00  0.00    -0.085 HD
BRANCH  12  15
ATOM     15  C   UNL     1      -0.864  -5.836  -2.875  0.00  0.00    -0.046 C 
BRANCH  15  16
ATOM     16  C   UNL     1      -1.227  -5.967  -4.331  0.00  0.00    -0.064 A 
ATOM     17  C   UNL     1      -0.846  -4.987  -5.229  0.00  0.00    +0.002 A 
ATOM     18  C   UNL     1      -1.179  -5.107  -6.566  0.00  0.00    +0.000 A 
ATOM     19  C   UNL     1      -1.892  -6.207  -7.004  0.00  0.00    +0.000 A 
ATOM     20  C   UNL     1      -2.272  -7.187  -6.106  0.00  0.00    +0.000 A 
ATOM     21  C   UNL     1      -1.936  -7.069  -4.771  0.00  0.00    +0.002 A 
ENDBRANCH  15  16
ENDBRANCH  12  15
ENDBRANCH   1  12
BRANCH   1  22
ATOM     22  C   UNL     1       2.146  -6.998  -0.961  0.00  0.00    +0.075 C 
BRANCH  22  23
ATOM     23  C   UNL     1       1.888  -8.481  -1.042  0.00  0.00    +0.356 C 
ATOM     24  O   UNL     1       2.778  -9.236  -1.393  0.00  0.00    -0.246 OA
ATOM     25  O   UNL     1       0.789  -8.924  -0.756  0.00  0.00    -0.246 OA
ENDBRANCH  22  23
BRANCH  22  26
ATOM     26  C   UNL     1       3.202  -6.607  -1.997  0.00  0.00    -0.069 C 
BRANCH  26  27
ATOM     27  N   UNL     1       4.491  -7.212  -1.634  0.00  0.00    +0.382 N 
ATOM     28  H   UNL     1       4.774  -6.881  -0.724  0.00  0.00    -0.085 HD
ATOM     29  H   UNL     1       4.397  -8.217  -1.612  0.00  0.00    -0.085 HD
BRANCH  27  30
ATOM     30  C   UNL     1       5.505  -6.837  -2.628  0.00  0.00    -0.047 C 
BRANCH  30  31
ATOM     31  C   UNL     1       6.827  -7.458  -2.257  0.00  0.00    -0.064 A 
ATOM     32  C   UNL     1       7.705  -6.774  -1.436  0.00  0.00    +0.002 A 
ATOM     33  C   UNL     1       8.918  -7.344  -1.095  0.00  0.00    +0.000 A 
ATOM     34  C   UNL     1       9.252  -8.596  -1.574  0.00  0.00    +0.000 A 
ATOM     35  C   UNL     1       8.374  -9.280  -2.394  0.00  0.00    +0.000 A 
ATOM     36  C   UNL     1       7.159  -8.713  -2.732  0.00  0.00    +0.002 A 
ENDBRANCH  30  31
ENDBRANCH  27  30
ENDBRANCH  26  27
ENDBRANCH  22  26
ENDBRANCH   1  22
TORSDOF 12
