REMARK  Name = ZINC43769774
REMARK  7 active torsions:
REMARK  status: ('A' for Active; 'I' for Inactive)
REMARK    1  A    between atoms: C_1  and  C_2
REMARK    2  A    between atoms: C_17  and  C_38
REMARK    3  A    between atoms: C_25  and  C_27
REMARK    4  A    between atoms: C_25  and  C_28
REMARK    5  A    between atoms: C_29  and  C_31
REMARK    6  A    between atoms: C_31  and  S_32
REMARK    7  A    between atoms: S_32  and  C_33
REMARK                            x       y       z     vdW  Elec       q    Type
REMARK                         _______ _______ _______ _____ _____    ______ ____
ROOT
ATOM      1  C   UNL     1      -0.133   1.650  -0.244  0.00  0.00    +0.012 C 
ATOM      2  C   UNL     1      -0.062   0.121  -0.233  0.00  0.00    -0.026 C 
ATOM      3  C   UNL     1       0.621  -0.359  -1.507  0.00  0.00    +0.007 C 
ATOM      4  C   UNL     1       2.037   0.226  -1.573  0.00  0.00    +0.001 C 
ATOM      5  C   UNL     1       2.847  -0.142  -0.332  0.00  0.00    +0.000 C 
ATOM      6  C   UNL     1       2.126   0.303   0.947  0.00  0.00    +0.004 C 
ATOM      7  C   UNL     1       0.757  -0.362   0.966  0.00  0.00    -0.005 C 
ATOM      8  C   UNL     1      -0.010  -0.161   2.261  0.00  0.00    +0.004 C 
ATOM      9  C   UNL     1      -1.189  -1.145   2.285  0.00  0.00    +0.004 C 
ATOM     10  C   UNL     1      -1.524  -1.579   0.862  0.00  0.00    -0.004 C 
ATOM     11  C   UNL     1      -1.497  -0.387  -0.085  0.00  0.00    -0.001 C 
ATOM     12  C   UNL     1      -2.135  -0.686  -1.427  0.00  0.00    +0.005 C 
ATOM     13  C   UNL     1      -3.561  -1.238  -1.323  0.00  0.00    +0.010 C 
ATOM     14  C   UNL     1      -3.939  -1.544   0.104  0.00  0.00    +0.002 C 
ATOM     15  C   UNL     1      -2.799  -2.357   0.758  0.00  0.00    +0.001 C 
ATOM     16  C   UNL     1      -3.454  -2.815   2.072  0.00  0.00    +0.007 C 
ATOM     17  C   UNL     1      -4.846  -3.302   1.563  0.00  0.00    +0.037 C 
ATOM     18  C   UNL     1      -5.136  -2.480   0.294  0.00  0.00    +0.093 C 
ATOM     19  C   UNL     1      -5.377  -3.393  -0.913  0.00  0.00    +0.146 C 
ATOM     20  N   UNL     1      -6.820  -3.714  -0.768  0.00  0.00    -0.270 N 
ATOM     21  C   UNL     1      -7.412  -2.531  -0.120  0.00  0.00    +0.133 C 
ATOM     22  O   UNL     1      -6.353  -1.737   0.439  0.00  0.00    -0.348 OA
ATOM     23  C   UNL     1      -8.373  -2.972   0.986  0.00  0.00    +0.063 C 
ATOM     24  C   UNL     1      -8.176  -1.706  -1.160  0.00  0.00    +0.063 C 
ATOM     25  C   UNL     1      -7.449  -4.840  -1.147  0.00  0.00    +0.228 C 
ATOM     26  O   UNL     1      -8.642  -4.960  -0.963  0.00  0.00    -0.275 OA
ATOM     27  C   UNL     1      -4.279  -0.268   0.874  0.00  0.00    +0.014 C 
ENDROOT
BRANCH  25  28
ATOM     28  C   UNL     1      -6.671  -5.953  -1.801  0.00  0.00    +0.173 C 
BRANCH  28  29
ATOM     29  S   UNL     1      -7.792  -7.325  -2.193  0.00  0.00    -0.083 S 
BRANCH  29  30
ATOM     30  C   UNL     1      -6.746  -8.529  -2.941  0.00  0.00    +0.128 C 
ATOM     31  N   UNL     1      -5.446  -8.342  -3.111  0.00  0.00    -0.366 N 
ATOM     32  C   UNL     1      -4.867  -9.528  -3.760  0.00  0.00    +0.133 C 
ATOM     33  C   UNL     1      -6.078 -10.464  -3.946  0.00  0.00    +0.124 C 
ATOM     34  N   UNL     1      -7.196  -9.697  -3.375  0.00  0.00    -0.324 N 
ATOM     35  H   UNL     1      -8.116  -9.998  -3.326  0.00  0.00    +0.148 HD
ATOM     36  H   UNL     1      -4.954  -7.549  -2.848  0.00  0.00    +0.161 HD
ENDBRANCH  29  30
ENDBRANCH  28  29
ENDBRANCH  25  28
TORSDOF 3
