REMARK  Name = ZINC14200966
REMARK  14 active torsions:
REMARK  status: ('A' for Active; 'I' for Inactive)
REMARK    1  A    between atoms: C_1  and  C_2
REMARK    2  A    between atoms: C_4  and  O_12
REMARK    3  A    between atoms: C_5  and  C_9
REMARK    4  A    between atoms: C_9  and  C_10
REMARK    5  A    between atoms: C_9  and  C_11
REMARK    6  A    between atoms: O_12  and  C_13
REMARK    7  A    between atoms: C_13  and  C_14
REMARK    8  A    between atoms: C_14  and  C_16
REMARK    9  A    between atoms: C_14  and  O_30
REMARK   10  A    between atoms: C_16  and  N_57
REMARK   11  A    between atoms: C_17  and  N_57
REMARK   12  A    between atoms: C_18  and  C_19
REMARK   13  A    between atoms: C_18  and  N_57
REMARK   14  A    between atoms: N_21  and  C_22
REMARK                            x       y       z     vdW  Elec       q    Type
REMARK                         _______ _______ _______ _____ _____    ______ ____
ROOT
ATOM      1  C   UNL     1      -0.563   7.561   7.592  0.00  0.00    -0.043 C 
ENDROOT
BRANCH   1   3
ATOM      2  C   UNL     1      -0.701   9.768   8.579  0.00  0.00    -0.095 C 
ATOM      3  N   UNL     1      -0.507   9.014   7.323  0.00  0.00    +0.385 N 
ATOM      4  H   UNL     1      -1.257   9.260   6.666  0.00  0.00    -0.081 HD
BRANCH   3   5
ATOM      5  C   UNL     1       0.795   9.366   6.719  0.00  0.00    +0.019 C 
BRANCH   5   6
ATOM      6  C   UNL     1       0.745  10.798   6.254  0.00  0.00    +0.201 C 
ATOM      7  O   UNL     1      -0.260  11.456   6.425  0.00  0.00    -0.278 OA
ATOM      8  N   UNL     1       1.815  11.349   5.649  0.00  0.00    -0.285 N 
ATOM      9  H   UNL     1       2.643  10.848   5.577  0.00  0.00    +0.155 HD
BRANCH   8  10
ATOM     10  C   UNL     1       1.734  12.644   5.123  0.00  0.00    +0.070 A 
ATOM     11  C   UNL     1       1.312  12.839   3.814  0.00  0.00    +0.064 A 
ATOM     12  C   UNL     1       1.228  14.120   3.300  0.00  0.00    +0.022 A 
ATOM     13  C   UNL     1       1.573  15.205   4.084  0.00  0.00    +0.003 A 
ATOM     14  C   UNL     1       1.998  15.014   5.386  0.00  0.00    +0.022 A 
ATOM     15  C   UNL     1       2.080  13.737   5.908  0.00  0.00    +0.064 A 
ATOM     16 CL   UNL     1       2.615  13.499   7.542  0.00  0.00    -0.082 Cl
ATOM     17 CL   UNL     1       0.884  11.476   2.827  0.00  0.00    -0.082 Cl
ENDBRANCH   8  10
ENDBRANCH   5   6
ENDBRANCH   3   5
ENDBRANCH   1   3
BRANCH   1  18
ATOM     18  C   UNL     1      -1.989   7.190   8.004  0.00  0.00    +0.135 C 
BRANCH  18  19
ATOM     19  O   UNL     1      -2.878   7.433   6.912  0.00  0.00    -0.390 OA
ATOM     20  H   UNL     1      -2.670   6.925   6.115  0.00  0.00    +0.210 HD
ENDBRANCH  18  19
BRANCH  18  21
ATOM     21  C   UNL     1      -2.041   5.710   8.385  0.00  0.00    +0.258 C 
BRANCH  21  22
ATOM     22  O   UNL     1      -3.343   5.391   8.880  0.00  0.00    -0.489 OA
BRANCH  22  26
ATOM     23  C   UNL     1      -1.650   0.850   9.460  0.00  0.00    +0.045 C 
ATOM     24  C   UNL     1      -2.759   1.865   9.563  0.00  0.00    -0.029 A 
ATOM     25  C   UNL     1      -2.538   3.171   9.170  0.00  0.00    +0.050 A 
ATOM     26  C   UNL     1      -3.558   4.105   9.266  0.00  0.00    +0.124 A 
ATOM     27  C   UNL     1      -4.800   3.726   9.756  0.00  0.00    -0.002 A 
ATOM     28  C   UNL     1      -5.015   2.421  10.153  0.00  0.00    +0.027 A 
ATOM     29  C   UNL     1      -3.997   1.489  10.052  0.00  0.00    +0.044 A 
ATOM     30 CL   UNL     1      -4.272  -0.153  10.545  0.00  0.00    -0.083 Cl
BRANCH  27  31
ATOM     31  C   UNL     1      -5.910   4.739   9.862  0.00  0.00    +0.016 C 
ATOM     32  C   UNL     1      -7.095   4.289   9.005  0.00  0.00    +0.012 C 
ATOM     33  C   UNL     1      -6.354   4.860  11.321  0.00  0.00    +0.012 C 
ENDBRANCH  27  31
ENDBRANCH  22  26
ENDBRANCH  21  22
ENDBRANCH  18  21
ENDBRANCH   1  18
TORSDOF 10
