REMARK  Name = ZINC39228730
REMARK  5 active torsions:
REMARK  status: ('A' for Active; 'I' for Inactive)
REMARK    1  A    between atoms: C_8  and  C_29
REMARK    2  A    between atoms: N_10  and  C_16
REMARK    3  A    between atoms: C_16  and  C_17
REMARK    4  A    between atoms: N_19  and  C_20
REMARK    5  A    between atoms: C_24  and  N_26
REMARK                            x       y       z     vdW  Elec       q    Type
REMARK                         _______ _______ _______ _____ _____    ______ ____
ROOT
ATOM      1  C   UNL     1      -0.183   1.738  -1.554  0.00  0.00    +0.001 A 
ATOM      2  C   UNL     1      -0.101   0.354  -1.480  0.00  0.00    +0.002 A 
ATOM      3  C   UNL     1      -1.223  -0.402  -1.219  0.00  0.00    +0.026 A 
ATOM      4  C   UNL     1      -2.450   0.224  -1.027  0.00  0.00    +0.047 A 
ATOM      5  N   UNL     1      -3.719  -0.244  -0.757  0.00  0.00    -0.359 N 
ATOM      6  C   UNL     1      -4.588   0.802  -0.660  0.00  0.00    +0.011 A 
ATOM      7  H   UNL     1      -3.957  -1.179  -0.653  0.00  0.00    +0.166 HD
ATOM      8  C   UNL     1      -6.071   0.745  -0.372  0.00  0.00    +0.015 C 
ATOM      9  N   UNL     1      -6.514   2.079   0.062  0.00  0.00    +0.394 N 
ATOM     10  C   UNL     1      -6.104   3.095  -0.917  0.00  0.00    -0.072 C 
ATOM     11  C   UNL     1      -4.587   3.314  -0.824  0.00  0.00    +0.019 C 
ATOM     12  C   UNL     1      -3.926   1.960  -0.860  0.00  0.00    -0.022 A 
ATOM     13  C   UNL     1      -2.528   1.629  -1.102  0.00  0.00    +0.003 A 
ATOM     14  C   UNL     1      -1.377   2.374  -1.363  0.00  0.00    +0.010 A 
ATOM     15  H   UNL     1      -6.103   2.293   0.958  0.00  0.00    -0.080 HD
ENDROOT
BRANCH   8  16
ATOM     16  C   UNL     1      -6.814   0.341  -1.619  0.00  0.00    -0.008 A 
ATOM     17  C   UNL     1      -6.224   0.506  -2.859  0.00  0.00    +0.026 A 
ATOM     18  C   UNL     1      -6.902   0.136  -4.005  0.00  0.00    +0.045 A 
ATOM     19  C   UNL     1      -8.174  -0.401  -3.916  0.00  0.00    +0.069 A 
ATOM     20  C   UNL     1      -8.771  -0.569  -2.678  0.00  0.00    +0.168 A 
ATOM     21  C   UNL     1      -8.084  -0.201  -1.523  0.00  0.00    +0.168 A 
ATOM     22  O   UNL     1      -8.874  -0.469  -0.442  0.00  0.00    -0.452 OA
ATOM     23  C   UNL     1     -10.205  -0.628  -0.969  0.00  0.00    +0.466 C 
ATOM     24  O   UNL     1      -9.991  -1.064  -2.321  0.00  0.00    -0.453 OA
ATOM     25 CL   UNL     1      -6.157   0.346  -5.559  0.00  0.00    -0.083 Cl
ENDBRANCH   8  16
BRANCH   9  26
ATOM     26  C   UNL     1      -7.978   2.088   0.188  0.00  0.00    +0.020 C 
BRANCH  26  27
ATOM     27  C   UNL     1      -8.426   3.413   0.749  0.00  0.00    +0.201 C 
ATOM     28  O   UNL     1      -7.606   4.266   1.018  0.00  0.00    -0.278 OA
ATOM     29  N   UNL     1      -9.737   3.650   0.953  0.00  0.00    -0.287 N 
ATOM     30  H   UNL     1     -10.386   2.946   0.801  0.00  0.00    +0.155 HD
BRANCH  29  31
ATOM     31  C   UNL     1     -10.161   4.912   1.384  0.00  0.00    +0.035 A 
ATOM     32  C   UNL     1     -11.366   5.433   0.931  0.00  0.00    +0.023 A 
ATOM     33  C   UNL     1     -11.782   6.679   1.358  0.00  0.00    +0.004 A 
ATOM     34  C   UNL     1     -10.999   7.407   2.236  0.00  0.00    +0.033 A 
ATOM     35  C   UNL     1      -9.799   6.891   2.688  0.00  0.00    +0.128 A 
ATOM     36  C   UNL     1      -9.381   5.643   2.269  0.00  0.00    +0.056 A 
BRANCH  35  37
ATOM     37  N   UNL     1      -8.965   7.675   3.627  0.00  0.00    +0.056 N 
ATOM     38  O   UNL     1      -9.333   8.765   3.998  0.00  0.00    -0.126 OA
ATOM     39  O   UNL     1      -7.915   7.224   4.023  0.00  0.00    -0.126 OA
ENDBRANCH  35  37
ENDBRANCH  29  31
ENDBRANCH  26  27
ENDBRANCH   9  26
TORSDOF 5
