REMARK  Name = ZINC63933675
REMARK  6 active torsions:
REMARK  status: ('A' for Active; 'I' for Inactive)
REMARK    1  A    between atoms: C_1  and  C_2
REMARK    2  A    between atoms: C_4  and  C_34
REMARK    3  A    between atoms: C_6  and  N_8
REMARK    4  A    between atoms: C_9  and  O_33
REMARK    5  A    between atoms: C_12  and  O_32
REMARK    6  A    between atoms: C_13  and  C_17
REMARK                            x       y       z     vdW  Elec       q    Type
REMARK                         _______ _______ _______ _____ _____    ______ ____
ROOT
ATOM      1  N   UNL     1       0.052  -2.797   2.393  0.00  0.00    -0.225 N 
ATOM      2  C   UNL     1      -0.034  -4.250   2.352  0.00  0.00    +0.338 C 
ATOM      3  N   UNL     1       0.457  -4.862   3.575  0.00  0.00    -0.204 NA
ATOM      4  C   UNL     1       0.561  -4.252   4.691  0.00  0.00    +0.200 C 
ATOM      5  C   UNL     1       0.188  -2.810   4.870  0.00  0.00    +0.179 C 
ATOM      6  C   UNL     1       0.150  -2.112   3.539  0.00  0.00    +0.237 C 
ATOM      7  O   UNL     1       0.206  -0.901   3.503  0.00  0.00    -0.274 OA
ENDROOT
BRANCH   5   8
ATOM      8  C   UNL     1      -1.191  -2.722   5.527  0.00  0.00    +0.101 C 
ATOM      9  C   UNL     1      -1.128  -3.312   6.938  0.00  0.00    +0.124 C 
ATOM     10  C   UNL     1      -2.563  -3.343   7.451  0.00  0.00    -0.036 C 
ATOM     11  C   UNL     1      -2.560  -2.702   8.611  0.00  0.00    -0.001 A 
ATOM     12  C   UNL     1      -3.616  -2.478   9.612  0.00  0.00    +0.010 A 
ATOM     13  C   UNL     1      -3.263  -1.749  10.704  0.00  0.00    +0.001 A 
ATOM     14  C   UNL     1      -1.981  -1.226  10.898  0.00  0.00    +0.002 A 
ATOM     15  C   UNL     1      -0.948  -1.387  10.033  0.00  0.00    +0.026 A 
ATOM     16  C   UNL     1      -1.195  -2.142   8.849  0.00  0.00    +0.043 A 
ATOM     17  N   UNL     1      -0.377  -2.471   7.867  0.00  0.00    -0.376 N 
ATOM     18  C   UNL     1      -3.685  -3.936   6.633  0.00  0.00    +0.048 C 
ATOM     19  C   UNL     1      -3.543  -3.346   5.218  0.00  0.00    +0.085 C 
ATOM     20  N   UNL     1      -2.165  -3.497   4.743  0.00  0.00    -0.310 NA
ATOM     21  H   UNL     1      -2.095  -3.278   3.760  0.00  0.00    +0.122 HD
ATOM     22  H   UNL     1       0.550  -2.204   7.769  0.00  0.00    +0.160 HD
ENDBRANCH   5   8
BRANCH   1  28
ATOM     23  C   UNL     1       2.508  -0.606  -1.259  0.00  0.00    +0.044 C 
ATOM     24  C   UNL     1       1.212  -1.014  -0.606  0.00  0.00    -0.048 A 
ATOM     25  C   UNL     1       0.007  -0.687  -1.199  0.00  0.00    +0.006 A 
ATOM     26  C   UNL     1      -1.184  -1.060  -0.603  0.00  0.00    -0.048 A 
ATOM     27  C   UNL     1      -1.172  -1.760   0.588  0.00  0.00    +0.027 A 
ATOM     28  C   UNL     1       0.037  -2.089   1.186  0.00  0.00    +0.041 A 
ATOM     29  C   UNL     1       1.231  -1.718   0.582  0.00  0.00    +0.027 A 
ATOM     30  C   UNL     1      -2.495  -0.702  -1.253  0.00  0.00    +0.044 C 
ENDBRANCH   1  28
BRANCH   4  31
ATOM     31  O   UNL     1       1.028  -4.934   5.758  0.00  0.00    -0.495 OA
ATOM     32  H   UNL     1       1.248  -5.856   5.569  0.00  0.00    +0.293 HD
ENDBRANCH   4  31
BRANCH   2  33
ATOM     33  O   UNL     1       0.741  -4.729   1.251  0.00  0.00    -0.356 OA
ATOM     34  H   UNL     1       0.735  -5.692   1.155  0.00  0.00    +0.214 HD
ENDBRANCH   2  33
TORSDOF 4
