REMARK  Name = ZINC39631396
REMARK  11 active torsions:
REMARK  status: ('A' for Active; 'I' for Inactive)
REMARK    1  A    between atoms: C_1  and  C_2
REMARK    2  A    between atoms: C_2  and  C_4
REMARK    3  A    between atoms: C_2  and  N_11
REMARK    4  A    between atoms: C_4  and  C_5
REMARK    5  A    between atoms: C_5  and  C_6
REMARK    6  A    between atoms: C_6  and  C_7
REMARK    7  A    between atoms: C_7  and  C_8
REMARK    8  A    between atoms: C_7  and  C_9
REMARK    9  A    between atoms: C_7  and  O_10
REMARK   10  A    between atoms: C_12  and  C_14
REMARK   11  A    between atoms: C_25  and  C_27
REMARK                            x       y       z     vdW  Elec       q    Type
REMARK                         _______ _______ _______ _____ _____    ______ ____
ROOT
ATOM      1  C   UNL     1      -2.764  -3.577  -1.883  0.00  0.00    +0.100 C 
ATOM      2  C   UNL     1      -2.115  -4.479  -0.810  0.00  0.00    +0.121 C 
ATOM      3  N   UNL     1      -2.982  -4.325   0.382  0.00  0.00    -0.296 N 
ATOM      4  C   UNL     1      -4.359  -4.285  -0.166  0.00  0.00    +0.115 C 
ATOM      5  C   UNL     1      -4.237  -3.455  -1.459  0.00  0.00    -0.004 C 
ATOM      6  C   UNL     1      -4.588  -1.996  -1.183  0.00  0.00    -0.010 C 
ATOM      7  C   UNL     1      -6.072  -1.893  -0.819  0.00  0.00    -0.082 C 
ATOM      8  N   UNL     1      -6.886  -2.413  -1.924  0.00  0.00    +0.379 N 
ATOM      9  C   UNL     1      -6.609  -3.841  -2.122  0.00  0.00    -0.082 C 
ATOM     10  C   UNL     1      -5.148  -4.026  -2.542  0.00  0.00    -0.010 C 
ATOM     11  C   UNL     1      -2.605  -4.241   1.673  0.00  0.00    +0.247 C 
ATOM     12  O   UNL     1      -3.443  -4.126   2.546  0.00  0.00    -0.270 OA
ATOM     13  H   UNL     1      -7.864  -2.288  -1.707  0.00  0.00    -0.086 HD
ATOM     14  H   UNL     1      -6.665  -1.908  -2.769  0.00  0.00    -0.086 HD
ENDROOT
BRANCH  11  15
ATOM     15  C   UNL     1      -1.170  -4.287   2.028  0.00  0.00    +0.040 A 
ATOM     16  C   UNL     1      -0.327  -3.232   1.678  0.00  0.00    +0.033 A 
ATOM     17  C   UNL     1       1.012  -3.281   2.012  0.00  0.00    +0.043 A 
ATOM     18  C   UNL     1       1.518  -4.375   2.694  0.00  0.00    +0.040 A 
ATOM     19  C   UNL     1       0.687  -5.425   3.043  0.00  0.00    +0.043 A 
ATOM     20  C   UNL     1      -0.655  -5.384   2.720  0.00  0.00    +0.033 A 
ATOM     21 CL   UNL     1       1.331  -6.793   3.897  0.00  0.00    -0.083 Cl
ATOM     22 CL   UNL     1       2.062  -1.970   1.577  0.00  0.00    -0.083 Cl
ENDBRANCH  11  15
BRANCH   1  24
ATOM     23  N   UNL     1      -2.160  -1.456  -3.004  0.00  0.00    -0.312 N 
ATOM     24  C   UNL     1      -2.107  -2.221  -1.895  0.00  0.00    +0.218 C 
ATOM     25  O   UNL     1      -1.530  -1.817  -0.908  0.00  0.00    -0.275 OA
ATOM     26  H   UNL     1      -2.683  -1.745  -3.768  0.00  0.00    +0.149 HD
BRANCH  23  28
ATOM     27  C   UNL     1      -2.269   0.912  -2.400  0.00  0.00    +0.028 C 
ATOM     28  C   UNL     1      -1.429  -0.187  -3.054  0.00  0.00    +0.070 C 
BRANCH  28  29
ATOM     29  C   UNL     1      -1.151   0.183  -4.513  0.00  0.00    +0.022 C 
BRANCH  29  30
ATOM     30  C   UNL     1      -1.337  -1.051  -5.397  0.00  0.00    +0.005 C 
BRANCH  30  31
ATOM     31  C   UNL     1      -0.932  -0.715  -6.834  0.00  0.00    +0.034 C 
BRANCH  31  32
ATOM     32  C   UNL     1      -0.989  -1.982  -7.689  0.00  0.00    +0.061 C 
ATOM     33  C   UNL     1      -2.370  -2.627  -7.556  0.00  0.00    +0.041 C 
ATOM     34  C   UNL     1      -0.734  -1.620  -9.154  0.00  0.00    +0.041 C 
BRANCH  32  35
ATOM     35  O   UNL     1       0.011  -2.901  -7.245  0.00  0.00    -0.389 OA
ATOM     36  H   UNL     1       0.914  -2.559  -7.302  0.00  0.00    +0.210 HD
ENDBRANCH  32  35
ENDBRANCH  31  32
ENDBRANCH  30  31
ENDBRANCH  29  30
ENDBRANCH  28  29
ENDBRANCH  23  28
ENDBRANCH   1  24
TORSDOF 8
