REMARK  Name = ZINC59634738
REMARK  10 active torsions:
REMARK  status: ('A' for Active; 'I' for Inactive)
REMARK    1  A    between atoms: C_1  and  C_2
REMARK    2  A    between atoms: C_2  and  C_4
REMARK    3  A    between atoms: C_2  and  O_23
REMARK    4  A    between atoms: C_4  and  N_5
REMARK    5  A    between atoms: N_5  and  C_6
REMARK    6  A    between atoms: C_6  and  C_7
REMARK    7  A    between atoms: C_7  and  N_8
REMARK    8  A    between atoms: N_8  and  C_9
REMARK    9  A    between atoms: C_9  and  C_10
REMARK   10  A    between atoms: C_13  and  C_15
REMARK                            x       y       z     vdW  Elec       q    Type
REMARK                         _______ _______ _______ _____ _____    ______ ____
ROOT
ATOM      1  C   UNL     1       2.542  -5.931   3.415  0.00  0.00    -0.007 C 
ENDROOT
BRANCH   1   2
ATOM      2  C   UNL     1       3.271  -6.431   4.636  0.00  0.00    +0.089 A 
ATOM      3  C   UNL     1       2.697  -6.801   5.797  0.00  0.00    +0.043 A 
ATOM      4  C   UNL     1       3.735  -7.199   6.663  0.00  0.00    +0.050 A 
ATOM      5  C   UNL     1       4.898  -7.047   5.975  0.00  0.00    +0.136 A 
ATOM      6  O   UNL     1       4.601  -6.585   4.746  0.00  0.00    -0.462 OA
BRANCH   5   7
ATOM      7  C   UNL     1       6.253  -7.343   6.487  0.00  0.00    +0.031 A 
ATOM      8  C   UNL     1       6.660  -6.840   7.724  0.00  0.00    +0.014 A 
ATOM      9  C   UNL     1       7.926  -7.120   8.196  0.00  0.00    +0.016 A 
ATOM     10  C   UNL     1       8.792  -7.898   7.446  0.00  0.00    +0.019 A 
ATOM     11  C   UNL     1       8.395  -8.399   6.218  0.00  0.00    +0.031 A 
ATOM     12  C   UNL     1       7.129  -8.131   5.737  0.00  0.00    +0.030 A 
ATOM     13 BR   UNL     1       6.584  -8.824   4.064  0.00  0.00    -0.050 Br
ATOM     14 BR   UNL     1      10.525  -8.277   8.101  0.00  0.00    -0.050 Br
ENDBRANCH   5   7
ENDBRANCH   1   2
BRANCH   1  15
ATOM     15  N   UNL     1       2.418  -4.469   3.483  0.00  0.00    +0.383 N 
ATOM     16  H   UNL     1       3.337  -4.054   3.519  0.00  0.00    -0.085 HD
ATOM     17  H   UNL     1       1.901  -4.214   4.311  0.00  0.00    -0.085 HD
BRANCH  15  18
ATOM     18  C   UNL     1       1.707  -3.982   2.293  0.00  0.00    -0.102 C 
BRANCH  18  19
ATOM     19  C   UNL     1       1.577  -2.460   2.364  0.00  0.00    -0.102 C 
BRANCH  19  20
ATOM     20  N   UNL     1       0.867  -1.973   1.174  0.00  0.00    +0.379 N 
ATOM     21  H   UNL     1      -0.052  -2.388   1.138  0.00  0.00    -0.086 HD
ATOM     22  H   UNL     1       1.384  -2.228   0.346  0.00  0.00    -0.086 HD
BRANCH  20  23
ATOM     23  C   UNL     1       0.742  -0.511   1.242  0.00  0.00    -0.051 C 
BRANCH  23  25
ATOM     24  C   UNL     1      -0.019   1.526   0.010  0.00  0.00    +0.035 C 
ATOM     25  C   UNL     1       0.002  -0.004   0.002  0.00  0.00    +0.095 C 
BRANCH  25  26
ATOM     26  O   UNL     1      -1.339  -0.499   0.012  0.00  0.00    -0.394 OA
ATOM     27  H   UNL     1      -1.868  -0.216  -0.746  0.00  0.00    +0.210 HD
ENDBRANCH  25  26
ENDBRANCH  23  25
ENDBRANCH  20  23
ENDBRANCH  19  20
ENDBRANCH  18  19
ENDBRANCH  15  18
ENDBRANCH   1  15
TORSDOF 9
