REMARK  Name = ZINC37722366
REMARK  12 active torsions:
REMARK  status: ('A' for Active; 'I' for Inactive)
REMARK    1  A    between atoms: C_1  and  C_2
REMARK    2  A    between atoms: C_2  and  N_3
REMARK    3  A    between atoms: C_4  and  C_6
REMARK    4  A    between atoms: C_6  and  O_7
REMARK    5  A    between atoms: O_7  and  C_8
REMARK    6  A    between atoms: C_9  and  O_20
REMARK    7  A    between atoms: C_11  and  C_15
REMARK    8  A    between atoms: C_15  and  C_16
REMARK    9  A    between atoms: C_16  and  C_18
REMARK   10  A    between atoms: C_16  and  N_19
REMARK   11  A    between atoms: O_20  and  C_21
REMARK   12  A    between atoms: C_21  and  C_22
REMARK                            x       y       z     vdW  Elec       q    Type
REMARK                         _______ _______ _______ _____ _____    ______ ____
ROOT
ATOM      1  C   UNL     1       2.226  -4.357   3.647  0.00  0.00    +0.176 A 
ATOM      2  C   UNL     1       3.585  -4.649   3.571  0.00  0.00    +0.163 A 
ATOM      3  C   UNL     1       4.216  -5.276   4.633  0.00  0.00    +0.053 A 
ATOM      4  C   UNL     1       3.497  -5.609   5.766  0.00  0.00    -0.044 A 
ATOM      5  C   UNL     1       2.148  -5.319   5.843  0.00  0.00    +0.022 A 
ATOM      6  C   UNL     1       1.512  -4.688   4.788  0.00  0.00    +0.063 A 
ATOM      7 BR   UNL     1      -0.332  -4.285   4.899  0.00  0.00    -0.046 Br
ENDROOT
BRANCH   1   8
ATOM      8  O   UNL     1       1.602  -3.742   2.607  0.00  0.00    -0.478 OA
BRANCH   8   9
ATOM      9  C   UNL     1       1.583  -2.313   2.615  0.00  0.00    +0.324 C 
BRANCH   9  11
ATOM     10  N   UNL     1       0.711  -0.489   1.189  0.00  0.00    -0.313 N 
ATOM     11  C   UNL     1       0.854  -1.814   1.394  0.00  0.00    +0.251 C 
ATOM     12  O   UNL     1       0.396  -2.604   0.595  0.00  0.00    -0.272 OA
ATOM     13  H   UNL     1       1.077   0.142   1.827  0.00  0.00    +0.149 HD
BRANCH  10  15
ATOM     14  C   UNL     1      -0.019   1.526   0.010  0.00  0.00    +0.024 C 
ATOM     15  C   UNL     1       0.002  -0.004   0.002  0.00  0.00    +0.101 C 
ENDBRANCH  10  15
ENDBRANCH   9  11
ENDBRANCH   8   9
ENDBRANCH   1   8
BRANCH   4  16
ATOM     16  C   UNL     1       4.186  -6.290   6.920  0.00  0.00    +0.019 C 
BRANCH  16  17
ATOM     17  C   UNL     1       4.729  -5.234   7.886  0.00  0.00    -0.074 C 
ATOM     18  C   UNL     1       5.317  -5.924   9.118  0.00  0.00    -0.014 C 
BRANCH  17  19
ATOM     19  N   UNL     1       5.775  -4.451   7.216  0.00  0.00    +0.380 N 
ATOM     20  H   UNL     1       5.387  -3.996   6.404  0.00  0.00    -0.090 HD
ATOM     21  H   UNL     1       6.133  -3.754   7.853  0.00  0.00    -0.090 HD
ATOM     22  H   UNL     1       6.525  -5.064   6.932  0.00  0.00    -0.090 HD
ENDBRANCH  17  19
ENDBRANCH  16  17
ENDBRANCH   4  16
BRANCH   2  23
ATOM     23  O   UNL     1       4.291  -4.322   2.456  0.00  0.00    -0.489 OA
BRANCH  23  24
ATOM     24  C   UNL     1       5.681  -4.652   2.447  0.00  0.00    +0.226 C 
ATOM     25  C   UNL     1       6.303  -4.210   1.121  0.00  0.00    +0.048 C 
ENDBRANCH  23  24
ENDBRANCH   2  23
TORSDOF 9
