REMARK  Name = ZINC58882077
REMARK  8 active torsions:
REMARK  status: ('A' for Active; 'I' for Inactive)
REMARK    1  A    between atoms: C_1  and  C_2
REMARK    2  A    between atoms: N_5  and  C_8
REMARK    3  A    between atoms: C_8  and  C_10
REMARK    4  A    between atoms: C_8  and  C_23
REMARK    5  A    between atoms: C_10  and  N_11
REMARK    6  A    between atoms: N_14  and  C_15
REMARK    7  A    between atoms: C_23  and  C_24
REMARK    8  A    between atoms: C_23  and  C_25
REMARK                            x       y       z     vdW  Elec       q    Type
REMARK                         _______ _______ _______ _____ _____    ______ ____
ROOT
ATOM      1  N   UNL     1       1.333  -3.700   2.477  0.00  0.00    -0.301 N 
ATOM      2  C   UNL     1       2.177  -3.847   3.518  0.00  0.00    +0.304 C 
ATOM      3  O   UNL     1       1.846  -4.513   4.480  0.00  0.00    -0.253 OA
ATOM      4  N   UNL     1       3.388  -3.256   3.493  0.00  0.00    -0.269 N 
ATOM      5  H   UNL     1       1.597  -3.168   1.710  0.00  0.00    +0.150 HD
ATOM      6  H   UNL     1       3.624  -2.665   2.760  0.00  0.00    +0.156 HD
ENDROOT
BRANCH   4   7
ATOM      7  C   UNL     1       4.305  -3.494   4.522  0.00  0.00    +0.040 A 
ATOM      8  C   UNL     1       5.161  -2.484   4.938  0.00  0.00    +0.061 A 
ATOM      9  C   UNL     1       6.067  -2.722   5.957  0.00  0.00    +0.128 A 
ATOM     10  C   UNL     1       6.120  -3.967   6.561  0.00  0.00    +0.076 A 
ATOM     11  C   UNL     1       5.266  -4.976   6.147  0.00  0.00    +0.128 A 
ATOM     12  C   UNL     1       4.355  -4.740   5.133  0.00  0.00    +0.061 A 
ATOM     13  F   UNL     1       5.320  -6.190   6.738  0.00  0.00    -0.205 F 
ATOM     14  F   UNL     1       6.901  -1.739   6.361  0.00  0.00    -0.205 F 
ENDBRANCH   4   7
BRANCH   1  15
ATOM     15  C   UNL     1       0.017  -4.343   2.505  0.00  0.00    +0.091 C 
BRANCH  15  16
ATOM     16  C   UNL     1      -0.800  -3.885   1.295  0.00  0.00    -0.048 C 
BRANCH  16  21
ATOM     17  C   UNL     1      -1.788   1.460   3.018  0.00  0.00    +0.007 C 
ATOM     18  C   UNL     1      -1.304   0.011   2.945  0.00  0.00    -0.018 C 
ATOM     19  C   UNL     1      -0.425  -0.173   1.704  0.00  0.00    -0.016 C 
ATOM     20  C   UNL     1      -0.010  -1.642   1.594  0.00  0.00    -0.078 C 
ATOM     21  N   UNL     1      -1.206  -2.485   1.479  0.00  0.00    +0.383 N 
ATOM     22  C   UNL     1      -2.017  -2.369   2.696  0.00  0.00    -0.078 C 
ATOM     23  C   UNL     1      -2.510  -0.928   2.849  0.00  0.00    -0.016 C 
ATOM     24  H   UNL     1      -1.750  -2.188   0.683  0.00  0.00    -0.081 HD
ENDBRANCH  16  21
BRANCH  16  25
ATOM     25  C   UNL     1      -2.045  -4.763   1.158  0.00  0.00    -0.029 C 
ATOM     26  C   UNL     1      -2.825  -4.352  -0.092  0.00  0.00    +0.005 C 
ATOM     27  C   UNL     1      -1.624  -6.229   1.037  0.00  0.00    +0.005 C 
ENDBRANCH  16  25
ENDBRANCH  15  16
ENDBRANCH   1  15
TORSDOF 5
