REMARK  Name = ZINC39231307
REMARK  6 active torsions:
REMARK  status: ('A' for Active; 'I' for Inactive)
REMARK    1  A    between atoms: C_1  and  C_2
REMARK    2  A    between atoms: C_5  and  O_39
REMARK    3  A    between atoms: C_7  and  N_8
REMARK    4  A    between atoms: C_9  and  C_11
REMARK    5  A    between atoms: C_13  and  O_38
REMARK    6  A    between atoms: O_39  and  C_40
REMARK                            x       y       z     vdW  Elec       q    Type
REMARK                         _______ _______ _______ _____ _____    ______ ____
ROOT
ATOM      1  C   UNL     1      -0.167   0.059   4.882  0.00  0.00    +0.107 C 
ATOM      2  C   UNL     1      -1.432   0.921   4.871  0.00  0.00    +0.127 C 
ATOM      3  C   UNL     1      -1.554   1.676   6.195  0.00  0.00    +0.032 C 
ATOM      4  C   UNL     1      -1.619   0.678   7.355  0.00  0.00    +0.004 C 
ATOM      5  C   UNL     1      -0.348  -0.170   7.359  0.00  0.00    -0.024 C 
ATOM      6  C   UNL     1      -0.247  -0.938   6.038  0.00  0.00    +0.004 C 
ATOM      7  C   UNL     1       1.001  -1.823   6.062  0.00  0.00    -0.005 C 
ATOM      8  C   UNL     1       0.915  -2.756   7.271  0.00  0.00    -0.020 C 
ATOM      9  C   UNL     1       2.130  -3.647   7.330  0.00  0.00    +0.006 A 
ATOM     10  C   UNL     1       2.770  -3.933   8.489  0.00  0.00    -0.022 A 
ATOM     11  C   UNL     1       3.873  -4.807   8.164  0.00  0.00    +0.003 A 
ATOM     12  C   UNL     1       4.863  -5.418   8.941  0.00  0.00    +0.010 A 
ATOM     13  C   UNL     1       5.773  -6.207   8.281  0.00  0.00    +0.001 A 
ATOM     14  C   UNL     1       5.724  -6.396   6.909  0.00  0.00    +0.002 A 
ATOM     15  C   UNL     1       4.757  -5.802   6.116  0.00  0.00    +0.026 A 
ATOM     16  C   UNL     1       3.819  -4.997   6.758  0.00  0.00    +0.047 A 
ATOM     17  N   UNL     1       2.755  -4.280   6.291  0.00  0.00    -0.359 N 
ATOM     18  H   UNL     1       2.483  -4.227   5.361  0.00  0.00    +0.166 HD
ATOM     19  C   UNL     1       2.337  -3.393   9.829  0.00  0.00    +0.019 C 
ATOM     20  C   UNL     1       0.915  -2.834   9.680  0.00  0.00    -0.073 C 
ATOM     21  N   UNL     1       0.857  -1.960   8.504  0.00  0.00    +0.386 N 
ATOM     22  C   UNL     1      -0.382  -1.167   8.518  0.00  0.00    -0.074 C 
ATOM     23  H   UNL     1       1.644  -1.329   8.524  0.00  0.00    -0.081 HD
ENDROOT
BRANCH   1  25
ATOM     24  N   UNL     1       0.025  -0.012   2.417  0.00  0.00    -0.285 N 
ATOM     25  C   UNL     1      -0.056  -0.690   3.579  0.00  0.00    +0.223 C 
ATOM     26  O   UNL     1      -0.040  -1.903   3.576  0.00  0.00    -0.275 OA
ATOM     27  H   UNL     1       0.079   0.957   2.423  0.00  0.00    +0.155 HD
BRANCH  24  34
ATOM     28  C   UNL     1      -1.265   1.183   0.182  0.00  0.00    +0.045 C 
ATOM     29  C   UNL     1      -0.585  -0.158   0.085  0.00  0.00    -0.029 A 
ATOM     30  C   UNL     1      -0.572  -0.839  -1.117  0.00  0.00    +0.009 A 
ATOM     31  C   UNL     1       0.051  -2.069  -1.210  0.00  0.00    +0.046 A 
ATOM     32  C   UNL     1       0.665  -2.624  -0.095  0.00  0.00    +0.122 A 
ATOM     33  C   UNL     1       0.654  -1.943   1.112  0.00  0.00    +0.069 A 
ATOM     34  C   UNL     1       0.033  -0.705   1.202  0.00  0.00    +0.040 A 
BRANCH  32  35
ATOM     35  O   UNL     1       1.277  -3.834  -0.188  0.00  0.00    -0.495 OA
ATOM     36  C   UNL     1       1.249  -4.479  -1.463  0.00  0.00    +0.277 C 
ENDBRANCH  32  35
ENDBRANCH  24  34
ENDBRANCH   1  25
BRANCH   2  37
ATOM     37  O   UNL     1      -2.576   0.083   4.695  0.00  0.00    -0.391 OA
ATOM     38  H   UNL     1      -3.416   0.562   4.678  0.00  0.00    +0.210 HD
ENDBRANCH   2  37
TORSDOF 4
