REMARK  Name = ZINC37427371
REMARK  14 active torsions:
REMARK  status: ('A' for Active; 'I' for Inactive)
REMARK    1  A    between atoms: C_1  and  C_2
REMARK    2  A    between atoms: C_5  and  N_9
REMARK    3  A    between atoms: C_6  and  C_8
REMARK    4  A    between atoms: C_12  and  C_14
REMARK    5  A    between atoms: C_14  and  C_15
REMARK    6  A    between atoms: C_14  and  C_16
REMARK    7  A    between atoms: C_14  and  C_17
REMARK    8  A    between atoms: C_18  and  C_32
REMARK    9  A    between atoms: N_24  and  C_25
REMARK   10  A    between atoms: C_25  and  C_26
REMARK   11  A    between atoms: N_28  and  C_29
REMARK   12  A    between atoms: C_29  and  C_30
REMARK   13  A    between atoms: C_29  and  C_31
REMARK   14  A    between atoms: C_37  and  C_38
REMARK                            x       y       z     vdW  Elec       q    Type
REMARK                         _______ _______ _______ _____ _____    ______ ____
ROOT
ATOM      1  N   UNL     1       0.620  -3.929   2.022  0.00  0.00    -0.217 N 
ATOM      2  C   UNL     1       1.629  -4.109   1.137  0.00  0.00    +0.136 A 
ATOM      3  C   UNL     1       1.669  -5.420   0.806  0.00  0.00    +0.034 A 
ATOM      4  C   UNL     1       0.650  -6.070   1.503  0.00  0.00    +0.075 A 
ATOM      5  N   UNL     1       0.024  -5.182   2.237  0.00  0.00    -0.169 NA
ATOM      6  C   UNL     1       2.659  -6.036  -0.150  0.00  0.00    +0.112 C 
ATOM      7  S   UNL     1       2.208  -5.545  -1.853  0.00  0.00    -0.138 S 
ATOM      8  C   UNL     1       1.744  -3.795  -1.629  0.00  0.00    +0.166 C 
ATOM      9  C   UNL     1       2.701  -3.106  -0.704  0.00  0.00    +0.231 C 
ATOM     10  O   UNL     1       3.656  -2.511  -1.157  0.00  0.00    -0.274 OA
ATOM     11  N   UNL     1       2.506  -3.144   0.618  0.00  0.00    -0.246 N 
ENDROOT
BRANCH   1  16
ATOM     12  C   UNL     1      -0.907   0.977   4.432  0.00  0.00    +0.044 C 
ATOM     13  C   UNL     1      -0.501  -0.326   3.792  0.00  0.00    -0.050 A 
ATOM     14  C   UNL     1      -0.377  -0.410   2.417  0.00  0.00    +0.005 A 
ATOM     15  C   UNL     1      -0.006  -1.602   1.828  0.00  0.00    +0.028 A 
ATOM     16  C   UNL     1       0.243  -2.717   2.617  0.00  0.00    +0.070 A 
ATOM     17  C   UNL     1       0.118  -2.629   3.997  0.00  0.00    -0.025 A 
ATOM     18  C   UNL     1      -0.249  -1.432   4.581  0.00  0.00    +0.008 A 
ATOM     19  C   UNL     1       0.388  -3.837   4.857  0.00  0.00    +0.046 C 
ENDBRANCH   1  16
BRANCH   6  20
ATOM     20  C   UNL     1       2.616  -7.537  -0.024  0.00  0.00    -0.027 A 
ATOM     21  C   UNL     1       1.847  -8.282  -0.899  0.00  0.00    +0.005 A 
ATOM     22  C   UNL     1       1.808  -9.659  -0.784  0.00  0.00    +0.000 A 
ATOM     23  C   UNL     1       2.538 -10.291   0.206  0.00  0.00    +0.000 A 
ATOM     24  C   UNL     1       3.307  -9.546   1.080  0.00  0.00    +0.003 A 
ATOM     25  C   UNL     1       3.349  -8.169   0.962  0.00  0.00    -0.046 A 
ATOM     26  C   UNL     1       4.192  -7.357   1.912  0.00  0.00    +0.044 C 
ENDBRANCH   6  20
BRANCH   4  27
ATOM     27  C   UNL     1       0.330  -7.541   1.431  0.00  0.00    +0.007 C 
ATOM     28  C   UNL     1       1.506  -8.347   1.985  0.00  0.00    +0.017 C 
ATOM     29  C   UNL     1      -0.923  -7.831   2.261  0.00  0.00    +0.017 C 
ATOM     30  C   UNL     1       0.080  -7.938  -0.025  0.00  0.00    +0.017 C 
ENDBRANCH   4  27
BRANCH  11  31
ATOM     31  C   UNL     1       3.192  -2.201   1.505  0.00  0.00    +0.210 C 
BRANCH  31  32
ATOM     32  C   UNL     1       4.561  -2.732   1.841  0.00  0.00    +0.231 C 
ATOM     33  O   UNL     1       4.928  -3.794   1.385  0.00  0.00    -0.274 OA
ATOM     34  N   UNL     1       5.378  -2.027   2.648  0.00  0.00    -0.312 N 
ATOM     35  H   UNL     1       5.085  -1.177   3.012  0.00  0.00    +0.149 HD
BRANCH  34  36
ATOM     36  C   UNL     1       6.710  -2.543   2.974  0.00  0.00    +0.067 C 
ATOM     37  C   UNL     1       7.695  -2.145   1.873  0.00  0.00    +0.027 C 
ATOM     38  C   UNL     1       7.172  -1.955   4.309  0.00  0.00    +0.027 C 
ENDBRANCH  34  36
ENDBRANCH  31  32
ENDBRANCH  11  31
TORSDOF 6
