REMARK  Name = ZINC66043681
REMARK  10 active torsions:
REMARK  status: ('A' for Active; 'I' for Inactive)
REMARK    1  A    between atoms: C_1  and  N_2
REMARK    2  A    between atoms: N_2  and  C_3
REMARK    3  A    between atoms: N_2  and  C_10
REMARK    4  A    between atoms: C_3  and  C_4
REMARK    5  A    between atoms: C_10  and  C_11
REMARK    6  A    between atoms: N_13  and  N_14
REMARK    7  A    between atoms: N_14  and  C_15
REMARK    8  A    between atoms: C_15  and  N_17
REMARK    9  A    between atoms: N_17  and  C_18
REMARK   10  A    between atoms: C_23  and  C_24
REMARK                            x       y       z     vdW  Elec       q    Type
REMARK                         _______ _______ _______ _____ _____    ______ ____
ROOT
ATOM      1  N   UNL     1       4.411  -0.342  -1.970  0.00  0.00    -0.246 N 
ATOM      2  H   UNL     1       4.796  -0.100  -1.114  0.00  0.00    +0.172 HD
ENDROOT
BRANCH   1   5
ATOM      3  C   UNL     1       2.218   0.018  -1.117  0.00  0.00    +0.213 C 
ATOM      4  O   UNL     1       2.699   0.320  -0.046  0.00  0.00    -0.276 OA
ATOM      5  N   UNL     1       3.020  -0.330  -2.142  0.00  0.00    -0.237 N 
ATOM      6  H   UNL     1       2.635  -0.572  -2.999  0.00  0.00    +0.173 HD
BRANCH   3   7
ATOM      7  C   UNL     1       0.722   0.030  -1.302  0.00  0.00    +0.020 C 
BRANCH   7   9
ATOM      8  C   UNL     1       0.443   1.829   0.260  0.00  0.00    -0.095 C 
ATOM      9  N   UNL     1       0.077   0.440  -0.047  0.00  0.00    +0.386 N 
ATOM     10  H   UNL     1       0.385  -0.162   0.702  0.00  0.00    -0.081 HD
BRANCH   9  11
ATOM     11  C   UNL     1      -1.381   0.338  -0.190  0.00  0.00    -0.043 C 
BRANCH  11  12
ATOM     12  C   UNL     1      -2.038   0.639   1.133  0.00  0.00    -0.064 A 
ATOM     13  C   UNL     1      -2.281  -0.382   2.032  0.00  0.00    +0.002 A 
ATOM     14  C   UNL     1      -2.883  -0.105   3.245  0.00  0.00    +0.000 A 
ATOM     15  C   UNL     1      -3.242   1.193   3.559  0.00  0.00    +0.000 A 
ATOM     16  C   UNL     1      -2.999   2.214   2.659  0.00  0.00    +0.000 A 
ATOM     17  C   UNL     1      -2.392   1.938   1.448  0.00  0.00    +0.002 A 
ENDBRANCH  11  12
ENDBRANCH   9  11
ENDBRANCH   7   9
ENDBRANCH   3   7
ENDBRANCH   1   5
BRANCH   1  18
ATOM     18  C   UNL     1       5.213  -0.689  -2.996  0.00  0.00    +0.151 C 
ATOM     19  S   UNL     1       6.912  -0.704  -2.786  0.00  0.00    -0.017 S 
BRANCH  18  20
ATOM     20  N   UNL     1       4.679  -1.025  -4.186  0.00  0.00    -0.295 N 
ATOM     21  H   UNL     1       3.716  -1.095  -4.284  0.00  0.00    +0.154 HD
BRANCH  20  22
ATOM     22  C   UNL     1       5.512  -1.274  -5.282  0.00  0.00    +0.044 A 
ATOM     23  C   UNL     1       6.577  -0.425  -5.554  0.00  0.00    +0.024 A 
ATOM     24  C   UNL     1       7.397  -0.674  -6.636  0.00  0.00    +0.002 A 
ATOM     25  C   UNL     1       7.160  -1.767  -7.450  0.00  0.00    +0.001 A 
ATOM     26  C   UNL     1       6.100  -2.614  -7.182  0.00  0.00    +0.014 A 
ATOM     27  C   UNL     1       5.279  -2.374  -6.097  0.00  0.00    +0.076 A 
BRANCH  27  28
ATOM     28  C   UNL     1       4.129  -3.302  -5.802  0.00  0.00    +0.419 C 
ATOM     29  F   UNL     1       4.100  -4.327  -6.754  0.00  0.00    -0.166 F 
ATOM     30  F   UNL     1       4.291  -3.855  -4.527  0.00  0.00    -0.166 F 
ATOM     31  F   UNL     1       2.928  -2.586  -5.851  0.00  0.00    -0.166 F 
ENDBRANCH  27  28
ENDBRANCH  20  22
ENDBRANCH  18  20
ENDBRANCH   1  18
TORSDOF 9
