REMARK  Name = ZINC65305894
REMARK  11 active torsions:
REMARK  status: ('A' for Active; 'I' for Inactive)
REMARK    1  A    between atoms: C_1  and  C_2
REMARK    2  A    between atoms: C_2  and  C_3
REMARK    3  A    between atoms: C_3  and  C_5
REMARK    4  A    between atoms: C_3  and  C_6
REMARK    5  A    between atoms: C_6  and  C_8
REMARK    6  A    between atoms: C_6  and  N_20
REMARK    7  A    between atoms: N_10  and  C_11
REMARK    8  A    between atoms: C_21  and  C_23
REMARK    9  A    between atoms: C_26  and  C_29
REMARK   10  A    between atoms: C_29  and  C_30
REMARK   11  A    between atoms: C_29  and  C_31
REMARK                            x       y       z     vdW  Elec       q    Type
REMARK                         _______ _______ _______ _____ _____    ______ ____
ROOT
ATOM      1  C   UNL     1      -1.437  -1.993  -0.108  0.00  0.00    +0.162 C 
ENDROOT
BRANCH   1   2
ATOM      2  C   UNL     1      -0.911  -2.528   1.199  0.00  0.00    +0.236 C 
ATOM      3  O   UNL     1       0.141  -3.130   1.228  0.00  0.00    -0.274 OA
ATOM      4  N   UNL     1      -1.611  -2.338   2.335  0.00  0.00    -0.277 N 
ATOM      5  H   UNL     1      -2.415  -1.795   2.324  0.00  0.00    +0.152 HD
BRANCH   4   6
ATOM      6  C   UNL     1      -1.157  -2.951   3.586  0.00  0.00    +0.269 C 
ATOM      7  N   UNL     1      -1.517  -4.374   3.608  0.00  0.00    -0.348 N 
ATOM      8  C   UNL     1      -2.306  -4.562   4.627  0.00  0.00    +0.061 A 
ATOM      9  C   UNL     1      -2.982  -5.752   5.160  0.00  0.00    +0.027 A 
ATOM     10  C   UNL     1      -3.757  -5.641   6.258  0.00  0.00    +0.002 A 
ATOM     11  C   UNL     1      -3.953  -4.419   6.927  0.00  0.00    +0.002 A 
ATOM     12  C   UNL     1      -3.380  -3.268   6.521  0.00  0.00    +0.027 A 
ATOM     13  C   UNL     1      -2.512  -3.269   5.335  0.00  0.00    +0.061 A 
ATOM     14  N   UNL     1      -1.843  -2.333   4.728  0.00  0.00    -0.348 N 
ATOM     15  H   UNL     1      -1.220  -5.051   2.980  0.00  0.00    +0.163 HD
ATOM     16  H   UNL     1      -1.804  -1.397   4.983  0.00  0.00    +0.163 HD
ENDBRANCH   4   6
ENDBRANCH   1   2
BRANCH   1  17
ATOM     17  N   UNL     1      -0.900  -2.790  -1.214  0.00  0.00    -0.300 N 
ATOM     18  C   UNL     1      -1.568  -2.858  -2.382  0.00  0.00    +0.245 C 
ATOM     19  O   UNL     1      -2.617  -2.259  -2.519  0.00  0.00    -0.270 OA
ATOM     20  H   UNL     1      -0.063  -3.268  -1.105  0.00  0.00    +0.150 HD
BRANCH  18  21
ATOM     21  C   UNL     1      -1.026  -3.663  -3.498  0.00  0.00    +0.037 A 
ATOM     22  C   UNL     1       0.175  -4.357  -3.342  0.00  0.00    +0.013 A 
ATOM     23  C   UNL     1       0.675  -5.107  -4.387  0.00  0.00    +0.004 A 
ATOM     24  C   UNL     1      -0.011  -5.170  -5.587  0.00  0.00    -0.045 A 
ATOM     25  C   UNL     1      -1.202  -4.484  -5.748  0.00  0.00    +0.004 A 
ATOM     26  C   UNL     1      -1.716  -3.736  -4.709  0.00  0.00    +0.013 A 
BRANCH  24  27
ATOM     27  C   UNL     1       0.541  -5.990  -6.724  0.00  0.00    +0.013 C 
ATOM     28  C   UNL     1      -0.465  -7.078  -7.105  0.00  0.00    +0.012 C 
ATOM     29  C   UNL     1       0.794  -5.084  -7.931  0.00  0.00    +0.012 C 
ENDBRANCH  24  27
ENDBRANCH  18  21
ENDBRANCH   1  17
BRANCH   1  30
ATOM     30  C   UNL     1      -1.004  -0.535  -0.273  0.00  0.00    +0.015 C 
ATOM     31  C   UNL     1       0.519  -0.467  -0.406  0.00  0.00    +0.010 C 
BRANCH  30  33
ATOM     32  C   UNL     1      -1.319   1.541  -1.627  0.00  0.00    +0.004 C 
ATOM     33  C   UNL     1      -1.652   0.051  -1.530  0.00  0.00    +0.002 C 
ENDBRANCH  30  33
ENDBRANCH   1  30
TORSDOF 7
