REMARK  Name = ZINC66940141
REMARK  7 active torsions:
REMARK  status: ('A' for Active; 'I' for Inactive)
REMARK    1  A    between atoms: C_3  and  C_16
REMARK    2  A    between atoms: C_5  and  N_7
REMARK    3  A    between atoms: C_8  and  C_10
REMARK    4  A    between atoms: C_16  and  N_17
REMARK    5  A    between atoms: N_17  and  C_18
REMARK    6  A    between atoms: C_18  and  C_20
REMARK    7  A    between atoms: C_18  and  C_27
REMARK                            x       y       z     vdW  Elec       q    Type
REMARK                         _______ _______ _______ _____ _____    ______ ____
ROOT
ATOM      1  C   UNL     1       3.648   2.188  -0.404  0.00  0.00    +0.117 C 
ENDROOT
BRANCH   1   4
ATOM      2  C   UNL     1       0.004   1.379   0.172  0.00  0.00    +0.002 A 
ATOM      3  C   UNL     1       1.178   2.086  -0.013  0.00  0.00    +0.005 A 
ATOM      4  C   UNL     1       2.371   1.414  -0.202  0.00  0.00    -0.032 A 
ATOM      5  C   UNL     1       2.394   0.033  -0.205  0.00  0.00    +0.028 A 
ATOM      6  C   UNL     1       1.217  -0.680  -0.018  0.00  0.00    +0.034 A 
ATOM      7  C   UNL     1       0.020  -0.002   0.170  0.00  0.00    +0.023 A 
BRANCH   6   8
ATOM      8  N   UNL     1       1.237  -2.080  -0.021  0.00  0.00    -0.283 N 
ATOM      9  C   UNL     1       2.311  -2.739   0.458  0.00  0.00    +0.246 C 
ATOM     10  O   UNL     1       3.217  -2.125   0.978  0.00  0.00    -0.273 OA
ATOM     11  H   UNL     1       0.479  -2.575  -0.368  0.00  0.00    +0.155 HD
BRANCH   9  12
ATOM     12  C   UNL     1       2.384  -4.240   0.346  0.00  0.00    +0.204 C 
ATOM     13  C   UNL     1       1.272  -4.884   1.202  0.00  0.00    +0.043 C 
ATOM     14  C   UNL     1       1.996  -6.118   1.808  0.00  0.00    +0.031 C 
ATOM     15  C   UNL     1       3.430  -5.560   1.984  0.00  0.00    +0.161 C 
ATOM     16  O   UNL     1       3.643  -4.704   0.849  0.00  0.00    -0.367 OA
ENDBRANCH   9  12
ENDBRANCH   6   8
ENDBRANCH   1   4
BRANCH   1  17
ATOM     17  N   UNL     1       4.279   2.441   0.898  0.00  0.00    -0.298 NA
ATOM     18  H   UNL     1       3.644   2.919   1.521  0.00  0.00    +0.123 HD
BRANCH  17  19
ATOM     19  C   UNL     1       5.529   3.196   0.740  0.00  0.00    +0.171 C 
BRANCH  19  20
ATOM     20  C   UNL     1       6.433   2.923   1.914  0.00  0.00    -0.021 A 
ATOM     21  C   UNL     1       5.903   2.827   3.187  0.00  0.00    +0.008 A 
ATOM     22  C   UNL     1       6.731   2.576   4.264  0.00  0.00    +0.038 A 
ATOM     23  C   UNL     1       8.093   2.420   4.068  0.00  0.00    +0.123 A 
ATOM     24  C   UNL     1       8.623   2.516   2.793  0.00  0.00    +0.038 A 
ATOM     25  C   UNL     1       7.792   2.762   1.716  0.00  0.00    +0.008 A 
ATOM     26  F   UNL     1       8.903   2.175   5.121  0.00  0.00    -0.205 F 
ENDBRANCH  19  20
BRANCH  19  27
ATOM     27  C   UNL     1       5.221   4.670   0.675  0.00  0.00    +0.232 C 
ATOM     28  O   UNL     1       4.073   5.054   0.754  0.00  0.00    -0.274 OA
ATOM     29  N   UNL     1       6.221   5.562   0.530  0.00  0.00    -0.328 N 
ATOM     30  H   UNL     1       7.139   5.255   0.468  0.00  0.00    +0.145 HD
ATOM     31  H   UNL     1       6.023   6.510   0.489  0.00  0.00    +0.145 HD
ENDBRANCH  19  27
ENDBRANCH  17  19
ENDBRANCH   1  17
TORSDOF 7
