REMARK  Name = ZINC23935731
REMARK  8 active torsions:
REMARK  status: ('A' for Active; 'I' for Inactive)
REMARK    1  A    between atoms: C_1  and  N_2
REMARK    2  A    between atoms: C_8  and  N_13
REMARK    3  A    between atoms: C_9  and  C_10
REMARK    4  A    between atoms: C_14  and  C_16
REMARK    5  A    between atoms: C_16  and  C_17
REMARK    6  A    between atoms: C_17  and  C_18
REMARK    7  A    between atoms: C_18  and  S_19
REMARK    8  A    between atoms: S_19  and  C_20
REMARK                            x       y       z     vdW  Elec       q    Type
REMARK                         _______ _______ _______ _____ _____    ______ ____
ROOT
ATOM      1  C   UNL     1       1.430   3.431  -0.162  0.00  0.00    -0.096 C 
ATOM      2  N   UNL     1       1.377   1.972  -0.001  0.00  0.00    +0.381 N 
ATOM      3  C   UNL     1       2.151   1.297  -1.051  0.00  0.00    -0.074 C 
ATOM      4  C   UNL     1       2.400  -0.164  -0.665  0.00  0.00    +0.018 C 
ATOM      5  C   UNL     1       1.062  -0.791  -0.293  0.00  0.00    -0.027 A 
ATOM      6  C   UNL     1       0.002  -0.004   0.002  0.00  0.00    -0.021 A 
ATOM      7  S   UNL     1      -1.311  -1.132   0.364  0.00  0.00    -0.079 S 
ATOM      8  C   UNL     1      -0.467  -2.628   0.130  0.00  0.00    +0.084 A 
ATOM      9  C   UNL     1       0.812  -2.218  -0.224  0.00  0.00    +0.068 A 
ATOM     10  C   UNL     1      -0.018   1.492   0.010  0.00  0.00    -0.036 C 
ATOM     11  H   UNL     1       1.834   1.727   0.969  0.00  0.00    -0.082 HD
ENDROOT
BRANCH   9  12
ATOM     12  C   UNL     1       1.869  -3.191  -0.517  0.00  0.00    +0.244 C 
ATOM     13  O   UNL     1       2.589  -3.595   0.378  0.00  0.00    -0.270 OA
ATOM     14  N   UNL     1       2.044  -3.638  -1.776  0.00  0.00    -0.325 N 
ATOM     15  H   UNL     1       2.837  -4.368  -1.995  0.00  0.00    +0.145 HD
ATOM     16  H   UNL     1       1.394  -3.273  -2.584  0.00  0.00    +0.145 HD
ENDBRANCH   9  12
BRANCH   8  17
ATOM     17  N   UNL     1      -0.951  -3.920   0.264  0.00  0.00    -0.279 N 
ATOM     18  C   UNL     1      -2.235  -4.125   0.619  0.00  0.00    +0.218 C 
ATOM     19  O   UNL     1      -2.967  -3.180   0.821  0.00  0.00    -0.275 OA
ATOM     20  H   UNL     1      -0.288  -4.778   0.080  0.00  0.00    +0.155 HD
BRANCH  18  21
ATOM     21  C   UNL     1      -2.761  -5.530   0.764  0.00  0.00    +0.097 C 
BRANCH  21  22
ATOM     22  C   UNL     1      -4.235  -5.483   1.172  0.00  0.00    +0.020 C 
BRANCH  22  23
ATOM     23  C   UNL     1      -4.770  -6.909   1.320  0.00  0.00    +0.075 C 
BRANCH  23  24
ATOM     24  S   UNL     1      -6.517  -6.853   1.803  0.00  0.00    -0.125 S 
BRANCH  24  25
ATOM     25  C   UNL     1      -6.979  -8.548   1.931  0.00  0.00    +0.008 A 
ATOM     26  C   UNL     1      -6.048  -9.546   1.667  0.00  0.00    +0.015 A 
ATOM     27  C   UNL     1      -6.411 -10.873   1.774  0.00  0.00    +0.001 A 
ATOM     28  C   UNL     1      -7.704 -11.211   2.132  0.00  0.00    +0.000 A 
ATOM     29  C   UNL     1      -8.635 -10.222   2.389  0.00  0.00    +0.001 A 
ATOM     30  C   UNL     1      -8.277  -8.892   2.290  0.00  0.00    +0.015 A 
ENDBRANCH  24  25
ENDBRANCH  23  24
ENDBRANCH  22  23
ENDBRANCH  21  22
ENDBRANCH  18  21
ENDBRANCH   8  17
TORSDOF 7
