REMARK  Name = ZINC09318316
REMARK  10 active torsions:
REMARK  status: ('A' for Active; 'I' for Inactive)
REMARK    1  A    between atoms: C_1  and  C_2
REMARK    2  A    between atoms: C_5  and  C_27
REMARK    3  A    between atoms: C_6  and  O_8
REMARK    4  A    between atoms: O_8  and  C_9
REMARK    5  A    between atoms: C_9  and  C_10
REMARK    6  A    between atoms: C_15  and  C_18
REMARK    7  A    between atoms: C_21  and  O_25
REMARK    8  A    between atoms: O_25  and  C_26
REMARK    9  A    between atoms: C_27  and  C_28
REMARK   10  A    between atoms: C_27  and  C_29
REMARK                            x       y       z     vdW  Elec       q    Type
REMARK                         _______ _______ _______ _____ _____    ______ ____
ROOT
ATOM      1  C   UNL     1      -0.718   1.572   1.248  0.00  0.00    +0.256 C 
ATOM      2  O   UNL     1      -1.714   2.256   1.150  0.00  0.00    -0.272 OA
ATOM      3  N   UNL     1      -0.242   1.246   2.466  0.00  0.00    -0.262 N 
ATOM      4  C   UNL     1      -0.892   1.694   3.609  0.00  0.00    +0.165 A 
ATOM      5  N   UNL     1      -0.589   1.488   4.877  0.00  0.00    -0.225 NA
ATOM      6  C   UNL     1      -1.328   1.996   5.852  0.00  0.00    +0.080 A 
ATOM      7  C   UNL     1      -2.425   2.749   5.539  0.00  0.00    +0.076 A 
ATOM      8  S   UNL     1      -2.356   2.709   3.753  0.00  0.00    -0.060 S 
ATOM      9  H   UNL     1       0.662   0.625   2.555  0.00  0.00    +0.157 HD
ENDROOT
BRANCH   6  10
ATOM     10  C   UNL     1      -0.969   1.750   7.270  0.00  0.00    +0.002 A 
ATOM     11  C   UNL     1       0.151   0.982   7.583  0.00  0.00    +0.013 A 
ATOM     12  C   UNL     1       0.483   0.754   8.903  0.00  0.00    +0.047 A 
ATOM     13  C   UNL     1      -0.296   1.290   9.918  0.00  0.00    +0.134 A 
ATOM     14  C   UNL     1      -1.412   2.057   9.610  0.00  0.00    +0.060 A 
ATOM     15  C   UNL     1      -1.746   2.292   8.292  0.00  0.00    +0.029 A 
ATOM     16 BR   UNL     1      -2.471   2.785  10.997  0.00  0.00    -0.046 Br
BRANCH  13  17
ATOM     17  O   UNL     1       0.034   1.064  11.217  0.00  0.00    -0.494 OA
ATOM     18  C   UNL     1       1.194   0.267  11.463  0.00  0.00    +0.277 C 
ENDBRANCH  13  17
ENDBRANCH   6  10
BRANCH   1  19
ATOM     19  C   UNL     1      -0.013   1.086   0.008  0.00  0.00    +0.325 C 
BRANCH  19  20
ATOM     20  O   UNL     1      -0.704   1.559  -1.150  0.00  0.00    -0.482 OA
BRANCH  20  26
ATOM     21  C   UNL     1       2.705  -0.785  -3.740  0.00  0.00    +0.044 C 
ATOM     22  C   UNL     1       1.464   0.067  -3.661  0.00  0.00    -0.047 A 
ATOM     23  C   UNL     1       0.844   0.492  -4.822  0.00  0.00    +0.004 A 
ATOM     24  C   UNL     1      -0.294   1.274  -4.753  0.00  0.00    +0.008 A 
ATOM     25  C   UNL     1      -0.815   1.633  -3.525  0.00  0.00    -0.003 A 
ATOM     26  C   UNL     1      -0.194   1.208  -2.359  0.00  0.00    +0.125 A 
ATOM     27  C   UNL     1       0.951   0.428  -2.431  0.00  0.00    +0.049 A 
BRANCH  25  28
ATOM     28  C   UNL     1      -2.055   2.484  -3.451  0.00  0.00    +0.016 C 
ATOM     29  C   UNL     1      -1.798   3.822  -4.147  0.00  0.00    +0.012 C 
ATOM     30  C   UNL     1      -3.212   1.762  -4.146  0.00  0.00    +0.012 C 
ENDBRANCH  25  28
ENDBRANCH  20  26
ENDBRANCH  19  20
ENDBRANCH   1  19
TORSDOF 6
