REMARK  Name = ZINC29520786
REMARK  13 active torsions:
REMARK  status: ('A' for Active; 'I' for Inactive)
REMARK    1  A    between atoms: C_1  and  C_2
REMARK    2  A    between atoms: C_2  and  N_3
REMARK    3  A    between atoms: N_3  and  C_4
REMARK    4  A    between atoms: N_3  and  C_18
REMARK    5  A    between atoms: C_4  and  C_5
REMARK    6  A    between atoms: C_5  and  C_6
REMARK    7  A    between atoms: N_8  and  C_9
REMARK    8  A    between atoms: C_12  and  C_15
REMARK    9  A    between atoms: C_18  and  C_19
REMARK   10  A    between atoms: N_21  and  C_22
REMARK   11  A    between atoms: C_22  and  C_24
REMARK   12  A    between atoms: C_22  and  C_31
REMARK   13  A    between atoms: C_27  and  C_30
REMARK                            x       y       z     vdW  Elec       q    Type
REMARK                         _______ _______ _______ _____ _____    ______ ____
ROOT
ATOM      1  N   UNL     1       4.790   1.176  -0.032  0.00  0.00    +0.386 N 
ATOM      2  H   UNL     1       4.736   0.375  -0.785  0.00  0.00    -0.081 HD
ENDROOT
BRANCH   1   4
ATOM      3  C   UNL     1       4.138  -0.695   1.408  0.00  0.00    -0.017 C 
ATOM      4  C   UNL     1       5.019   0.549   1.277  0.00  0.00    -0.082 C 
ENDBRANCH   1   4
BRANCH   1   5
ATOM      5  C   UNL     1       3.513   1.901  -0.053  0.00  0.00    -0.069 C 
BRANCH   5   6
ATOM      6  C   UNL     1       3.186   2.318  -1.488  0.00  0.00    +0.077 C 
BRANCH   6   7
ATOM      7  C   UNL     1       1.935   3.158  -1.495  0.00  0.00    +0.215 C 
ATOM      8  O   UNL     1       1.361   3.399  -0.454  0.00  0.00    -0.276 OA
ATOM      9  N   UNL     1       1.453   3.640  -2.658  0.00  0.00    -0.286 N 
ATOM     10  H   UNL     1       2.006   3.472  -3.594  0.00  0.00    +0.155 HD
BRANCH   9  11
ATOM     11  C   UNL     1       0.255   4.353  -2.674  0.00  0.00    +0.033 A 
ATOM     12  C   UNL     1      -0.075   5.181  -1.606  0.00  0.00    +0.024 A 
ATOM     13  C   UNL     1      -1.255   5.890  -1.621  0.00  0.00    +0.015 A 
ATOM     14  C   UNL     1      -2.127   5.769  -2.706  0.00  0.00    +0.037 A 
ATOM     15  C   UNL     1      -1.796   4.931  -3.775  0.00  0.00    +0.015 A 
ATOM     16  C   UNL     1      -0.612   4.229  -3.756  0.00  0.00    +0.024 A 
BRANCH  14  17
ATOM     17  C   UNL     1      -3.396   6.523  -2.723  0.00  0.00    +0.242 C 
ATOM     18  O   UNL     1      -4.153   6.417  -3.668  0.00  0.00    -0.270 OA
ATOM     19  N   UNL     1      -3.714   7.330  -1.692  0.00  0.00    -0.325 N 
ATOM     20  H   UNL     1      -4.659   7.892  -1.705  0.00  0.00    +0.145 HD
ATOM     21  H   UNL     1      -3.028   7.426  -0.837  0.00  0.00    +0.145 HD
ENDBRANCH  14  17
ENDBRANCH   9  11
ENDBRANCH   6   7
ENDBRANCH   5   6
ENDBRANCH   1   5
BRANCH   1  22
ATOM     22  C   UNL     1       5.904   2.062  -0.394  0.00  0.00    +0.019 C 
BRANCH  22  23
ATOM     23  C   UNL     1       7.151   1.241  -0.602  0.00  0.00    +0.197 C 
ATOM     24  O   UNL     1       7.115   0.037  -0.463  0.00  0.00    -0.278 OA
ATOM     25  N   UNL     1       8.306   1.845  -0.943  0.00  0.00    -0.310 N 
ATOM     26  H   UNL     1       8.339   2.938  -1.069  0.00  0.00    +0.149 HD
BRANCH  25  27
ATOM     27  C   UNL     1       9.519   1.048  -1.145  0.00  0.00    +0.106 C 
BRANCH  27  28
ATOM     28  C   UNL     1      10.455   1.783  -2.069  0.00  0.00    -0.027 A 
ATOM     29  C   UNL     1      10.605   3.152  -1.955  0.00  0.00    +0.006 A 
ATOM     30  C   UNL     1      11.468   3.826  -2.799  0.00  0.00    +0.004 A 
ATOM     31  C   UNL     1      12.173   3.131  -3.764  0.00  0.00    -0.050 A 
ATOM     32  C   UNL     1      12.020   1.763  -3.881  0.00  0.00    +0.004 A 
ATOM     33  C   UNL     1      11.161   1.088  -3.034  0.00  0.00    +0.006 A 
ATOM     34  C   UNL     1      13.109   3.866  -4.688  0.00  0.00    +0.044 C 
ENDBRANCH  27  28
BRANCH  27  35
ATOM     35  C   UNL     1      10.207   0.816   0.201  0.00  0.00    +0.014 C 
ATOM     36  C   UNL     1      10.574  -0.623   0.569  0.00  0.00    +0.006 C 
ATOM     37  C   UNL     1       9.415   0.078   1.282  0.00  0.00    +0.006 C 
ENDBRANCH  27  35
ENDBRANCH  25  27
ENDBRANCH  22  23
ENDBRANCH   1  22
TORSDOF 11
