REMARK  Name = ZINC63537905
REMARK  5 active torsions:
REMARK  status: ('A' for Active; 'I' for Inactive)
REMARK    1  A    between atoms: C_3  and  C_6
REMARK    2  A    between atoms: C_9  and  C_34
REMARK    3  A    between atoms: C_15  and  C_19
REMARK    4  A    between atoms: N_21  and  C_22
REMARK    5  A    between atoms: C_22  and  C_23
REMARK                            x       y       z     vdW  Elec       q    Type
REMARK                         _______ _______ _______ _____ _____    ______ ____
ROOT
ATOM      1  C   UNL     1       3.650   0.566   0.055  0.00  0.00    +0.123 C 
ATOM      2  C   UNL     1       4.081   0.365  -1.397  0.00  0.00    +0.056 C 
ATOM      3  C   UNL     1       5.603   0.164  -1.486  0.00  0.00    +0.180 C 
ATOM      4  N   UNL     1       5.948  -0.942  -0.603  0.00  0.00    -0.213 NA
ATOM      5  C   UNL     1       5.623  -0.560   0.799  0.00  0.00    +0.153 C 
ATOM      6  N   UNL     1       4.168  -0.519   0.912  0.00  0.00    -0.290 NA
ATOM      7  C   UNL     1       6.291  -1.676   1.611  0.00  0.00    +0.123 C 
ATOM      8  C   UNL     1       7.455  -2.144   0.701  0.00  0.00    +0.114 C 
ATOM      9  N   UNL     1       7.348  -1.325  -0.539  0.00  0.00    -0.251 NA
ATOM     10  H   UNL     1       3.883  -0.390   1.871  0.00  0.00    +0.124 HD
ATOM     11  H   UNL     1       7.614  -1.861  -1.351  0.00  0.00    +0.141 HD
ENDROOT
BRANCH   1  14
ATOM     12  C   UNL     1       0.030   1.230   0.247  0.00  0.00    +0.041 A 
ATOM     13  C   UNL     1       1.371   1.677   0.195  0.00  0.00    +0.046 A 
ATOM     14  C   UNL     1       2.145   0.580   0.128  0.00  0.00    +0.122 A 
ATOM     15  O   UNL     1       1.349  -0.502   0.138  0.00  0.00    -0.466 OA
ATOM     16  C   UNL     1       0.066  -0.114   0.210  0.00  0.00    +0.195 A 
ENDBRANCH   1  14
BRANCH   7  17
ATOM     17  C   UNL     1       6.818  -1.138   2.917  0.00  0.00    +0.220 C 
ATOM     18  O   UNL     1       6.679   0.035   3.190  0.00  0.00    -0.275 OA
ATOM     19  N   UNL     1       7.444  -1.962   3.781  0.00  0.00    -0.313 N 
ATOM     20  H   UNL     1       7.555  -2.900   3.563  0.00  0.00    +0.149 HD
BRANCH  19  21
ATOM     21  C   UNL     1       7.957  -1.439   5.050  0.00  0.00    +0.133 C 
BRANCH  21  22
ATOM     22  C   UNL     1       8.617  -2.572   5.838  0.00  0.00    +0.120 C 
ATOM     23  C   UNL     1       9.310  -2.019   7.064  0.00  0.00    +0.009 C 
ATOM     24  C   UNL     1      10.619  -2.328   6.925  0.00  0.00    -0.003 A 
ATOM     25  C   UNL     1      11.795  -2.073   7.766  0.00  0.00    +0.029 A 
ATOM     26  C   UNL     1      13.006  -2.516   7.353  0.00  0.00    +0.042 A 
ATOM     27  C   UNL     1      13.163  -3.211   6.145  0.00  0.00    +0.022 A 
ATOM     28  C   UNL     1      12.130  -3.482   5.320  0.00  0.00    +0.027 A 
ATOM     29  C   UNL     1      10.813  -3.063   5.655  0.00  0.00    +0.043 A 
ATOM     30  N   UNL     1       9.667  -3.204   5.032  0.00  0.00    -0.376 N 
ATOM     31 CL   UNL     1      14.399  -2.216   8.344  0.00  0.00    -0.084 Cl
ATOM     32  H   UNL     1       9.535  -3.651   4.181  0.00  0.00    +0.160 HD
ENDBRANCH  21  22
ENDBRANCH  19  21
ENDBRANCH   7  17
BRANCH   3  33
ATOM     33  C   UNL     1       6.323   1.437  -1.036  0.00  0.00    +0.406 C 
ATOM     34  F   UNL     1       5.843   1.824   0.220  0.00  0.00    -0.169 F 
ATOM     35  F   UNL     1       7.698   1.191  -0.954  0.00  0.00    -0.169 F 
ATOM     36  F   UNL     1       6.087   2.459  -1.961  0.00  0.00    -0.169 F 
ENDBRANCH   3  33
TORSDOF 5
