REMARK  Name = ZINC52287577
REMARK  6 active torsions:
REMARK  status: ('A' for Active; 'I' for Inactive)
REMARK    1  A    between atoms: C_1  and  C_2
REMARK    2  A    between atoms: C_3  and  C_20
REMARK    3  A    between atoms: C_10  and  C_12
REMARK    4  A    between atoms: C_12  and  N_13
REMARK    5  A    between atoms: N_13  and  C_14
REMARK    6  A    between atoms: C_17  and  C_19
REMARK                            x       y       z     vdW  Elec       q    Type
REMARK                         _______ _______ _______ _____ _____    ______ ____
ROOT
ATOM      1  C   UNL     1      -0.018   1.503   0.010  0.00  0.00    +0.045 C 
ATOM      2  C   UNL     1       0.002  -0.004   0.002  0.00  0.00    -0.026 A 
ATOM      3  C   UNL     1       0.006  -0.677  -1.160  0.00  0.00    -0.008 A 
ATOM      4  S   UNL     1       0.032  -2.385  -0.648  0.00  0.00    -0.073 S 
ATOM      5  C   UNL     1       0.037  -2.144   1.110  0.00  0.00    +0.116 A 
ATOM      6  C   UNL     1       0.024  -0.745   1.250  0.00  0.00    +0.075 A 
ATOM      7  C   UNL     1       0.029  -0.257   2.597  0.00  0.00    +0.260 A 
ATOM      8  O   UNL     1       0.014   0.942   2.821  0.00  0.00    -0.267 OA
ATOM      9  N   UNL     1       0.051  -1.142   3.611  0.00  0.00    -0.312 N 
ATOM     10  C   UNL     1       0.068  -2.480   3.380  0.00  0.00    +0.094 A 
ATOM     11  N   UNL     1       0.053  -2.956   2.163  0.00  0.00    -0.229 NA
ATOM     12  C   UNL     1      -0.009  -0.122  -2.561  0.00  0.00    +0.052 C 
ATOM     13  H   UNL     1       0.054  -0.817   4.525  0.00  0.00    +0.170 HD
ENDROOT
BRANCH  10  14
ATOM     14  C   UNL     1       0.092  -3.432   4.547  0.00  0.00    -0.007 C 
BRANCH  14  15
ATOM     15  N   UNL     1       0.107  -4.815   4.051  0.00  0.00    +0.386 N 
ATOM     16  H   UNL     1      -0.720  -4.982   3.497  0.00  0.00    -0.085 HD
ATOM     17  H   UNL     1       0.928  -4.959   3.482  0.00  0.00    -0.085 HD
BRANCH  15  18
ATOM     18  C   UNL     1       0.131  -5.743   5.189  0.00  0.00    -0.068 C 
ATOM     19  C   UNL     1      -1.072  -6.672   5.368  0.00  0.00    -0.014 C 
ATOM     20  C   UNL     1       0.265  -7.236   4.881  0.00  0.00    -0.030 C 
ATOM     21  C   UNL     1       1.071  -8.090   5.862  0.00  0.00    +0.006 C 
ENDBRANCH  15  18
ENDBRANCH  14  15
ENDBRANCH  10  14
TORSDOF 3
