REMARK  Name = ZINC39941803
REMARK  7 active torsions:
REMARK  status: ('A' for Active; 'I' for Inactive)
REMARK    1  A    between atoms: C_1  and  C_2
REMARK    2  A    between atoms: C_5  and  N_8
REMARK    3  A    between atoms: C_9  and  C_11
REMARK    4  A    between atoms: C_16  and  N_17
REMARK    5  A    between atoms: C_18  and  C_20
REMARK    6  A    between atoms: N_22  and  N_23
REMARK    7  A    between atoms: C_24  and  C_25
REMARK                            x       y       z     vdW  Elec       q    Type
REMARK                         _______ _______ _______ _____ _____    ______ ____
ROOT
ATOM      1  N   UNL     1       0.199  -6.416   3.568  0.00  0.00    -0.277 N 
ATOM      2  C   UNL     1       0.116  -7.072   4.742  0.00  0.00    +0.305 C 
ATOM      3  O   UNL     1       0.219  -8.281   4.771  0.00  0.00    -0.265 OA
ATOM      4  H   UNL     1       0.200  -5.446   3.553  0.00  0.00    +0.155 HD
ENDROOT
BRANCH   1  10
ATOM      5  C   UNL     1       0.879  -6.548   1.247  0.00  0.00    +0.058 A 
ATOM      6  C   UNL     1       0.963  -7.278   0.059  0.00  0.00    +0.015 A 
ATOM      7  C   UNL     1       0.460  -8.560   0.002  0.00  0.00    +0.001 A 
ATOM      8  C   UNL     1      -0.132  -9.130   1.118  0.00  0.00    +0.002 A 
ATOM      9  C   UNL     1      -0.222  -8.421   2.299  0.00  0.00    +0.024 A 
ATOM     10  C   UNL     1       0.285  -7.130   2.377  0.00  0.00    +0.046 A 
BRANCH   5  12
ATOM     11  N   UNL     1       1.889  -4.582   0.201  0.00  0.00    -0.281 N 
ATOM     12  C   UNL     1       1.417  -5.177   1.314  0.00  0.00    +0.250 C 
ATOM     13  O   UNL     1       1.434  -4.582   2.375  0.00  0.00    -0.270 OA
ATOM     14  H   UNL     1       1.800  -5.023  -0.659  0.00  0.00    +0.155 HD
BRANCH  11  19
ATOM     15  C   UNL     1       4.395   0.495   0.542  0.00  0.00    +0.044 C 
ATOM     16  C   UNL     1       3.729  -0.854   0.451  0.00  0.00    -0.050 A 
ATOM     17  C   UNL     1       3.124  -1.247  -0.729  0.00  0.00    +0.005 A 
ATOM     18  C   UNL     1       2.513  -2.482  -0.815  0.00  0.00    +0.023 A 
ATOM     19  C   UNL     1       2.507  -3.331   0.285  0.00  0.00    +0.034 A 
ATOM     20  C   UNL     1       3.116  -2.933   1.468  0.00  0.00    +0.023 A 
ATOM     21  C   UNL     1       3.729  -1.698   1.546  0.00  0.00    +0.005 A 
ENDBRANCH  11  19
ENDBRANCH   5  12
ENDBRANCH   1  10
BRANCH   2  22
ATOM     22  C   UNL     1      -0.104  -6.311   6.007  0.00  0.00    +0.318 C 
ATOM     23  O   UNL     1      -0.208  -5.102   5.978  0.00  0.00    -0.263 OA
ATOM     24  N   UNL     1      -0.188  -6.967   7.181  0.00  0.00    -0.199 N 
ATOM     25  H   UNL     1      -0.105  -7.933   7.205  0.00  0.00    +0.178 HD
BRANCH  24  26
ATOM     26  N   UNL     1      -0.394  -6.253   8.369  0.00  0.00    -0.191 NA
ATOM     27  C   UNL     1      -0.473  -6.876   9.485  0.00  0.00    +0.120 C 
BRANCH  27  28
ATOM     28  C   UNL     1      -0.695  -6.108  10.762  0.00  0.00    +0.141 C 
ATOM     29  C   UNL     1      -2.036  -6.529  11.331  0.00  0.00    +0.001 C 
ATOM     30  C   UNL     1      -2.044  -7.051  12.591  0.00  0.00    -0.007 A 
ATOM     31  C   UNL     1      -3.295  -7.483  13.216  0.00  0.00    +0.009 A 
ATOM     32  C   UNL     1      -3.255  -7.998  14.472  0.00  0.00    +0.001 A 
ATOM     33  C   UNL     1      -2.053  -8.119  15.170  0.00  0.00    +0.002 A 
ATOM     34  C   UNL     1      -0.859  -7.737  14.646  0.00  0.00    +0.024 A 
ATOM     35  C   UNL     1      -0.790  -7.191  13.351  0.00  0.00    +0.040 A 
ATOM     36  N   UNL     1       0.387  -6.819  12.846  0.00  0.00    -0.284 N 
ATOM     37  C   UNL     1       0.522  -6.301  11.638  0.00  0.00    +0.229 C 
ATOM     38  O   UNL     1       1.624  -5.982  11.231  0.00  0.00    -0.274 OA
ATOM     39  H   UNL     1       1.181  -6.935  13.391  0.00  0.00    +0.155 HD
ENDBRANCH  27  28
ENDBRANCH  24  26
ENDBRANCH   2  22
TORSDOF 6
