REMARK  Name = ZINC54059889
REMARK  9 active torsions:
REMARK  status: ('A' for Active; 'I' for Inactive)
REMARK    1  A    between atoms: C_1  and  C_2
REMARK    2  A    between atoms: C_2  and  C_3
REMARK    3  A    between atoms: C_6  and  C_9
REMARK    4  A    between atoms: C_9  and  C_11
REMARK    5  A    between atoms: C_9  and  N_24
REMARK    6  A    between atoms: C_11  and  N_12
REMARK    7  A    between atoms: C_13  and  C_15
REMARK    8  A    between atoms: N_24  and  C_25
REMARK    9  A    between atoms: N_24  and  C_26
REMARK                            x       y       z     vdW  Elec       q    Type
REMARK                         _______ _______ _______ _____ _____    ______ ____
ROOT
ATOM      1  C   UNL     1      -6.137  -0.972   0.172  0.00  0.00    +0.094 C 
ENDROOT
BRANCH   1   2
ATOM      2  N   UNL     1      -6.027  -0.323   1.480  0.00  0.00    -0.313 N 
ATOM      3  C   UNL     1      -6.768   0.769   1.756  0.00  0.00    +0.245 C 
ATOM      4  O   UNL     1      -7.529   1.214   0.918  0.00  0.00    -0.270 OA
ATOM      5  H   UNL     1      -5.420  -0.678   2.149  0.00  0.00    +0.149 HD
BRANCH   3   6
ATOM      6  C   UNL     1      -6.657   1.423   3.072  0.00  0.00    +0.054 A 
ATOM      7  C   UNL     1      -5.769   0.912   4.050  0.00  0.00    +0.040 A 
ATOM      8  C   UNL     1      -5.687   1.535   5.257  0.00  0.00    +0.106 A 
ATOM      9  C   UNL     1      -6.484   2.670   5.506  0.00  0.00    +0.267 A 
ATOM     10  O   UNL     1      -6.414   3.232   6.586  0.00  0.00    -0.266 OA
ATOM     11  N   UNL     1      -7.321   3.137   4.563  0.00  0.00    -0.327 N 
ATOM     12  H   UNL     1      -7.863   3.920   4.750  0.00  0.00    +0.168 HD
ATOM     13  C   UNL     1      -7.414   2.540   3.360  0.00  0.00    +0.099 A 
ATOM     14 CL   UNL     1      -4.610   0.936   6.479  0.00  0.00    -0.078 Cl
ENDBRANCH   3   6
ENDBRANCH   1   2
BRANCH   1  15
ATOM     15  C   UNL     1      -5.268  -2.232   0.153  0.00  0.00    -0.021 C 
BRANCH  15  19
ATOM     16  C   UNL     1      -1.160  -1.137   0.569  0.00  0.00    -0.048 A 
ATOM     17  C   UNL     1      -1.867  -1.597   1.664  0.00  0.00    +0.004 A 
ATOM     18  C   UNL     1      -3.196  -1.952   1.530  0.00  0.00    +0.002 A 
ATOM     19  C   UNL     1      -3.819  -1.845   0.300  0.00  0.00    -0.059 A 
ATOM     20  C   UNL     1      -3.112  -1.383  -0.795  0.00  0.00    +0.002 A 
ATOM     21  C   UNL     1      -1.784  -1.025  -0.659  0.00  0.00    +0.004 A 
BRANCH  16  23
ATOM     22  C   UNL     1       0.388   0.730   1.088  0.00  0.00    +0.009 C 
ATOM     23  C   UNL     1       0.289  -0.751   0.716  0.00  0.00    +0.032 C 
ENDBRANCH  16  23
ENDBRANCH  15  19
BRANCH  15  24
ATOM     24  N   UNL     1      -5.459  -2.939  -1.120  0.00  0.00    +0.382 N 
ATOM     25  C   UNL     1      -4.591  -4.124  -1.156  0.00  0.00    -0.096 C 
ATOM     26  C   UNL     1      -6.862  -3.356  -1.242  0.00  0.00    -0.096 C 
ATOM     27  H   UNL     1      -5.223  -2.325  -1.885  0.00  0.00    -0.082 HD
ENDBRANCH  15  24
ENDBRANCH   1  15
TORSDOF 6
