REMARK  Name = ZINC02870095
REMARK  10 active torsions:
REMARK  status: ('A' for Active; 'I' for Inactive)
REMARK    1  A    between atoms: C_1  and  O_2
REMARK    2  A    between atoms: O_2  and  C_3
REMARK    3  A    between atoms: C_8  and  N_9
REMARK    4  A    between atoms: N_9  and  C_10
REMARK    5  A    between atoms: N_9  and  S_27
REMARK    6  A    between atoms: C_10  and  C_11
REMARK    7  A    between atoms: N_13  and  N_14
REMARK    8  A    between atoms: C_15  and  C_16
REMARK    9  A    between atoms: C_25  and  O_26
REMARK   10  A    between atoms: S_27  and  C_30
REMARK                            x       y       z     vdW  Elec       q    Type
REMARK                         _______ _______ _______ _____ _____    ______ ____
ROOT
ATOM      1  C   UNL     1      -1.265  -3.291   0.250  0.00  0.00    +0.229 C 
ENDROOT
BRANCH   1   2
ATOM      2  C   UNL     1      -2.253  -2.236  -0.177  0.00  0.00    +0.251 C 
ATOM      3  O   UNL     1      -1.858  -1.162  -0.579  0.00  0.00    -0.272 OA
ATOM      4  N   UNL     1      -3.576  -2.487  -0.112  0.00  0.00    -0.206 N 
ATOM      5  H   UNL     1      -3.892  -3.346   0.209  0.00  0.00    +0.177 HD
BRANCH   4   6
ATOM      6  N   UNL     1      -4.495  -1.507  -0.509  0.00  0.00    -0.188 NA
ATOM      7  C   UNL     1      -5.770  -1.748  -0.447  0.00  0.00    +0.142 C 
BRANCH   7   8
ATOM      8  C   UNL     1      -6.734  -0.720  -0.864  0.00  0.00    +0.044 A 
ATOM      9  C   UNL     1      -8.172  -0.973  -0.794  0.00  0.00    -0.006 A 
ATOM     10  C   UNL     1      -8.678  -2.193  -0.332  0.00  0.00    +0.009 A 
ATOM     11  C   UNL     1     -10.026  -2.389  -0.282  0.00  0.00    +0.001 A 
ATOM     12  C   UNL     1     -10.909  -1.390  -0.686  0.00  0.00    +0.001 A 
ATOM     13  C   UNL     1     -10.451  -0.191  -1.141  0.00  0.00    +0.008 A 
ATOM     14  C   UNL     1      -9.067   0.045  -1.205  0.00  0.00    -0.017 A 
ATOM     15  C   UNL     1      -8.557   1.271  -1.668  0.00  0.00    +0.012 A 
ATOM     16  C   UNL     1      -7.217   1.490  -1.725  0.00  0.00    +0.046 A 
ATOM     17  C   UNL     1      -6.297   0.520  -1.328  0.00  0.00    +0.126 A 
BRANCH  17  18
ATOM     18  O   UNL     1      -4.967   0.783  -1.398  0.00  0.00    -0.506 OA
ATOM     19  H   UNL     1      -4.562   0.544  -2.243  0.00  0.00    +0.292 HD
ENDBRANCH  17  18
ENDBRANCH   7   8
ENDBRANCH   4   6
ENDBRANCH   1   2
BRANCH   1  20
ATOM     20  N   UNL     1       0.098  -2.778   0.086  0.00  0.00    -0.191 N 
BRANCH  20  26
ATOM     21  C   UNL     1       0.626  -0.619   1.042  0.00  0.00    +0.143 A 
ATOM     22  C   UNL     1       1.202   0.136   2.051  0.00  0.00    +0.047 A 
ATOM     23  C   UNL     1       1.837  -0.490   3.107  0.00  0.00    +0.004 A 
ATOM     24  C   UNL     1       1.899  -1.870   3.162  0.00  0.00    +0.002 A 
ATOM     25  C   UNL     1       1.326  -2.631   2.160  0.00  0.00    +0.028 A 
ATOM     26  C   UNL     1       0.683  -2.010   1.099  0.00  0.00    +0.093 A 
BRANCH  21  28
ATOM     27  C   UNL     1      -0.017   1.425   0.010  0.00  0.00    +0.277 C 
ATOM     28  O   UNL     1       0.002  -0.004   0.002  0.00  0.00    -0.493 OA
ENDBRANCH  21  28
ENDBRANCH  20  26
BRANCH  20  29
ATOM     29  S   UNL     1       0.945  -3.107  -1.298  0.00  0.00    +0.075 S 
ATOM     30  O   UNL     1      -0.017  -3.376  -2.309  0.00  0.00    -0.150 OA
ATOM     31  O   UNL     1       1.922  -2.084  -1.429  0.00  0.00    -0.150 OA
BRANCH  29  32
ATOM     32  C   UNL     1       1.824  -4.610  -1.026  0.00  0.00    +0.109 A 
ATOM     33  C   UNL     1       3.098  -4.579  -0.491  0.00  0.00    +0.029 A 
ATOM     34  C   UNL     1       3.787  -5.758  -0.277  0.00  0.00    +0.002 A 
ATOM     35  C   UNL     1       3.202  -6.968  -0.598  0.00  0.00    +0.000 A 
ATOM     36  C   UNL     1       1.927  -7.000  -1.132  0.00  0.00    +0.002 A 
ATOM     37  C   UNL     1       1.236  -5.821  -1.342  0.00  0.00    +0.029 A 
ENDBRANCH  29  32
ENDBRANCH  20  29
ENDBRANCH   1  20
TORSDOF 9
