REMARK  Name = ZINC41634419
REMARK  12 active torsions:
REMARK  status: ('A' for Active; 'I' for Inactive)
REMARK    1  A    between atoms: C_1  and  C_2
REMARK    2  A    between atoms: C_2  and  C_3
REMARK    3  A    between atoms: C_8  and  O_27
REMARK    4  A    between atoms: C_9  and  C_11
REMARK    5  A    between atoms: C_11  and  C_13
REMARK    6  A    between atoms: C_11  and  N_20
REMARK    7  A    between atoms: N_20  and  C_21
REMARK    8  A    between atoms: N_20  and  C_24
REMARK    9  A    between atoms: C_21  and  C_22
REMARK   10  A    between atoms: C_22  and  O_23
REMARK   11  A    between atoms: C_24  and  C_25
REMARK   12  A    between atoms: C_25  and  O_26
REMARK                            x       y       z     vdW  Elec       q    Type
REMARK                         _______ _______ _______ _____ _____    ______ ____
ROOT
ATOM      1  C   UNL     1       3.149  -2.201   6.714  0.00  0.00    +0.006 C 
ENDROOT
BRANCH   1   8
ATOM      2  C   UNL     1       3.061   0.065   1.199  0.00  0.00    +0.152 A 
ATOM      3  N   UNL     1       4.243  -0.278   1.707  0.00  0.00    -0.205 NA
ATOM      4  C   UNL     1       4.074  -0.752   2.911  0.00  0.00    +0.199 A 
ATOM      5  N   UNL     1       2.750  -0.729   3.229  0.00  0.00    -0.173 N 
ATOM      6  N   UNL     1       2.127  -0.181   2.078  0.00  0.00    -0.147 NA
ATOM      7  C   UNL     1       2.393  -1.197   4.471  0.00  0.00    +0.225 A 
ATOM      8  C   UNL     1       3.321  -1.652   5.321  0.00  0.00    +0.045 A 
ATOM      9  S   UNL     1       4.819  -1.435   4.372  0.00  0.00    -0.050 S 
BRANCH   2  11
ATOM     10  C   UNL     1       2.921   2.177  -0.093  0.00  0.00    +0.012 C 
ATOM     11  C   UNL     1       2.837   0.652  -0.171  0.00  0.00    +0.075 C 
ENDBRANCH   2  11
BRANCH   7  12
ATOM     12  O   UNL     1       1.084  -1.197   4.840  0.00  0.00    -0.492 OA
ATOM     13  H   UNL     1       0.485  -0.852   4.164  0.00  0.00    +0.294 HD
ENDBRANCH   7  12
ENDBRANCH   1   8
BRANCH   1  14
ATOM     14  C   UNL     1       3.460  -3.676   6.714  0.00  0.00    -0.056 A 
ATOM     15  C   UNL     1       4.675  -4.126   6.233  0.00  0.00    +0.004 A 
ATOM     16  C   UNL     1       4.961  -5.478   6.233  0.00  0.00    +0.020 A 
ATOM     17  C   UNL     1       4.030  -6.381   6.715  0.00  0.00    +0.041 A 
ATOM     18  C   UNL     1       2.814  -5.930   7.197  0.00  0.00    +0.020 A 
ATOM     19  C   UNL     1       2.532  -4.577   7.202  0.00  0.00    +0.004 A 
ATOM     20 CL   UNL     1       4.388  -8.080   6.716  0.00  0.00    -0.084 Cl
ENDBRANCH   1  14
BRANCH   1  21
ATOM     21  N   UNL     1       4.063  -1.507   7.630  0.00  0.00    +0.390 N 
ATOM     22  H   UNL     1       5.006  -1.574   7.279  0.00  0.00    -0.080 HD
BRANCH  21  23
ATOM     23  C   UNL     1       3.676  -0.094   7.731  0.00  0.00    -0.049 C 
BRANCH  23  24
ATOM     24  C   UNL     1       4.393   0.709   6.643  0.00  0.00    +0.137 C 
BRANCH  24  25
ATOM     25  O   UNL     1       3.555   0.798   5.488  0.00  0.00    -0.397 OA
ATOM     26  H   UNL     1       3.962   1.260   4.742  0.00  0.00    +0.209 HD
ENDBRANCH  24  25
ENDBRANCH  23  24
ENDBRANCH  21  23
BRANCH  21  27
ATOM     27  C   UNL     1       3.990  -2.130   8.959  0.00  0.00    -0.049 C 
BRANCH  27  28
ATOM     28  C   UNL     1       5.061  -3.218   9.071  0.00  0.00    +0.137 C 
BRANCH  28  29
ATOM     29  O   UNL     1       6.357  -2.621   8.987  0.00  0.00    -0.397 OA
ATOM     30  H   UNL     1       7.086  -3.253   9.051  0.00  0.00    +0.209 HD
ENDBRANCH  28  29
ENDBRANCH  27  28
ENDBRANCH  21  27
ENDBRANCH   1  21
TORSDOF 11
