REMARK  Name = ZINC20497674
REMARK  9 active torsions:
REMARK  status: ('A' for Active; 'I' for Inactive)
REMARK    1  A    between atoms: C_1  and  C_2
REMARK    2  A    between atoms: C_2  and  O_3
REMARK    3  A    between atoms: O_3  and  C_4
REMARK    4  A    between atoms: C_7  and  C_11
REMARK    5  A    between atoms: N_13  and  C_14
REMARK    6  A    between atoms: C_14  and  N_16
REMARK    7  A    between atoms: N_16  and  C_17
REMARK    8  A    between atoms: C_22  and  N_23
REMARK    9  A    between atoms: N_26  and  C_29
REMARK                            x       y       z     vdW  Elec       q    Type
REMARK                         _______ _______ _______ _____ _____    ______ ____
ROOT
ATOM      1  N   UNL     1       3.622  -0.665  -0.036  0.00  0.00    -0.295 N 
ATOM      2  H   UNL     1       4.482  -0.246  -0.578  0.00  0.00    +0.154 HD
ENDROOT
BRANCH   1   3
ATOM      3  C   UNL     1       2.396   0.015  -0.032  0.00  0.00    +0.055 A 
ATOM      4  C   UNL     1       1.220  -0.672  -0.293  0.00  0.00    +0.025 A 
ATOM      5  C   UNL     1       0.012   0.000  -0.289  0.00  0.00    +0.003 A 
ATOM      6  C   UNL     1      -0.029   1.357  -0.026  0.00  0.00    +0.022 A 
ATOM      7  C   UNL     1       1.139   2.050   0.234  0.00  0.00    +0.064 A 
ATOM      8  C   UNL     1       2.357   1.383   0.233  0.00  0.00    +0.070 A 
ATOM      9 CL   UNL     1       1.084   3.754   0.563  0.00  0.00    -0.082 Cl
BRANCH   8  10
ATOM     10  N   UNL     1       3.541   2.082   0.496  0.00  0.00    -0.331 N 
ATOM     11  C   UNL     1       3.542   2.620   1.864  0.00  0.00    +0.086 C 
ATOM     12  C   UNL     1       4.882   3.306   2.139  0.00  0.00    -0.060 C 
ATOM     13  N   UNL     1       5.092   4.377   1.154  0.00  0.00    +0.380 N 
ATOM     14  C   UNL     1       5.091   3.839  -0.213  0.00  0.00    -0.060 C 
ATOM     15  C   UNL     1       3.751   3.152  -0.488  0.00  0.00    +0.086 C 
ATOM     16  C   UNL     1       6.334   5.110   1.431  0.00  0.00    -0.096 C 
ATOM     17  H   UNL     1       4.256   5.087   1.240  0.00  0.00    -0.082 HD
ENDBRANCH   8  10
ENDBRANCH   1   3
BRANCH   1  18
ATOM     18  C   UNL     1       3.747  -1.833   0.626  0.00  0.00    +0.141 C 
ATOM     19  S   UNL     1       2.381  -2.541   1.378  0.00  0.00    -0.018 S 
BRANCH  18  22
ATOM     20  C   UNL     1       5.071  -3.610   1.358  0.00  0.00    +0.250 C 
ATOM     21  O   UNL     1       4.102  -4.113   1.891  0.00  0.00    -0.270 OA
ATOM     22  N   UNL     1       4.946  -2.442   0.696  0.00  0.00    -0.264 N 
ATOM     23  H   UNL     1       5.824  -1.988   0.213  0.00  0.00    +0.157 HD
BRANCH  20  27
ATOM     24  C   UNL     1       8.852  -5.532   1.577  0.00  0.00    +0.134 A 
ATOM     25  C   UNL     1       8.724  -4.328   0.894  0.00  0.00    +0.047 A 
ATOM     26  C   UNL     1       7.499  -3.704   0.816  0.00  0.00    +0.017 A 
ATOM     27  C   UNL     1       6.384  -4.278   1.434  0.00  0.00    +0.038 A 
ATOM     28  C   UNL     1       6.516  -5.488   2.120  0.00  0.00    +0.032 A 
ATOM     29  C   UNL     1       7.744  -6.109   2.188  0.00  0.00    +0.060 A 
ATOM     30 BR   UNL     1       7.924  -7.747   3.115  0.00  0.00    -0.046 Br
BRANCH  24  31
ATOM     31  O   UNL     1      10.060  -6.146   1.647  0.00  0.00    -0.491 OA
BRANCH  31  33
ATOM     32  C   UNL     1      12.424  -6.332   1.182  0.00  0.00    +0.048 C 
ATOM     33  C   UNL     1      11.155  -5.498   0.996  0.00  0.00    +0.226 C 
ENDBRANCH  31  33
ENDBRANCH  24  31
ENDBRANCH  20  27
ENDBRANCH  18  22
ENDBRANCH   1  18
TORSDOF 7
