REMARK  Name = ZINC36546733
REMARK  12 active torsions:
REMARK  status: ('A' for Active; 'I' for Inactive)
REMARK    1  A    between atoms: C_1  and  C_2
REMARK    2  A    between atoms: C_5  and  S_8
REMARK    3  A    between atoms: S_8  and  C_11
REMARK    4  A    between atoms: C_11  and  N_12
REMARK    5  A    between atoms: C_13  and  C_15
REMARK    6  A    between atoms: C_15  and  C_17
REMARK    7  A    between atoms: C_15  and  N_24
REMARK    8  A    between atoms: C_21  and  O_23
REMARK    9  A    between atoms: N_24  and  C_25
REMARK   10  A    between atoms: C_32  and  C_34
REMARK   11  A    between atoms: C_35  and  C_36
REMARK   12  A    between atoms: C_35  and  C_37
REMARK                            x       y       z     vdW  Elec       q    Type
REMARK                         _______ _______ _______ _____ _____    ______ ____
ROOT
ATOM      1  C   UNL     1       3.239  -5.466   3.390  0.00  0.00    +0.198 C 
ENDROOT
BRANCH   1   2
ATOM      2  C   UNL     1       2.413  -4.234   3.656  0.00  0.00    -0.014 A 
ATOM      3  C   UNL     1       3.001  -2.983   3.603  0.00  0.00    +0.006 A 
ATOM      4  C   UNL     1       2.246  -1.851   3.846  0.00  0.00    +0.004 A 
ATOM      5  C   UNL     1       0.901  -1.966   4.144  0.00  0.00    +0.045 A 
ATOM      6  C   UNL     1       0.309  -3.219   4.198  0.00  0.00    +0.117 A 
ATOM      7  C   UNL     1       1.068  -4.354   3.947  0.00  0.00    +0.051 A 
BRANCH   6   8
ATOM      8  O   UNL     1      -1.013  -3.336   4.490  0.00  0.00    -0.507 OA
ATOM      9  H   UNL     1      -1.591  -3.314   3.715  0.00  0.00    +0.292 HD
ENDBRANCH   6   8
ENDBRANCH   1   2
BRANCH   1  11
ATOM     10  N   UNL     1       2.321  -5.806   1.118  0.00  0.00    -0.294 N 
ATOM     11  C   UNL     1       2.557  -6.311   2.345  0.00  0.00    +0.240 C 
ATOM     12  O   UNL     1       2.221  -7.447   2.609  0.00  0.00    -0.273 OA
ATOM     13  H   UNL     1       2.590  -4.899   0.907  0.00  0.00    +0.150 HD
BRANCH  10  14
ATOM     14  C   UNL     1       1.659  -6.628   0.103  0.00  0.00    +0.278 C 
BRANCH  14  15
ATOM     15  S   UNL     1      -0.122  -6.284   0.113  0.00  0.00    +0.013 S 
ATOM     16  O   UNL     1      -0.617  -6.301   1.445  0.00  0.00    -0.168 OA
ATOM     17  O   UNL     1      -0.771  -7.027  -0.910  0.00  0.00    -0.168 OA
BRANCH  15  22
ATOM     18  C   UNL     1      -0.600  -0.527  -1.631  0.00  0.00    +0.044 C 
ATOM     19  C   UNL     1      -0.481  -1.965  -1.196  0.00  0.00    -0.050 A 
ATOM     20  C   UNL     1      -0.500  -2.977  -2.138  0.00  0.00    +0.005 A 
ATOM     21  C   UNL     1      -0.390  -4.295  -1.738  0.00  0.00    +0.027 A 
ATOM     22  C   UNL     1      -0.261  -4.603  -0.396  0.00  0.00    +0.090 A 
ATOM     23  C   UNL     1      -0.241  -3.591   0.545  0.00  0.00    +0.027 A 
ATOM     24  C   UNL     1      -0.346  -2.272   0.146  0.00  0.00    +0.005 A 
ENDBRANCH  15  22
ENDBRANCH  14  15
ENDBRANCH  10  14
ENDBRANCH   1  11
BRANCH   1  25
ATOM     25  N   UNL     1       3.378  -6.237   4.628  0.00  0.00    -0.250 N 
ATOM     26  C   UNL     1       4.600  -6.613   5.053  0.00  0.00    +0.245 C 
ATOM     27  O   UNL     1       5.587  -6.312   4.410  0.00  0.00    -0.270 OA
BRANCH  25  28
ATOM     28  C   UNL     1       2.242  -6.583   5.368  0.00  0.00    +0.056 A 
ATOM     29  C   UNL     1       1.535  -7.738   5.059  0.00  0.00    +0.025 A 
ATOM     30  C   UNL     1       0.415  -8.077   5.791  0.00  0.00    +0.002 A 
ATOM     31  C   UNL     1      -0.004  -7.268   6.832  0.00  0.00    +0.002 A 
ATOM     32  C   UNL     1       0.696  -6.117   7.143  0.00  0.00    +0.022 A 
ATOM     33  C   UNL     1       1.822  -5.775   6.418  0.00  0.00    +0.062 A 
ATOM     34 CL   UNL     1       2.706  -4.334   6.813  0.00  0.00    -0.082 Cl
ENDBRANCH  25  28
BRANCH  26  35
ATOM     35  C   UNL     1       4.740  -7.387   6.296  0.00  0.00    +0.066 C 
ATOM     36  C   UNL     1       5.949  -7.639   6.790  0.00  0.00    -0.071 C 
ATOM     37  C   UNL     1       7.122  -6.787   6.382  0.00  0.00    +0.039 C 
ATOM     38  C   UNL     1       6.145  -8.778   7.757  0.00  0.00    +0.039 C 
ENDBRANCH  26  35
ENDBRANCH   1  25
TORSDOF 9
