REMARK  Name = ZINC64638680
REMARK  3 active torsions:
REMARK  status: ('A' for Active; 'I' for Inactive)
REMARK    1  A    between atoms: C_1  and  C_2
REMARK    2  A    between atoms: C_4  and  C_7
REMARK    3  A    between atoms: N_11  and  C_13
REMARK                            x       y       z     vdW  Elec       q    Type
REMARK                         _______ _______ _______ _____ _____    ______ ____
ROOT
ATOM      1  C   UNL     1       0.069  -3.247  -1.635  0.00  0.00    +0.092 C 
ATOM      2  C   UNL     1       1.332  -4.100  -1.481  0.00  0.00    +0.015 C 
ATOM      3  C   UNL     1       1.270  -5.271  -2.465  0.00  0.00    +0.016 C 
ATOM      4  C   UNL     1       0.002  -6.087  -2.201  0.00  0.00    +0.085 C 
ATOM      5  N   UNL     1      -1.177  -5.227  -2.361  0.00  0.00    -0.295 NA
ATOM      6  C   UNL     1      -1.163  -4.122  -1.394  0.00  0.00    +0.098 C 
ENDROOT
BRANCH   5   7
ATOM      7  C   UNL     1      -2.417  -6.008  -2.251  0.00  0.00    +0.087 C 
ATOM      8  C   UNL     1      -2.564  -6.519  -0.819  0.00  0.00    +0.024 C 
ATOM      9  C   UNL     1      -3.957  -7.141  -0.668  0.00  0.00    +0.006 C 
ATOM     10  C   UNL     1      -4.992  -6.018  -0.715  0.00  0.00    +0.035 C 
ATOM     11  C   UNL     1      -4.771  -5.144  -1.922  0.00  0.00    -0.043 A 
ATOM     12  C   UNL     1      -3.587  -5.136  -2.625  0.00  0.00    -0.027 A 
ATOM     13  C   UNL     1      -3.446  -4.301  -3.725  0.00  0.00    +0.005 A 
ATOM     14  C   UNL     1      -4.484  -3.483  -4.122  0.00  0.00    +0.000 A 
ATOM     15  C   UNL     1      -5.673  -3.493  -3.419  0.00  0.00    +0.000 A 
ATOM     16  C   UNL     1      -5.815  -4.321  -2.324  0.00  0.00    +0.004 A 
ENDBRANCH   5   7
BRANCH   1  20
ATOM     17  C   UNL     1       0.093   1.369   0.311  0.00  0.00    +0.091 C 
ATOM     18  C   UNL     1       0.105  -0.136   0.226  0.00  0.00    +0.169 A 
ATOM     19  N   UNL     1       0.071  -0.851  -0.904  0.00  0.00    -0.196 NA
ATOM     20  C   UNL     1       0.094  -2.125  -0.629  0.00  0.00    +0.232 A 
ATOM     21  O   UNL     1       0.144  -2.266   0.702  0.00  0.00    -0.338 OA
ATOM     22  N   UNL     1       0.155  -0.952   1.239  0.00  0.00    -0.062 NA
ENDBRANCH   1  20
TORSDOF 2
