REMARK  Name = ZINC04788034
REMARK  8 active torsions:
REMARK  status: ('A' for Active; 'I' for Inactive)
REMARK    1  A    between atoms: C_1  and  C_2
REMARK    2  A    between atoms: C_6  and  N_8
REMARK    3  A    between atoms: C_13  and  C_15
REMARK    4  A    between atoms: C_16  and  C_18
REMARK    5  A    between atoms: C_18  and  C_19
REMARK    6  A    between atoms: C_19  and  C_20
REMARK    7  A    between atoms: N_22  and  C_23
REMARK    8  A    between atoms: C_29  and  C_38
REMARK                            x       y       z     vdW  Elec       q    Type
REMARK                         _______ _______ _______ _____ _____    ______ ____
ROOT
ATOM      1  C   UNL     1      -6.262  -3.486  -4.594  0.00  0.00    +0.218 C 
ATOM      2  O   UNL     1      -5.276  -4.103  -4.937  0.00  0.00    -0.275 OA
ATOM      3  N   UNL     1      -7.437  -3.690  -5.223  0.00  0.00    -0.285 N 
ATOM      4  H   UNL     1      -8.208  -3.145  -5.000  0.00  0.00    +0.155 HD
ENDROOT
BRANCH   3   5
ATOM      5  C   UNL     1      -7.544  -4.688  -6.199  0.00  0.00    +0.034 A 
ATOM      6  C   UNL     1      -6.796  -5.864  -6.074  0.00  0.00    +0.025 A 
ATOM      7  C   UNL     1      -6.881  -6.849  -7.007  0.00  0.00    +0.028 A 
ATOM      8  C   UNL     1      -7.729  -6.695  -8.118  0.00  0.00    +0.048 A 
ATOM      9  C   UNL     1      -8.489  -5.507  -8.250  0.00  0.00    +0.003 A 
ATOM     10  C   UNL     1      -8.389  -4.506  -7.272  0.00  0.00    +0.033 A 
ATOM     11  C   UNL     1      -9.338  -5.356  -9.365  0.00  0.00    -0.038 A 
ATOM     12  C   UNL     1      -9.394  -6.367 -10.277  0.00  0.00    +0.045 A 
ATOM     13  C   UNL     1      -8.617  -7.519 -10.090  0.00  0.00    +0.099 A 
ATOM     14  N   UNL     1      -8.684  -8.540 -11.027  0.00  0.00    -0.317 N 
ATOM     15  C   UNL     1     -10.067  -8.997 -11.210  0.00  0.00    +0.106 C 
ATOM     16  C   UNL     1     -10.123 -10.017 -12.349  0.00  0.00    +0.019 C 
ATOM     17  C   UNL     1      -9.215 -11.203 -12.010  0.00  0.00    +0.003 C 
ATOM     18  C   UNL     1      -7.790 -10.694 -11.777  0.00  0.00    +0.019 C 
ATOM     19  C   UNL     1      -7.802  -9.654 -10.654  0.00  0.00    +0.106 C 
ATOM     20  C   UNL     1     -10.164  -4.108  -9.544  0.00  0.00    +0.044 C 
ATOM     21  N   UNL     1      -7.784  -7.719  -9.039  0.00  0.00    -0.343 N 
ATOM     22  H   UNL     1      -7.230  -8.577  -8.935  0.00  0.00    +0.167 HD
ENDBRANCH   3   5
BRANCH   1  23
ATOM     23  C   UNL     1      -6.176  -2.493  -3.464  0.00  0.00    +0.105 C 
BRANCH  23  24
ATOM     24  C   UNL     1      -4.743  -2.454  -2.928  0.00  0.00    +0.105 C 
BRANCH  24  32
ATOM     25  N   UNL     1      -0.990  -0.146  -0.601  0.00  0.00    -0.324 N 
ATOM     26  C   UNL     1      -1.142  -0.986  -1.797  0.00  0.00    +0.124 C 
ATOM     27  C   UNL     1      -2.273  -1.994  -1.569  0.00  0.00    +0.126 C 
ATOM     28  N   UNL     1      -3.482  -1.257  -1.169  0.00  0.00    -0.298 N 
ATOM     29  C   UNL     1      -3.375  -0.292  -0.064  0.00  0.00    +0.130 C 
ATOM     30  C   UNL     1      -2.200   0.649  -0.351  0.00  0.00    +0.088 C 
ATOM     31  C   UNL     1      -1.971   1.562   0.855  0.00  0.00    +0.029 C 
ATOM     32  C   UNL     1      -4.656  -1.461  -1.798  0.00  0.00    +0.216 C 
ATOM     33  O   UNL     1      -5.643  -0.844  -1.455  0.00  0.00    -0.276 OA
BRANCH  25  39
ATOM     34  C   UNL     1       1.449   3.408  -2.960  0.00  0.00    +0.044 C 
ATOM     35  C   UNL     1       1.345   2.407  -1.839  0.00  0.00    -0.049 A 
ATOM     36  C   UNL     1       2.365   2.299  -0.912  0.00  0.00    +0.003 A 
ATOM     37  C   UNL     1       2.274   1.382   0.118  0.00  0.00    +0.002 A 
ATOM     38  C   UNL     1       1.162   0.569   0.225  0.00  0.00    +0.023 A 
ATOM     39  C   UNL     1       0.135   0.674  -0.705  0.00  0.00    +0.030 A 
ATOM     40  C   UNL     1       0.231   1.597  -1.739  0.00  0.00    +0.026 A 
ENDBRANCH  25  39
ENDBRANCH  24  32
ENDBRANCH  23  24
ENDBRANCH   1  23
TORSDOF 5
