REMARK  Name = ZINC40322157
REMARK  10 active torsions:
REMARK  status: ('A' for Active; 'I' for Inactive)
REMARK    1  A    between atoms: C_1  and  C_2
REMARK    2  A    between atoms: C_2  and  O_3
REMARK    3  A    between atoms: O_3  and  C_4
REMARK    4  A    between atoms: C_7  and  C_10
REMARK    5  A    between atoms: C_10  and  C_12
REMARK    6  A    between atoms: C_10  and  N_31
REMARK    7  A    between atoms: C_12  and  N_13
REMARK    8  A    between atoms: C_14  and  C_16
REMARK    9  A    between atoms: C_19  and  S_21
REMARK   10  A    between atoms: S_21  and  C_24
REMARK                            x       y       z     vdW  Elec       q    Type
REMARK                         _______ _______ _______ _____ _____    ______ ____
ROOT
ATOM      1  N   UNL     1      -1.281  -6.240  -2.242  0.00  0.00    -0.310 N 
ATOM      2  C   UNL     1      -2.384  -6.572  -2.943  0.00  0.00    +0.279 C 
ATOM      3  O   UNL     1      -2.281  -6.955  -4.093  0.00  0.00    -0.267 OA
ATOM      4  H   UNL     1      -1.363  -5.935  -1.325  0.00  0.00    +0.149 HD
ENDROOT
BRANCH   2   5
ATOM      5  C   UNL     1      -3.707  -6.471  -2.318  0.00  0.00    +0.192 A 
ATOM      6  C   UNL     1      -4.899  -6.778  -2.910  0.00  0.00    +0.056 A 
ATOM      7  C   UNL     1      -5.898  -6.535  -1.954  0.00  0.00    +0.070 A 
ATOM      8  C   UNL     1      -5.280  -6.096  -0.836  0.00  0.00    +0.246 A 
ATOM      9  O   UNL     1      -3.960  -6.063  -1.057  0.00  0.00    -0.433 OA
BRANCH   8  10
ATOM     10  S   UNL     1      -6.079  -5.645   0.669  0.00  0.00    +0.058 S 
ATOM     11  O   UNL     1      -5.203  -4.752   1.343  0.00  0.00    -0.161 OA
ATOM     12  O   UNL     1      -7.414  -5.293   0.330  0.00  0.00    -0.161 OA
BRANCH  10  13
ATOM     13  C   UNL     1      -6.179  -7.098   1.661  0.00  0.00    +0.097 A 
ATOM     14  C   UNL     1      -7.278  -7.931   1.559  0.00  0.00    +0.029 A 
ATOM     15  C   UNL     1      -7.356  -9.070   2.337  0.00  0.00    +0.022 A 
ATOM     16  C   UNL     1      -6.335  -9.378   3.218  0.00  0.00    +0.041 A 
ATOM     17  C   UNL     1      -5.235  -8.544   3.320  0.00  0.00    +0.022 A 
ATOM     18  C   UNL     1      -5.155  -7.408   2.537  0.00  0.00    +0.029 A 
ATOM     19 CL   UNL     1      -6.433 -10.809   4.196  0.00  0.00    -0.084 Cl
ENDBRANCH  10  13
ENDBRANCH   8  10
ENDBRANCH   2   5
BRANCH   1  20
ATOM     20  C   UNL     1       0.041  -6.341  -2.866  0.00  0.00    +0.094 C 
BRANCH  20  21
ATOM     21  C   UNL     1       1.099  -5.786  -1.911  0.00  0.00    -0.020 C 
BRANCH  21  22
ATOM     22  N   UNL     1       2.432  -5.960  -2.502  0.00  0.00    +0.385 N 
ATOM     23  C   UNL     1       2.700  -7.391  -2.689  0.00  0.00    -0.078 C 
ATOM     24  C   UNL     1       4.054  -7.574  -3.380  0.00  0.00    -0.019 C 
ATOM     25  C   UNL     1       5.152  -6.957  -2.510  0.00  0.00    -0.004 C 
ATOM     26  C   UNL     1       4.823  -5.482  -2.260  0.00  0.00    -0.019 C 
ATOM     27  C   UNL     1       3.442  -5.376  -1.611  0.00  0.00    -0.078 C 
ATOM     28  H   UNL     1       2.465  -5.494  -3.397  0.00  0.00    -0.081 HD
ENDBRANCH  21  22
BRANCH  21  32
ATOM     29  C   UNL     1       0.371  -1.629  -1.237  0.00  0.00    +0.121 A 
ATOM     30  C   UNL     1      -0.035  -2.567  -0.298  0.00  0.00    +0.046 A 
ATOM     31  C   UNL     1       0.201  -3.910  -0.518  0.00  0.00    +0.005 A 
ATOM     32  C   UNL     1       0.842  -4.320  -1.673  0.00  0.00    -0.059 A 
ATOM     33  C   UNL     1       1.248  -3.388  -2.610  0.00  0.00    +0.005 A 
ATOM     34  C   UNL     1       1.008  -2.044  -2.397  0.00  0.00    +0.046 A 
BRANCH  29  35
ATOM     35  O   UNL     1       0.139  -0.308  -1.022  0.00  0.00    -0.492 OA
BRANCH  35  37
ATOM     36  C   UNL     1      -0.695   1.565   0.258  0.00  0.00    +0.048 C 
ATOM     37  C   UNL     1      -0.522   0.046   0.194  0.00  0.00    +0.225 C 
ENDBRANCH  35  37
ENDBRANCH  29  35
ENDBRANCH  21  32
ENDBRANCH  20  21
ENDBRANCH   1  20
TORSDOF 9
