REMARK  Name = ZINC14789111
REMARK  13 active torsions:
REMARK  status: ('A' for Active; 'I' for Inactive)
REMARK    1  A    between atoms: C_1  and  C_2
REMARK    2  A    between atoms: C_4  and  C_33
REMARK    3  A    between atoms: C_5  and  C_9
REMARK    4  A    between atoms: C_6  and  C_8
REMARK    5  A    between atoms: C_15  and  C_17
REMARK    6  A    between atoms: C_17  and  N_18
REMARK    7  A    between atoms: N_18  and  C_19
REMARK    8  A    between atoms: N_18  and  C_20
REMARK    9  A    between atoms: C_20  and  C_21
REMARK   10  A    between atoms: N_23  and  C_24
REMARK   11  A    between atoms: C_25  and  C_32
REMARK   12  A    between atoms: C_27  and  C_31
REMARK   13  A    between atoms: C_29  and  C_30
REMARK                            x       y       z     vdW  Elec       q    Type
REMARK                         _______ _______ _______ _____ _____    ______ ____
ROOT
ATOM      1  C   UNL     1      -5.288  -4.644  -1.848  0.00  0.00    +0.081 A 
ATOM      2  C   UNL     1      -6.214  -4.982  -0.901  0.00  0.00    +0.076 A 
ATOM      3  S   UNL     1      -5.980  -6.753  -0.827  0.00  0.00    -0.060 S 
ATOM      4  C   UNL     1      -4.685  -6.859  -2.054  0.00  0.00    +0.165 A 
ATOM      5  N   UNL     1      -4.551  -5.593  -2.404  0.00  0.00    -0.225 NA
ATOM      6  N   UNL     1      -4.003  -7.977  -2.520  0.00  0.00    -0.266 N 
ATOM      7  C   UNL     1      -4.298  -9.197  -2.031  0.00  0.00    +0.202 C 
ATOM      8  O   UNL     1      -5.158  -9.320  -1.185  0.00  0.00    -0.277 OA
ATOM      9  H   UNL     1      -3.316  -7.878  -3.197  0.00  0.00    +0.157 HD
ENDROOT
BRANCH   1  14
ATOM     10  C   UNL     1      -4.615   0.855  -3.422  0.00  0.00    +0.044 C 
ATOM     11  C   UNL     1      -4.792  -0.584  -3.010  0.00  0.00    -0.050 A 
ATOM     12  C   UNL     1      -4.681  -0.938  -1.677  0.00  0.00    +0.007 A 
ATOM     13  C   UNL     1      -4.841  -2.254  -1.294  0.00  0.00    -0.041 A 
ATOM     14  C   UNL     1      -5.115  -3.228  -2.253  0.00  0.00    +0.007 A 
ATOM     15  C   UNL     1      -5.226  -2.865  -3.595  0.00  0.00    -0.041 A 
ATOM     16  C   UNL     1      -5.069  -1.545  -3.966  0.00  0.00    +0.007 A 
ATOM     17  C   UNL     1      -5.522  -3.912  -4.638  0.00  0.00    +0.044 C 
ATOM     18  C   UNL     1      -4.720  -2.638   0.158  0.00  0.00    +0.044 C 
ENDBRANCH   1  14
BRANCH   7  19
ATOM     19  C   UNL     1      -3.559 -10.410  -2.536  0.00  0.00    +0.019 C 
BRANCH  19  20
ATOM     20  N   UNL     1      -4.061 -11.609  -1.852  0.00  0.00    +0.389 N 
ATOM     21  C   UNL     1      -3.740 -11.527  -0.421  0.00  0.00    -0.095 C 
ATOM     22  H   UNL     1      -5.062 -11.670  -1.970  0.00  0.00    -0.081 HD
BRANCH  20  23
ATOM     23  C   UNL     1      -3.428 -12.803  -2.428  0.00  0.00    +0.019 C 
BRANCH  23  24
ATOM     24  C   UNL     1      -4.031 -14.039  -1.813  0.00  0.00    +0.201 C 
ATOM     25  O   UNL     1      -4.904 -13.935  -0.976  0.00  0.00    -0.278 OA
ATOM     26  N   UNL     1      -3.602 -15.259  -2.191  0.00  0.00    -0.287 N 
ATOM     27  H   UNL     1      -2.954 -15.344  -2.909  0.00  0.00    +0.155 HD
BRANCH  26  28
ATOM     28  C   UNL     1      -4.090 -16.403  -1.550  0.00  0.00    +0.039 A 
ATOM     29  C   UNL     1      -4.049 -16.495  -0.165  0.00  0.00    -0.029 A 
ATOM     30  C   UNL     1      -4.532 -17.625   0.465  0.00  0.00    +0.008 A 
ATOM     31  C   UNL     1      -5.055 -18.664  -0.282  0.00  0.00    -0.050 A 
ATOM     32  C   UNL     1      -5.097 -18.576  -1.661  0.00  0.00    +0.008 A 
ATOM     33  C   UNL     1      -4.622 -17.446  -2.297  0.00  0.00    -0.029 A 
ATOM     34  C   UNL     1      -4.674 -17.347  -3.800  0.00  0.00    +0.045 C 
ATOM     35  C   UNL     1      -5.581 -19.896   0.409  0.00  0.00    +0.044 C 
ATOM     36  C   UNL     1      -3.478 -15.363   0.650  0.00  0.00    +0.045 C 
ENDBRANCH  26  28
ENDBRANCH  23  24
ENDBRANCH  20  23
ENDBRANCH  19  20
ENDBRANCH   7  19
TORSDOF 6
