REMARK  Name = ZINC37543006
REMARK  7 active torsions:
REMARK  status: ('A' for Active; 'I' for Inactive)
REMARK    1  A    between atoms: C_1  and  N_2
REMARK    2  A    between atoms: C_6  and  C_8
REMARK    3  A    between atoms: C_8  and  C_9
REMARK    4  A    between atoms: C_9  and  N_10
REMARK    5  A    between atoms: N_10  and  C_11
REMARK    6  A    between atoms: N_10  and  C_15
REMARK    7  A    between atoms: C_11  and  C_12
REMARK                            x       y       z     vdW  Elec       q    Type
REMARK                         _______ _______ _______ _____ _____    ______ ____
ROOT
ATOM      1  N   UNL     1       2.073  -5.909  -3.383  0.00  0.00    +0.388 N 
ATOM      2  H   UNL     1       1.093  -6.132  -3.467  0.00  0.00    -0.081 HD
ENDROOT
BRANCH   1   3
ATOM      3  C   UNL     1       2.752  -6.193  -4.654  0.00  0.00    -0.066 C 
ATOM      4  C   UNL     1       2.124  -5.350  -5.769  0.00  0.00    -0.000 C 
ATOM      5  C   UNL     1       2.794  -5.695  -7.101  0.00  0.00    +0.079 C 
ATOM      6  N   UNL     1       2.616  -7.125  -7.384  0.00  0.00    -0.316 NA
ATOM      7  C   UNL     1       3.251  -7.954  -6.352  0.00  0.00    +0.079 C 
ATOM      8  C   UNL     1       2.595  -7.677  -4.997  0.00  0.00    -0.000 C 
ATOM      9  H   UNL     1       1.638  -7.355  -7.481  0.00  0.00    +0.122 HD
ENDBRANCH   1   3
BRANCH   1  10
ATOM     10  C   UNL     1       2.224  -4.485  -3.055  0.00  0.00    -0.069 C 
BRANCH  10  11
ATOM     11  C   UNL     1       3.711  -4.134  -2.979  0.00  0.00    +0.078 C 
BRANCH  11  17
ATOM     12  C   UNL     1       6.615   1.123  -1.751  0.00  0.00    +0.129 C 
ATOM     13  N   UNL     1       6.465  -0.296  -2.086  0.00  0.00    -0.302 N 
ATOM     14  C   UNL     1       5.235  -0.833  -2.206  0.00  0.00    +0.306 C 
ATOM     15  O   UNL     1       4.250  -0.140  -2.038  0.00  0.00    -0.252 OA
ATOM     16  N   UNL     1       5.096  -2.138  -2.514  0.00  0.00    -0.240 N 
ATOM     17  C   UNL     1       3.866  -2.675  -2.635  0.00  0.00    +0.219 C 
ATOM     18  O   UNL     1       2.884  -1.984  -2.467  0.00  0.00    -0.275 OA
ATOM     19  H   UNL     1       7.251  -0.848  -2.220  0.00  0.00    +0.150 HD
ATOM     20  H   UNL     1       5.882  -2.690  -2.648  0.00  0.00    +0.159 HD
ENDBRANCH  11  17
ENDBRANCH  10  11
ENDBRANCH   1  10
BRANCH   1  21
ATOM     21  C   UNL     1       2.671  -6.723  -2.316  0.00  0.00    +0.019 C 
BRANCH  21  22
ATOM     22  C   UNL     1       1.880  -6.546  -1.046  0.00  0.00    +0.194 C 
ATOM     23  O   UNL     1       0.848  -5.907  -1.058  0.00  0.00    -0.278 OA
ATOM     24  N   UNL     1       2.318  -7.096   0.103  0.00  0.00    -0.331 N 
ATOM     25  H   UNL     1       3.143  -7.607   0.113  0.00  0.00    +0.145 HD
ATOM     26  H   UNL     1       1.809  -6.982   0.921  0.00  0.00    +0.145 HD
ENDBRANCH  21  22
ENDBRANCH   1  21
TORSDOF 6
