REMARK  Name = ZINC05543319
REMARK  7 active torsions:
REMARK  status: ('A' for Active; 'I' for Inactive)
REMARK    1  A    between atoms: C_2  and  C_17
REMARK    2  A    between atoms: C_3  and  O_16
REMARK    3  A    between atoms: C_4  and  C_14
REMARK    4  A    between atoms: C_5  and  C_8
REMARK    5  A    between atoms: C_6  and  O_7
REMARK    6  A    between atoms: C_8  and  N_50
REMARK    7  A    between atoms: C_17  and  N_53
REMARK                            x       y       z     vdW  Elec       q    Type
REMARK                         _______ _______ _______ _____ _____    ______ ____
ROOT
ATOM      1  C   UNL     1      -0.549   2.031   0.028  0.00  0.00    +0.051 A 
ATOM      2  C   UNL     1       0.760   1.597   0.082  0.00  0.00    -0.018 A 
ATOM      3  C   UNL     1       1.801   2.511   0.023  0.00  0.00    +0.133 A 
ATOM      4  C   UNL     1       1.520   3.880  -0.085  0.00  0.00    +0.109 A 
ATOM      5  C   UNL     1       0.192   4.312  -0.133  0.00  0.00    -0.005 A 
ATOM      6  C   UNL     1      -0.835   3.387  -0.073  0.00  0.00    +0.119 A 
ENDROOT
BRANCH   4   7
ATOM      7  C   UNL     1       2.620   4.859  -0.148  0.00  0.00    +0.390 C 
ATOM      8  O   UNL     1       3.067   5.202  -1.224  0.00  0.00    -0.240 OA
ATOM      9  O   UNL     1       3.129   5.374   0.988  0.00  0.00    -0.240 OA
ENDBRANCH   4   7
BRANCH   6  10
ATOM     10  O   UNL     1      -2.128   3.806  -0.119  0.00  0.00    -0.507 OA
ATOM     11  H   UNL     1      -2.492   3.860  -1.014  0.00  0.00    +0.292 HD
ENDBRANCH   6  10
BRANCH   3  12
ATOM     12  O   UNL     1       3.087   2.082   0.070  0.00  0.00    -0.506 OA
ATOM     13  H   UNL     1       3.470   1.890  -0.798  0.00  0.00    +0.292 HD
ENDBRANCH   3  12
BRANCH   5  14
ATOM     14  C   UNL     1      -0.121   5.781  -0.250  0.00  0.00    -0.038 C 
BRANCH  14  20
ATOM     15  C   UNL     1      -1.241   5.981   1.887  0.00  0.00    -0.078 C 
ATOM     16  C   UNL     1      -1.095   6.522   3.311  0.00  0.00    -0.019 C 
ATOM     17  C   UNL     1      -1.005   8.050   3.265  0.00  0.00    -0.004 C 
ATOM     18  C   UNL     1       0.178   8.457   2.382  0.00  0.00    -0.019 C 
ATOM     19  C   UNL     1      -0.004   7.860   0.985  0.00  0.00    -0.078 C 
ATOM     20  N   UNL     1      -0.059   6.387   1.096  0.00  0.00    +0.382 N 
ATOM     21  H   UNL     1       0.789   6.057   1.572  0.00  0.00    -0.081 HD
ENDBRANCH  14  20
ENDBRANCH   5  14
BRANCH   2  22
ATOM     22  C   UNL     1       1.059   0.124   0.198  0.00  0.00    -0.039 C 
BRANCH  22  28
ATOM     23  C   UNL     1       2.625   0.447   2.016  0.00  0.00    -0.078 C 
ATOM     24  C   UNL     1       2.848   0.206   3.511  0.00  0.00    -0.019 C 
ATOM     25  C   UNL     1       2.921  -1.301   3.774  0.00  0.00    -0.004 C 
ATOM     26  C   UNL     1       1.629  -1.960   3.282  0.00  0.00    -0.019 C 
ATOM     27  C   UNL     1       1.441  -1.656   1.794  0.00  0.00    -0.078 C 
ATOM     28  N   UNL     1       1.354  -0.191   1.611  0.00  0.00    +0.382 N 
ATOM     29  H   UNL     1       0.596   0.173   2.200  0.00  0.00    -0.081 HD
ENDBRANCH  22  28
ENDBRANCH   2  22
TORSDOF 7
