REMARK  Name = ZINC29520477
REMARK  12 active torsions:
REMARK  status: ('A' for Active; 'I' for Inactive)
REMARK    1  A    between atoms: C_1  and  C_2
REMARK    2  A    between atoms: C_2  and  N_3
REMARK    3  A    between atoms: N_3  and  C_4
REMARK    4  A    between atoms: N_3  and  C_18
REMARK    5  A    between atoms: C_4  and  C_5
REMARK    6  A    between atoms: C_5  and  C_6
REMARK    7  A    between atoms: N_8  and  C_9
REMARK    8  A    between atoms: C_12  and  C_15
REMARK    9  A    between atoms: C_18  and  C_19
REMARK   10  A    between atoms: N_21  and  C_22
REMARK   11  A    between atoms: C_22  and  C_24
REMARK   12  A    between atoms: C_22  and  C_25
REMARK                            x       y       z     vdW  Elec       q    Type
REMARK                         _______ _______ _______ _____ _____    ______ ____
ROOT
ATOM      1  N   UNL     1       4.792   0.171  -1.138  0.00  0.00    +0.386 N 
ATOM      2  H   UNL     1       4.955  -0.917  -1.109  0.00  0.00    -0.081 HD
ENDROOT
BRANCH   1   4
ATOM      3  C   UNL     1       3.673   1.973  -2.360  0.00  0.00    -0.017 C 
ATOM      4  C   UNL     1       3.927   0.467  -2.288  0.00  0.00    -0.082 C 
ENDBRANCH   1   4
BRANCH   1   5
ATOM      5  C   UNL     1       6.101   0.820  -1.283  0.00  0.00    -0.069 C 
BRANCH   5   6
ATOM      6  C   UNL     1       6.904   0.110  -2.375  0.00  0.00    +0.077 C 
BRANCH   6   7
ATOM      7  C   UNL     1       8.250   0.774  -2.521  0.00  0.00    +0.215 C 
ATOM      8  O   UNL     1       8.538   1.721  -1.820  0.00  0.00    -0.276 OA
ATOM      9  N   UNL     1       9.133   0.314  -3.430  0.00  0.00    -0.286 N 
ATOM     10  H   UNL     1       8.844  -0.494  -4.118  0.00  0.00    +0.155 HD
BRANCH   9  11
ATOM     11  C   UNL     1      10.413   0.863  -3.498  0.00  0.00    +0.033 A 
ATOM     12  C   UNL     1      10.599   2.222  -3.263  0.00  0.00    +0.024 A 
ATOM     13  C   UNL     1      11.862   2.766  -3.324  0.00  0.00    +0.015 A 
ATOM     14  C   UNL     1      12.956   1.954  -3.633  0.00  0.00    +0.037 A 
ATOM     15  C   UNL     1      12.765   0.591  -3.874  0.00  0.00    +0.015 A 
ATOM     16  C   UNL     1      11.500   0.052  -3.805  0.00  0.00    +0.024 A 
BRANCH  14  17
ATOM     17  C   UNL     1      14.311   2.535  -3.705  0.00  0.00    +0.242 C 
ATOM     18  O   UNL     1      15.263   1.827  -3.974  0.00  0.00    -0.270 OA
ATOM     19  N   UNL     1      14.494   3.850  -3.473  0.00  0.00    -0.325 N 
ATOM     20  H   UNL     1      15.504   4.283  -3.526  0.00  0.00    +0.145 HD
ATOM     21  H   UNL     1      13.633   4.490  -3.230  0.00  0.00    +0.145 HD
ENDBRANCH  14  17
ENDBRANCH   9  11
ENDBRANCH   6   7
ENDBRANCH   5   6
ENDBRANCH   1   5
BRANCH   1  22
ATOM     22  C   UNL     1       4.146   0.564   0.121  0.00  0.00    +0.019 C 
BRANCH  22  23
ATOM     23  C   UNL     1       2.932  -0.298   0.354  0.00  0.00    +0.197 C 
ATOM     24  O   UNL     1       2.635  -1.156  -0.450  0.00  0.00    -0.278 OA
ATOM     25  N   UNL     1       2.178  -0.117   1.456  0.00  0.00    -0.310 N 
ATOM     26  H   UNL     1       2.447   0.662   2.185  0.00  0.00    +0.149 HD
BRANCH  25  27
ATOM     27  C   UNL     1       0.998  -0.955   1.682  0.00  0.00    +0.101 C 
ATOM     28  C   UNL     1      -0.201  -0.359   0.942  0.00  0.00    +0.033 C 
BRANCH  27  29
ATOM     29  C   UNL     1       0.698  -1.013   3.158  0.00  0.00    -0.009 A 
ATOM     30  C   UNL     1       1.119   0.009   3.989  0.00  0.00    +0.007 A 
ATOM     31  C   UNL     1       0.840  -0.042   5.342  0.00  0.00    +0.000 A 
ATOM     32  C   UNL     1       0.149  -1.119   5.867  0.00  0.00    +0.001 A 
ATOM     33  C   UNL     1      -0.267  -2.143   5.037  0.00  0.00    +0.020 A 
ATOM     34  C   UNL     1       0.007  -2.090   3.682  0.00  0.00    +0.046 A 
ATOM     35 CL   UNL     1      -0.515  -3.377   2.640  0.00  0.00    -0.083 Cl
ENDBRANCH  27  29
ENDBRANCH  25  27
ENDBRANCH  22  23
ENDBRANCH   1  22
TORSDOF 10
