REMARK  Name = ZINC43604574
REMARK  10 active torsions:
REMARK  status: ('A' for Active; 'I' for Inactive)
REMARK    1  A    between atoms: C_1  and  C_2
REMARK    2  A    between atoms: C_13  and  O_30
REMARK    3  A    between atoms: C_17  and  C_29
REMARK    4  A    between atoms: C_22  and  C_28
REMARK    5  A    between atoms: C_23  and  C_25
REMARK    6  A    between atoms: C_25  and  C_27
REMARK    7  A    between atoms: O_30  and  C_31
REMARK    8  A    between atoms: C_31  and  C_33
REMARK    9  A    between atoms: C_33  and  C_34
REMARK   10  A    between atoms: C_34  and  N_35
REMARK                            x       y       z     vdW  Elec       q    Type
REMARK                         _______ _______ _______ _____ _____    ______ ____
ROOT
ATOM      1  C   UNL     1       0.143   1.593   0.305  0.00  0.00    +0.008 C 
ATOM      2  C   UNL     1       0.123   0.070   0.168  0.00  0.00    -0.003 C 
ATOM      3  C   UNL     1      -1.327  -0.455   0.248  0.00  0.00    +0.008 C 
ATOM      4  C   UNL     1      -1.177  -1.843   0.935  0.00  0.00    -0.000 C 
ATOM      5  C   UNL     1      -0.613  -2.803  -0.108  0.00  0.00    +0.000 C 
ATOM      6  C   UNL     1      -1.599  -3.035  -1.247  0.00  0.00    +0.031 C 
ATOM      7  C   UNL     1      -2.724  -3.917  -0.794  0.00  0.00    -0.027 C 
ATOM      8  C   UNL     1      -2.608  -4.783   0.165  0.00  0.00    -0.064 C 
ATOM      9  C   UNL     1      -3.795  -5.680   0.471  0.00  0.00    +0.075 C 
ATOM     10  C   UNL     1      -3.328  -7.133   0.327  0.00  0.00    +0.180 C 
ATOM     11  C   UNL     1      -2.125  -7.376   1.238  0.00  0.00    +0.046 C 
ATOM     12  C   UNL     1      -0.958  -6.469   0.861  0.00  0.00    +0.015 C 
ATOM     13  C   UNL     1      -1.356  -4.988   0.975  0.00  0.00    -0.008 C 
ATOM     14  C   UNL     1      -0.203  -4.125   0.518  0.00  0.00    +0.003 C 
ATOM     15  C   UNL     1       0.866  -3.901   1.574  0.00  0.00    +0.005 C 
ATOM     16  C   UNL     1       0.581  -2.781   2.548  0.00  0.00    +0.008 C 
ATOM     17  C   UNL     1      -0.105  -1.558   2.002  0.00  0.00    -0.019 C 
ATOM     18  C   UNL     1       0.881  -0.582   1.341  0.00  0.00    +0.064 C 
ATOM     19  C   UNL     1      -0.779  -0.830   3.176  0.00  0.00    +0.012 C 
ATOM     20  C   UNL     1      -1.700  -4.713   2.437  0.00  0.00    +0.016 C 
ENDROOT
BRANCH  18  21
ATOM     21  C   UNL     1       1.307   0.472   2.330  0.00  0.00    +0.134 C 
ATOM     22  O   UNL     1       0.482   1.194   2.837  0.00  0.00    -0.297 OA
ATOM     23  C   UNL     1       2.763   0.625   2.687  0.00  0.00    +0.086 C 
ENDBRANCH  18  21
BRANCH  10  24
ATOM     24  O   UNL     1      -4.392  -8.012   0.696  0.00  0.00    -0.461 OA
BRANCH  24  25
ATOM     25  C   UNL     1      -5.230  -8.398  -0.279  0.00  0.00    +0.306 C 
ATOM     26  O   UNL     1      -5.065  -8.002  -1.409  0.00  0.00    -0.251 OA
BRANCH  25  27
ATOM     27  C   UNL     1      -6.375  -9.325   0.035  0.00  0.00    +0.102 C 
BRANCH  27  28
ATOM     28  C   UNL     1      -7.170  -9.605  -1.242  0.00  0.00    -0.068 C 
BRANCH  28  29
ATOM     29  N   UNL     1      -8.287 -10.509  -0.936  0.00  0.00    +0.380 N 
ATOM     30  C   UNL     1      -7.758 -11.809  -0.504  0.00  0.00    -0.079 C 
ATOM     31  C   UNL     1      -8.915 -12.727  -0.107  0.00  0.00    -0.019 C 
ATOM     32  C   UNL     1      -9.840 -12.925  -1.311  0.00  0.00    -0.004 C 
ATOM     33  C   UNL     1     -10.326 -11.558  -1.799  0.00  0.00    -0.019 C 
ATOM     34  C   UNL     1      -9.117 -10.682  -2.134  0.00  0.00    -0.079 C 
ATOM     35  H   UNL     1      -8.845 -10.113  -0.195  0.00  0.00    -0.082 HD
ENDBRANCH  28  29
ENDBRANCH  27  28
ENDBRANCH  25  27
ENDBRANCH  24  25
ENDBRANCH  10  24
TORSDOF 6
