REMARK  Name = ZINC43093599
REMARK  11 active torsions:
REMARK  status: ('A' for Active; 'I' for Inactive)
REMARK    1  A    between atoms: C_1  and  C_2
REMARK    2  A    between atoms: C_2  and  C_3
REMARK    3  A    between atoms: C_3  and  C_5
REMARK    4  A    between atoms: C_3  and  N_23
REMARK    5  A    between atoms: C_5  and  C_7
REMARK    6  A    between atoms: C_5  and  N_14
REMARK    7  A    between atoms: N_14  and  C_15
REMARK    8  A    between atoms: N_14  and  C_20
REMARK    9  A    between atoms: C_15  and  C_16
REMARK   10  A    between atoms: C_20  and  C_21
REMARK   11  A    between atoms: C_20  and  C_22
REMARK                            x       y       z     vdW  Elec       q    Type
REMARK                         _______ _______ _______ _____ _____    ______ ____
ROOT
ATOM      1  C   UNL     1       1.371  -2.191  -0.794  0.00  0.00    +0.074 C 
ENDROOT
BRANCH   1   2
ATOM      2  C   UNL     1       0.024  -2.338  -0.133  0.00  0.00    -0.018 A 
ATOM      3  C   UNL     1      -0.055  -2.610   1.220  0.00  0.00    +0.006 A 
ATOM      4  C   UNL     1      -1.290  -2.744   1.827  0.00  0.00    +0.000 A 
ATOM      5  C   UNL     1      -2.446  -2.607   1.081  0.00  0.00    +0.001 A 
ATOM      6  C   UNL     1      -2.367  -2.334  -0.272  0.00  0.00    +0.015 A 
ATOM      7  C   UNL     1      -1.132  -2.195  -0.878  0.00  0.00    +0.022 A 
ATOM      8 BR   UNL     1      -1.023  -1.815  -2.728  0.00  0.00    -0.050 Br
ENDBRANCH   1   2
BRANCH   1   9
ATOM      9  C   UNL     1       1.881  -0.761  -0.600  0.00  0.00    -0.053 C 
BRANCH   9  10
ATOM     10  N   UNL     1       0.877   0.189  -1.098  0.00  0.00    +0.381 N 
ATOM     11  H   UNL     1       1.213   1.131  -0.970  0.00  0.00    -0.090 HD
ATOM     12  H   UNL     1       0.712   0.020  -2.079  0.00  0.00    -0.090 HD
ATOM     13  H   UNL     1       0.015   0.067  -0.586  0.00  0.00    -0.090 HD
ENDBRANCH   9  10
BRANCH   9  15
ATOM     14  C   UNL     1       2.757   0.877   1.070  0.00  0.00    +0.002 C 
ATOM     15  C   UNL     1       2.130  -0.506   0.888  0.00  0.00    -0.018 C 
ENDBRANCH   9  15
ENDBRANCH   1   9
BRANCH   1  16
ATOM     16  N   UNL     1       2.319  -3.135  -0.189  0.00  0.00    -0.287 NA
BRANCH  16  17
ATOM     17  C   UNL     1       2.005  -4.517  -0.576  0.00  0.00    +0.051 C 
ATOM     18  C   UNL     1       0.711  -4.958   0.111  0.00  0.00    +0.024 C 
ATOM     19  C   UNL     1       1.829  -4.594  -2.094  0.00  0.00    +0.024 C 
ENDBRANCH  16  17
BRANCH  16  20
ATOM     20  C   UNL     1       3.703  -2.791  -0.542  0.00  0.00    +0.199 C 
BRANCH  20  21
ATOM     21  C   UNL     1       4.663  -3.466   0.440  0.00  0.00    +0.402 C 
ATOM     22  F   UNL     1       4.590  -4.854   0.283  0.00  0.00    -0.169 F 
ATOM     23  F   UNL     1       5.969  -3.035   0.185  0.00  0.00    -0.169 F 
ATOM     24  F   UNL     1       4.306  -3.125   1.749  0.00  0.00    -0.169 F 
ENDBRANCH  20  21
ENDBRANCH  16  20
ENDBRANCH   1  16
TORSDOF 8
