REMARK  Name = ZINC40334605
REMARK  9 active torsions:
REMARK  status: ('A' for Active; 'I' for Inactive)
REMARK    1  A    between atoms: C_1  and  C_2
REMARK    2  A    between atoms: C_5  and  C_7
REMARK    3  A    between atoms: C_7  and  C_9
REMARK    4  A    between atoms: C_7  and  N_10
REMARK    5  A    between atoms: N_10  and  C_11
REMARK    6  A    between atoms: N_10  and  S_12
REMARK    7  A    between atoms: S_12  and  C_15
REMARK    8  A    between atoms: C_15  and  C_16
REMARK    9  A    between atoms: C_20  and  N_22
REMARK                            x       y       z     vdW  Elec       q    Type
REMARK                         _______ _______ _______ _____ _____    ______ ____
ROOT
ATOM      1  S   UNL     1       1.945  -5.135  -2.340  0.00  0.00    +0.036 S 
ATOM      2  O   UNL     1       3.270  -5.498  -2.705  0.00  0.00    -0.158 OA
ATOM      3  O   UNL     1       1.006  -6.124  -1.943  0.00  0.00    -0.158 OA
ENDROOT
BRANCH   1   4
ATOM      4  N   UNL     1       2.125  -4.165  -1.009  0.00  0.00    -0.176 NA
ATOM      5  C   UNL     1       3.368  -3.414  -0.812  0.00  0.00    +0.132 C 
BRANCH   4   6
ATOM      6  C   UNL     1       1.041  -4.058  -0.029  0.00  0.00    +0.113 C 
ATOM      7  C   UNL     1       1.583  -4.373   1.367  0.00  0.00    +0.031 C 
BRANCH   6  12
ATOM      8  C   UNL     1      -0.106   1.489  -0.102  0.00  0.00    +0.051 C 
ATOM      9  C   UNL     1      -0.062  -0.017  -0.082  0.00  0.00    -0.013 A 
ATOM     10  C   UNL     1      -1.090  -0.901  -0.071  0.00  0.00    +0.011 A 
ATOM     11  C   UNL     1      -0.810  -2.254  -0.054  0.00  0.00    +0.013 A 
ATOM     12  C   UNL     1       0.484  -2.658  -0.048  0.00  0.00    +0.009 A 
ATOM     13  S   UNL     1       1.357  -1.101  -0.073  0.00  0.00    -0.097 S 
ENDBRANCH   6  12
ENDBRANCH   4   6
ENDBRANCH   1   4
BRANCH   1  14
ATOM     14  C   UNL     1       1.221  -4.058  -3.607  0.00  0.00    +0.220 C 
BRANCH  14  15
ATOM     15  C   UNL     1       1.012  -4.845  -4.875  0.00  0.00    -0.023 A 
ATOM     16  C   UNL     1       2.017  -4.906  -5.824  0.00  0.00    +0.005 A 
ATOM     17  C   UNL     1       1.829  -5.627  -6.989  0.00  0.00    +0.002 A 
ATOM     18  C   UNL     1       0.636  -6.288  -7.209  0.00  0.00    +0.023 A 
ATOM     19  C   UNL     1      -0.375  -6.229  -6.258  0.00  0.00    +0.025 A 
ATOM     20  C   UNL     1      -0.181  -5.508  -5.086  0.00  0.00    +0.028 A 
BRANCH  19  21
ATOM     21  N   UNL     1      -1.582  -6.896  -6.478  0.00  0.00    -0.358 N 
ATOM     22  H   UNL     1      -1.715  -7.402  -7.295  0.00  0.00    +0.142 HD
ATOM     23  H   UNL     1      -2.287  -6.854  -5.813  0.00  0.00    +0.142 HD
ENDBRANCH  19  21
ENDBRANCH  14  15
ENDBRANCH   1  14
TORSDOF 6
