REMARK  Name = ZINC59037931
REMARK  9 active torsions:
REMARK  status: ('A' for Active; 'I' for Inactive)
REMARK    1  A    between atoms: C_1  and  N_2
REMARK    2  A    between atoms: N_2  and  S_3
REMARK    3  A    between atoms: S_3  and  C_6
REMARK    4  A    between atoms: C_9  and  C_12
REMARK    5  A    between atoms: C_12  and  N_13
REMARK    6  A    between atoms: N_16  and  C_17
REMARK    7  A    between atoms: C_17  and  C_18
REMARK    8  A    between atoms: C_18  and  C_20
REMARK    9  A    between atoms: C_18  and  N_25
REMARK                            x       y       z     vdW  Elec       q    Type
REMARK                         _______ _______ _______ _____ _____    ______ ____
ROOT
ATOM      1  N   UNL     1      -3.381   1.317  -5.937  0.00  0.00    -0.295 N 
ATOM      2  C   UNL     1      -3.877   1.794  -7.096  0.00  0.00    +0.300 C 
ATOM      3  O   UNL     1      -5.016   1.523  -7.426  0.00  0.00    -0.253 OA
ATOM      4  N   UNL     1      -3.112   2.571  -7.888  0.00  0.00    -0.301 N 
ATOM      5  H   UNL     1      -2.473   1.534  -5.673  0.00  0.00    +0.151 HD
ATOM      6  H   UNL     1      -2.204   2.787  -7.624  0.00  0.00    +0.150 HD
ENDROOT
BRANCH   1   7
ATOM      7  C   UNL     1      -4.213   0.473  -5.076  0.00  0.00    +0.141 C 
BRANCH   7  11
ATOM      8  C   UNL     1      -1.989  -0.652  -1.606  0.00  0.00    +0.105 A 
ATOM      9  C   UNL     1      -2.746   0.504  -1.597  0.00  0.00    +0.029 A 
ATOM     10  C   UNL     1      -3.465   0.869  -2.720  0.00  0.00    +0.007 A 
ATOM     11  C   UNL     1      -3.428   0.076  -3.852  0.00  0.00    -0.030 A 
ATOM     12  C   UNL     1      -2.670  -1.080  -3.861  0.00  0.00    +0.007 A 
ATOM     13  C   UNL     1      -1.947  -1.442  -2.740  0.00  0.00    +0.029 A 
BRANCH   8  14
ATOM     14  S   UNL     1      -1.072  -1.117  -0.175  0.00  0.00    +0.058 S 
ATOM     15  O   UNL     1      -0.876  -2.522  -0.257  0.00  0.00    -0.153 OA
ATOM     16  O   UNL     1      -1.711  -0.500   0.934  0.00  0.00    -0.153 OA
BRANCH  14  18
ATOM     17  C   UNL     1       0.559   1.037  -0.282  0.00  0.00    +0.127 C 
ATOM     18  N   UNL     1       0.425  -0.421  -0.305  0.00  0.00    -0.193 NA
ATOM     19  H   UNL     1       1.213  -0.980  -0.397  0.00  0.00    +0.148 HD
ENDBRANCH  14  18
ENDBRANCH   8  14
ENDBRANCH   7  11
ENDBRANCH   1   7
BRANCH   4  20
ATOM     20  C   UNL     1      -3.652   3.088  -9.148  0.00  0.00    +0.095 C 
BRANCH  20  21
ATOM     21  C   UNL     1      -2.627   4.020  -9.797  0.00  0.00    -0.013 C 
BRANCH  21  22
ATOM     22  N   UNL     1      -3.217   4.641 -10.990  0.00  0.00    +0.386 N 
ATOM     23  C   UNL     1      -4.382   5.479 -10.608  0.00  0.00    -0.078 C 
ATOM     24  C   UNL     1      -4.519   6.461 -11.799  0.00  0.00    -0.020 C 
ATOM     25  C   UNL     1      -3.048   6.753 -12.177  0.00  0.00    -0.020 C 
ATOM     26  C   UNL     1      -2.245   5.564 -11.618  0.00  0.00    -0.078 C 
ATOM     27  H   UNL     1      -3.499   3.932 -11.650  0.00  0.00    -0.081 HD
ENDBRANCH  21  22
BRANCH  21  28
ATOM     28  C   UNL     1      -1.408   3.227 -10.194  0.00  0.00    -0.022 A 
ATOM     29  C   UNL     1      -0.220   3.109  -9.552  0.00  0.00    +0.009 A 
ATOM     30  C   UNL     1       0.766   2.316 -10.108  0.00  0.00    +0.008 A 
ATOM     31  C   UNL     1       0.516   1.681 -11.279  0.00  0.00    +0.045 A 
ATOM     32  S   UNL     1      -1.158   2.193 -11.628  0.00  0.00    -0.103 S 
ENDBRANCH  21  28
ENDBRANCH  20  21
ENDBRANCH   4  20
TORSDOF 8
