REMARK  Name = ZINC62014793
REMARK  6 active torsions:
REMARK  status: ('A' for Active; 'I' for Inactive)
REMARK    1  A    between atoms: C_1  and  C_2
REMARK    2  A    between atoms: C_2  and  C_4
REMARK    3  A    between atoms: C_2  and  N_11
REMARK    4  A    between atoms: N_11  and  C_12
REMARK    5  A    between atoms: N_11  and  C_13
REMARK    6  A    between atoms: C_18  and  C_19
REMARK                            x       y       z     vdW  Elec       q    Type
REMARK                         _______ _______ _______ _____ _____    ______ ____
ROOT
ATOM      1  C   UNL     1      -0.491  -1.235  -2.233  0.00  0.00    +0.040 A 
ATOM      2  C   UNL     1      -0.773  -2.596  -2.241  0.00  0.00    +0.025 A 
ATOM      3  C   UNL     1      -1.788  -3.087  -3.036  0.00  0.00    +0.022 A 
ATOM      4  C   UNL     1      -2.533  -2.230  -3.832  0.00  0.00    +0.042 A 
ATOM      5  C   UNL     1      -2.267  -0.877  -3.837  0.00  0.00    +0.033 A 
ATOM      6  C   UNL     1      -1.246  -0.365  -3.033  0.00  0.00    +0.034 A 
ATOM      7 CL   UNL     1      -3.806  -2.864  -4.827  0.00  0.00    -0.084 Cl
ENDROOT
BRANCH   6   8
ATOM      8  C   UNL     1      -0.960   1.083  -3.029  0.00  0.00    +0.096 C 
ATOM      9  N   UNL     1       0.263   1.522  -3.329  0.00  0.00    -0.387 N 
ATOM     10  N   UNL     1      -1.924   1.952  -2.725  0.00  0.00    -0.345 N 
ATOM     11  H   UNL     1       0.942   0.897  -3.628  0.00  0.00    +0.157 HD
ATOM     12  H   UNL     1      -2.814   1.633  -2.507  0.00  0.00    +0.144 HD
ATOM     13  H   UNL     1      -1.736   2.904  -2.723  0.00  0.00    +0.144 HD
ATOM     14  H   UNL     1       0.473   2.465  -3.247  0.00  0.00    +0.157 HD
ENDBRANCH   6   8
BRANCH   1  15
ATOM     15  N   UNL     1       0.531  -0.739  -1.433  0.00  0.00    -0.325 N 
ATOM     16  C   UNL     1       1.923  -0.824  -1.885  0.00  0.00    +0.130 C 
BRANCH  15  18
ATOM     17  C   UNL     1       1.488   0.476   0.462  0.00  0.00    +0.033 C 
ATOM     18  C   UNL     1       0.218  -0.130  -0.138  0.00  0.00    +0.103 C 
BRANCH  18  19
ATOM     19  C   UNL     1      -0.325  -1.183   0.794  0.00  0.00    +0.008 A 
ATOM     20  C   UNL     1       0.078  -2.499   0.660  0.00  0.00    +0.008 A 
ATOM     21  C   UNL     1      -0.419  -3.465   1.514  0.00  0.00    +0.000 A 
ATOM     22  C   UNL     1      -1.319  -3.117   2.504  0.00  0.00    +0.003 A 
ATOM     23  C   UNL     1      -1.723  -1.802   2.640  0.00  0.00    +0.039 A 
ATOM     24  C   UNL     1      -1.222  -0.833   1.788  0.00  0.00    +0.128 A 
ATOM     25  F   UNL     1      -1.612   0.454   1.923  0.00  0.00    -0.205 F 
ENDBRANCH  18  19
ENDBRANCH  15  18
ENDBRANCH   1  15
TORSDOF 4
