REMARK  Name = ZINC48354764
REMARK  9 active torsions:
REMARK  status: ('A' for Active; 'I' for Inactive)
REMARK    1  A    between atoms: C_1  and  O_2
REMARK    2  A    between atoms: O_2  and  C_3
REMARK    3  A    between atoms: C_6  and  C_10
REMARK    4  A    between atoms: C_8  and  O_9
REMARK    5  A    between atoms: C_10  and  N_11
REMARK    6  A    between atoms: N_11  and  C_12
REMARK    7  A    between atoms: C_12  and  C_13
REMARK    8  A    between atoms: N_16  and  C_20
REMARK    9  A    between atoms: C_20  and  C_21
REMARK                            x       y       z     vdW  Elec       q    Type
REMARK                         _______ _______ _______ _____ _____    ______ ____
ROOT
ATOM      1  N   UNL     1      -5.431  -2.852  -1.347  0.00  0.00    +0.383 N 
ATOM      2  H   UNL     1      -5.518  -1.966  -1.821  0.00  0.00    -0.085 HD
ATOM      3  H   UNL     1      -4.754  -3.426  -1.828  0.00  0.00    -0.085 HD
ENDROOT
BRANCH   1   4
ATOM      4  C   UNL     1      -4.987  -2.627   0.035  0.00  0.00    -0.047 C 
BRANCH   4   8
ATOM      5  C   UNL     1      -1.201  -0.638   0.010  0.00  0.00    +0.161 A 
ATOM      6  C   UNL     1      -2.374   0.099   0.019  0.00  0.00    +0.049 A 
ATOM      7  C   UNL     1      -3.596  -0.546   0.027  0.00  0.00    +0.005 A 
ATOM      8  C   UNL     1      -3.652  -1.928   0.026  0.00  0.00    -0.061 A 
ATOM      9  C   UNL     1      -2.485  -2.669   0.017  0.00  0.00    +0.051 A 
ATOM     10  C   UNL     1      -1.257  -2.028   0.003  0.00  0.00    +0.159 A 
BRANCH   5  12
ATOM     11  C   UNL     1      -0.017   1.425   0.010  0.00  0.00    +0.277 C 
ATOM     12  O   UNL     1       0.002  -0.004   0.002  0.00  0.00    -0.491 OA
ENDBRANCH   5  12
BRANCH  10  13
ATOM     13  O   UNL     1      -0.108  -2.756  -0.012  0.00  0.00    -0.503 OA
ATOM     14  H   UNL     1       0.232  -2.972   0.867  0.00  0.00    +0.292 HD
ENDBRANCH  10  13
ENDBRANCH   4   8
ENDBRANCH   1   4
BRANCH   1  15
ATOM     15  C   UNL     1      -6.732  -3.534  -1.338  0.00  0.00    -0.049 C 
BRANCH  15  16
ATOM     16  C   UNL     1      -7.195  -3.769  -2.778  0.00  0.00    +0.115 C 
ATOM     17  C   UNL     1      -8.604  -4.367  -2.771  0.00  0.00    +0.114 C 
ATOM     18  N   UNL     1      -9.012  -4.662  -4.152  0.00  0.00    -0.294 NA
ATOM     19  C   UNL     1      -8.071  -5.597  -4.785  0.00  0.00    +0.113 C 
ATOM     20  C   UNL     1      -6.667  -4.986  -4.772  0.00  0.00    +0.175 C 
ATOM     21  O   UNL     1      -6.299  -4.677  -3.425  0.00  0.00    -0.376 OA
BRANCH  18  22
ATOM     22  C   UNL     1     -10.384  -5.186  -4.195  0.00  0.00    +0.119 C 
BRANCH  22  23
ATOM     23  C   UNL     1     -10.854  -5.245  -5.625  0.00  0.00    -0.033 A 
ATOM     24  C   UNL     1     -11.494  -4.156  -6.188  0.00  0.00    +0.005 A 
ATOM     25  C   UNL     1     -11.926  -4.210  -7.500  0.00  0.00    +0.000 A 
ATOM     26  C   UNL     1     -11.718  -5.352  -8.249  0.00  0.00    +0.000 A 
ATOM     27  C   UNL     1     -11.077  -6.441  -7.687  0.00  0.00    +0.000 A 
ATOM     28  C   UNL     1     -10.642  -6.386  -6.377  0.00  0.00    +0.005 A 
ENDBRANCH  22  23
ENDBRANCH  18  22
ENDBRANCH  15  16
ENDBRANCH   1  15
TORSDOF 8
