REMARK  Name = ZINC06601134
REMARK  8 active torsions:
REMARK  status: ('A' for Active; 'I' for Inactive)
REMARK    1  A    between atoms: C_1  and  C_2
REMARK    2  A    between atoms: C_2  and  O_3
REMARK    3  A    between atoms: O_3  and  C_4
REMARK    4  A    between atoms: C_7  and  N_10
REMARK    5  A    between atoms: C_11  and  C_13
REMARK    6  A    between atoms: C_13  and  S_14
REMARK    7  A    between atoms: S_14  and  C_15
REMARK    8  A    between atoms: C_17  and  C_24
REMARK                            x       y       z     vdW  Elec       q    Type
REMARK                         _______ _______ _______ _____ _____    ______ ____
ROOT
ATOM      1  C   UNL     1       0.050   0.126  -0.068  0.00  0.00    +0.109 A 
ATOM      2  C   UNL     1       1.268  -0.606  -0.048  0.00  0.00    +0.047 A 
ATOM      3  C   UNL     1       1.488  -2.048  -0.033  0.00  0.00    +0.001 A 
ATOM      4  C   UNL     1       2.759  -2.514  -0.015  0.00  0.00    +0.056 A 
ATOM      5  S   UNL     1       3.745  -1.029  -0.017  0.00  0.00    -0.076 S 
ATOM      6  C   UNL     1       2.443   0.174  -0.043  0.00  0.00    +0.113 A 
ATOM      7  N   UNL     1       2.393   1.492  -0.055  0.00  0.00    -0.228 NA
ATOM      8  C   UNL     1       1.231   2.116  -0.072  0.00  0.00    +0.223 A 
ATOM      9  N   UNL     1       0.091   1.449  -0.079  0.00  0.00    -0.229 NA
ENDROOT
BRANCH   3  10
ATOM     10  C   UNL     1       0.340  -2.987  -0.038  0.00  0.00    -0.017 A 
ATOM     11  C   UNL     1       0.190  -3.913   0.994  0.00  0.00    +0.010 A 
ATOM     12  C   UNL     1      -0.884  -4.780   0.988  0.00  0.00    +0.020 A 
ATOM     13  C   UNL     1      -1.803  -4.740  -0.047  0.00  0.00    +0.041 A 
ATOM     14  C   UNL     1      -1.655  -3.826  -1.076  0.00  0.00    +0.020 A 
ATOM     15  C   UNL     1      -0.589  -2.950  -1.077  0.00  0.00    +0.010 A 
ATOM     16 CL   UNL     1      -3.147  -5.839  -0.052  0.00  0.00    -0.084 Cl
ENDBRANCH   3  10
BRANCH   1  17
ATOM     17  S   UNL     1      -1.497  -0.718  -0.078  0.00  0.00    -0.096 S 
BRANCH  17  18
ATOM     18  C   UNL     1      -2.626   0.696  -0.103  0.00  0.00    +0.171 C 
BRANCH  18  20
ATOM     19  N   UNL     1      -5.069   1.083  -0.133  0.00  0.00    -0.285 N 
ATOM     20  C   UNL     1      -4.050   0.201  -0.114  0.00  0.00    +0.227 C 
ATOM     21  O   UNL     1      -4.278  -0.990  -0.106  0.00  0.00    -0.275 OA
ATOM     22  H   UNL     1      -4.889   2.034  -0.071  0.00  0.00    +0.155 HD
BRANCH  19  26
ATOM     23  C   UNL     1      -8.997  -0.278  -0.459  0.00  0.00    +0.121 A 
ATOM     24  C   UNL     1      -8.065  -1.015   0.257  0.00  0.00    +0.047 A 
ATOM     25  C   UNL     1      -6.764  -0.565   0.365  0.00  0.00    +0.027 A 
ATOM     26  C   UNL     1      -6.389   0.625  -0.243  0.00  0.00    +0.034 A 
ATOM     27  C   UNL     1      -7.324   1.365  -0.955  0.00  0.00    +0.027 A 
ATOM     28  C   UNL     1      -8.623   0.912  -1.067  0.00  0.00    +0.047 A 
BRANCH  23  29
ATOM     29  O   UNL     1     -10.278  -0.721  -0.565  0.00  0.00    -0.492 OA
BRANCH  29  31
ATOM     30  C   UNL     1     -12.568  -0.567  -1.324  0.00  0.00    +0.048 C 
ATOM     31  C   UNL     1     -11.185   0.088  -1.316  0.00  0.00    +0.225 C 
ENDBRANCH  29  31
ENDBRANCH  23  29
ENDBRANCH  19  26
ENDBRANCH  18  20
ENDBRANCH  17  18
ENDBRANCH   1  17
TORSDOF 7
