REMARK  Name = ZINC02372826
REMARK  6 active torsions:
REMARK  status: ('A' for Active; 'I' for Inactive)
REMARK    1  A    between atoms: C_1  and  C_2
REMARK    2  A    between atoms: C_2  and  N_3
REMARK    3  A    between atoms: C_7  and  C_8
REMARK    4  A    between atoms: C_9  and  N_20
REMARK    5  A    between atoms: C_14  and  C_19
REMARK    6  A    between atoms: C_25  and  N_52
REMARK                            x       y       z     vdW  Elec       q    Type
REMARK                         _______ _______ _______ _____ _____    ______ ____
ROOT
ATOM      1  C   UNL     1      -1.371  -1.820  -0.121  0.00  0.00    +0.081 A 
ATOM      2  C   UNL     1      -1.012  -0.590   0.479  0.00  0.00    +0.136 A 
ATOM      3  N   UNL     1      -1.957   0.285   0.792  0.00  0.00    -0.214 NA
ATOM      4  C   UNL     1      -3.246   0.035   0.560  0.00  0.00    +0.142 A 
ATOM      5  C   UNL     1      -4.205   1.001   0.914  0.00  0.00    +0.047 A 
ATOM      6  C   UNL     1      -5.525   0.755   0.681  0.00  0.00    +0.008 A 
ATOM      7  C   UNL     1      -5.909  -0.457   0.091  0.00  0.00    -0.034 A 
ATOM      8  C   UNL     1      -4.974  -1.375  -0.243  0.00  0.00    +0.099 A 
ATOM      9  N   UNL     1      -3.651  -1.139  -0.013  0.00  0.00    -0.267 N 
ATOM     10  C   UNL     1      -2.743  -2.076  -0.358  0.00  0.00    +0.267 A 
ATOM     11  O   UNL     1      -3.098  -3.124  -0.870  0.00  0.00    -0.267 OA
ATOM     12  C   UNL     1      -7.366  -0.738  -0.171  0.00  0.00    +0.045 C 
ENDROOT
BRANCH   1  17
ATOM     13  N   UNL     1       2.678  -2.583  -2.474  0.00  0.00    -0.256 N 
ATOM     14  C   UNL     1       1.802  -3.159  -1.669  0.00  0.00    +0.258 C 
ATOM     15  O   UNL     1       1.969  -4.299  -1.275  0.00  0.00    -0.269 OA
ATOM     16  C   UNL     1       0.655  -2.410  -1.280  0.00  0.00    +0.077 C 
ATOM     17  C   UNL     1      -0.385  -2.771  -0.472  0.00  0.00    +0.037 C 
ATOM     18  S   UNL     1       0.951  -0.866  -2.130  0.00  0.00    -0.061 S 
ATOM     19  C   UNL     1       2.496  -1.315  -2.906  0.00  0.00    +0.121 C 
ATOM     20  S   UNL     1       3.493  -0.378  -3.934  0.00  0.00    -0.027 S 
BRANCH  13  22
ATOM     21  C   UNL     1       5.000  -3.091  -1.899  0.00  0.00    +0.025 C 
ATOM     22  C   UNL     1       3.866  -3.327  -2.899  0.00  0.00    +0.111 C 
ENDBRANCH  13  22
ENDBRANCH   1  17
BRANCH   2  23
ATOM     23  N   UNL     1       0.311  -0.301   0.731  0.00  0.00    -0.318 N 
ATOM     24  C   UNL     1       0.474   1.096   1.155  0.00  0.00    +0.088 C 
ATOM     25  C   UNL     1       1.962   1.398   1.348  0.00  0.00    -0.060 C 
ATOM     26  C   UNL     1       2.357  -0.919   1.925  0.00  0.00    -0.060 C 
ATOM     27  C   UNL     1       0.869  -1.221   1.732  0.00  0.00    +0.088 C 
ATOM     28  C   UNL     1       3.931   0.786   2.618  0.00  0.00    -0.096 C 
ATOM     29  N   UNL     1       2.505   0.482   2.372  0.00  0.00    +0.380 N 
ATOM     30  H   UNL     1       1.982   0.610   3.246  0.00  0.00    -0.082 HD
ENDBRANCH   2  23
TORSDOF 3
