REMARK  Name = ZINC51092776
REMARK  10 active torsions:
REMARK  status: ('A' for Active; 'I' for Inactive)
REMARK    1  A    between atoms: C_1  and  C_2
REMARK    2  A    between atoms: C_2  and  C_3
REMARK    3  A    between atoms: C_2  and  C_4
REMARK    4  A    between atoms: C_7  and  C_10
REMARK    5  A    between atoms: C_10  and  C_12
REMARK    6  A    between atoms: C_10  and  O_26
REMARK    7  A    between atoms: C_12  and  N_13
REMARK    8  A    between atoms: N_22  and  C_23
REMARK    9  A    between atoms: C_23  and  C_24
REMARK   10  A    between atoms: C_24  and  O_25
REMARK                            x       y       z     vdW  Elec       q    Type
REMARK                         _______ _______ _______ _____ _____    ______ ____
ROOT
ATOM      1  N   UNL     1       2.807  -3.699  -6.371  0.00  0.00    -0.311 N 
ATOM      2  C   UNL     1       2.280  -3.492  -7.635  0.00  0.00    +0.068 A 
ATOM      3  C   UNL     1       1.131  -2.878  -8.110  0.00  0.00    +0.028 A 
ATOM      4  C   UNL     1       0.884  -2.836  -9.466  0.00  0.00    +0.002 A 
ATOM      5  C   UNL     1       1.780  -3.405 -10.361  0.00  0.00    +0.002 A 
ATOM      6  C   UNL     1       2.926  -4.018  -9.908  0.00  0.00    +0.028 A 
ATOM      7  C   UNL     1       3.190  -4.069  -8.537  0.00  0.00    +0.065 A 
ATOM      8  N   UNL     1       4.207  -4.590  -7.800  0.00  0.00    -0.327 N 
ATOM      9  C   UNL     1       3.987  -4.368  -6.528  0.00  0.00    +0.174 A 
ATOM     10  N   UNL     1       4.820  -4.756  -5.501  0.00  0.00    -0.314 N 
ATOM     11  H   UNL     1       4.583  -4.556  -4.582  0.00  0.00    +0.149 HD
ATOM     12  H   UNL     1       4.979  -5.051  -8.162  0.00  0.00    +0.169 HD
ENDROOT
BRANCH   1  13
ATOM     13  C   UNL     1       2.212  -3.273  -5.102  0.00  0.00    +0.161 C 
BRANCH  13  14
ATOM     14  C   UNL     1       2.707  -1.868  -4.752  0.00  0.00    +0.164 C 
BRANCH  14  18
ATOM     15  C   UNL     1       0.707  -0.490  -1.238  0.00  0.00    -0.045 A 
ATOM     16  C   UNL     1       0.222  -0.151  -2.487  0.00  0.00    +0.004 A 
ATOM     17  C   UNL     1       0.869  -0.597  -3.624  0.00  0.00    +0.006 A 
ATOM     18  C   UNL     1       2.002  -1.381  -3.513  0.00  0.00    -0.017 A 
ATOM     19  C   UNL     1       2.488  -1.720  -2.263  0.00  0.00    +0.006 A 
ATOM     20  C   UNL     1       1.843  -1.270  -1.126  0.00  0.00    +0.004 A 
BRANCH  15  22
ATOM     21  C   UNL     1      -0.019   1.526   0.010  0.00  0.00    +0.012 C 
ATOM     22  C   UNL     1       0.002  -0.004   0.002  0.00  0.00    +0.013 C 
ATOM     23  C   UNL     1      -1.433  -0.534   0.013  0.00  0.00    +0.012 C 
ENDBRANCH  15  22
ENDBRANCH  14  18
BRANCH  14  24
ATOM     24  O   UNL     1       4.115  -1.904  -4.516  0.00  0.00    -0.385 OA
ATOM     25  H   UNL     1       4.378  -2.487  -3.791  0.00  0.00    +0.210 HD
ENDBRANCH  14  24
ENDBRANCH  13  14
ENDBRANCH   1  13
BRANCH  10  26
ATOM     26  C   UNL     1       6.064  -5.472  -5.797  0.00  0.00    +0.132 C 
BRANCH  26  27
ATOM     27  C   UNL     1       6.797  -5.783  -4.491  0.00  0.00    +0.174 C 
BRANCH  27  28
ATOM     28  O   UNL     1       6.016  -6.690  -3.711  0.00  0.00    -0.393 OA
ATOM     29  H   UNL     1       6.420  -6.932  -2.866  0.00  0.00    +0.209 HD
ENDBRANCH  27  28
ENDBRANCH  26  27
ENDBRANCH  10  26
TORSDOF 8
