REMARK  Name = ZINC43424057
REMARK  6 active torsions:
REMARK  status: ('A' for Active; 'I' for Inactive)
REMARK    1  A    between atoms: C_1  and  C_2
REMARK    2  A    between atoms: C_2  and  C_3
REMARK    3  A    between atoms: C_3  and  C_5
REMARK    4  A    between atoms: C_3  and  N_25
REMARK    5  A    between atoms: C_5  and  C_7
REMARK    6  A    between atoms: C_5  and  N_13
REMARK                            x       y       z     vdW  Elec       q    Type
REMARK                         _______ _______ _______ _____ _____    ______ ____
ROOT
ATOM      1  C   UNL     1       0.874  -1.987  -1.086  0.00  0.00    +0.080 C 
ENDROOT
BRANCH   1   2
ATOM      2  N   UNL     1       1.657  -2.341   0.105  0.00  0.00    -0.289 NA
ATOM      3  C   UNL     1       1.069  -1.750   1.317  0.00  0.00    +0.113 C 
ATOM      4  C   UNL     1       1.937  -2.100   2.528  0.00  0.00    +0.175 C 
ATOM      5  O   UNL     1       2.072  -3.522   2.624  0.00  0.00    -0.374 OA
ATOM      6  C   UNL     1       2.648  -4.118   1.460  0.00  0.00    +0.135 C 
ATOM      7  C   UNL     1       1.770  -3.799   0.247  0.00  0.00    +0.086 C 
ATOM      8  C   UNL     1       2.405  -4.401  -1.007  0.00  0.00    +0.021 C 
ATOM      9  C   UNL     1       2.504  -5.920  -0.841  0.00  0.00    +0.002 C 
ATOM     10  C   UNL     1       3.363  -6.250   0.380  0.00  0.00    +0.003 C 
ATOM     11  C   UNL     1       2.734  -5.635   1.633  0.00  0.00    +0.033 C 
ENDBRANCH   1   2
BRANCH   1  12
ATOM     12  C   UNL     1       1.347  -0.661  -1.623  0.00  0.00    +0.006 A 
ATOM     13  C   UNL     1       1.465  -0.255  -2.911  0.00  0.00    +0.028 A 
ATOM     14  C   UNL     1       1.927   1.022  -3.171  0.00  0.00    +0.025 A 
ATOM     15  C   UNL     1       2.248   1.830  -2.130  0.00  0.00    +0.060 A 
ATOM     16  S   UNL     1       1.891   0.785  -0.728  0.00  0.00    -0.099 S 
ATOM     17 BR   UNL     1       2.108   1.633  -4.951  0.00  0.00    -0.050 Br
ENDBRANCH   1  12
BRANCH   1  18
ATOM     18  C   UNL     1      -0.606  -1.887  -0.712  0.00  0.00    -0.053 C 
BRANCH  18  19
ATOM     19  N   UNL     1      -1.374  -1.418  -1.873  0.00  0.00    +0.381 N 
ATOM     20  H   UNL     1      -2.350  -1.352  -1.627  0.00  0.00    -0.090 HD
ATOM     21  H   UNL     1      -1.036  -0.510  -2.155  0.00  0.00    -0.090 HD
ATOM     22  H   UNL     1      -1.263  -2.070  -2.635  0.00  0.00    -0.090 HD
ENDBRANCH  18  19
BRANCH  18  24
ATOM     23  C   UNL     1      -2.607  -3.170   0.060  0.00  0.00    +0.002 C 
ATOM     24  C   UNL     1      -1.119  -3.264  -0.284  0.00  0.00    -0.018 C 
ENDBRANCH  18  24
ENDBRANCH   1  18
TORSDOF 5
