REMARK  Name = ZINC53205966
REMARK  10 active torsions:
REMARK  status: ('A' for Active; 'I' for Inactive)
REMARK    1  A    between atoms: C_1  and  C_2
REMARK    2  A    between atoms: C_4  and  C_27
REMARK    3  A    between atoms: C_5  and  N_9
REMARK    4  A    between atoms: C_10  and  C_12
REMARK    5  A    between atoms: C_12  and  N_13
REMARK    6  A    between atoms: N_13  and  C_14
REMARK    7  A    between atoms: N_13  and  C_15
REMARK    8  A    between atoms: C_15  and  C_16
REMARK    9  A    between atoms: N_18  and  C_19
REMARK   10  A    between atoms: C_23  and  C_25
REMARK                            x       y       z     vdW  Elec       q    Type
REMARK                         _______ _______ _______ _____ _____    ______ ____
ROOT
ATOM      1  N   UNL     1       1.024  -6.849   2.335  0.00  0.00    +0.389 N 
ATOM      2  C   UNL     1      -0.015  -6.602   3.343  0.00  0.00    -0.095 C 
ATOM      3  H   UNL     1       1.871  -6.368   2.599  0.00  0.00    -0.081 HD
ENDROOT
BRANCH   1   4
ATOM      4  C   UNL     1       0.567  -6.355   1.029  0.00  0.00    +0.019 C 
BRANCH   4   6
ATOM      5  N   UNL     1       0.002  -4.181  -0.006  0.00  0.00    -0.286 N 
ATOM      6  C   UNL     1       0.414  -4.857   1.085  0.00  0.00    +0.201 C 
ATOM      7  O   UNL     1       0.661  -4.260   2.111  0.00  0.00    -0.278 OA
ATOM      8  H   UNL     1      -0.245  -4.662  -0.811  0.00  0.00    +0.155 HD
BRANCH   5  13
ATOM      9  C   UNL     1      -0.288   1.485   0.111  0.00  0.00    +0.044 C 
ATOM     10  C   UNL     1      -0.210  -0.019   0.080  0.00  0.00    -0.049 A 
ATOM     11  C   UNL     1      -1.224  -0.750  -0.511  0.00  0.00    +0.008 A 
ATOM     12  C   UNL     1      -1.157  -2.130  -0.541  0.00  0.00    -0.028 A 
ATOM     13  C   UNL     1      -0.069  -2.783   0.023  0.00  0.00    +0.055 A 
ATOM     14  C   UNL     1       0.949  -2.046   0.615  0.00  0.00    +0.063 A 
ATOM     15  C   UNL     1       0.878  -0.666   0.637  0.00  0.00    +0.025 A 
ATOM     16 CL   UNL     1       2.312  -2.857   1.322  0.00  0.00    -0.082 Cl
ATOM     17  C   UNL     1      -2.263  -2.925  -1.185  0.00  0.00    +0.046 C 
ENDBRANCH   5  13
ENDBRANCH   4   6
ENDBRANCH   1   4
BRANCH   1  18
ATOM     18  C   UNL     1       1.288  -8.292   2.247  0.00  0.00    +0.019 C 
BRANCH  18  19
ATOM     19  C   UNL     1       1.873  -8.775   3.549  0.00  0.00    +0.201 C 
ATOM     20  O   UNL     1       2.052  -7.995   4.460  0.00  0.00    -0.278 OA
ATOM     21  N   UNL     1       2.196 -10.075   3.701  0.00  0.00    -0.287 N 
ATOM     22  H   UNL     1       2.116 -10.685   2.951  0.00  0.00    +0.155 HD
BRANCH  21  23
ATOM     23  C   UNL     1       2.648 -10.543   4.940  0.00  0.00    +0.034 A 
ATOM     24  C   UNL     1       2.298 -11.818   5.370  0.00  0.00    +0.023 A 
ATOM     25  C   UNL     1       2.742 -12.285   6.593  0.00  0.00    +0.003 A 
ATOM     26  C   UNL     1       3.535 -11.489   7.394  0.00  0.00    +0.017 A 
ATOM     27  C   UNL     1       3.892 -10.208   6.971  0.00  0.00    +0.026 A 
ATOM     28  C   UNL     1       3.449  -9.739   5.735  0.00  0.00    +0.040 A 
BRANCH  27  29
ATOM     29  C   UNL     1       4.715  -9.381   7.800  0.00  0.00    -0.070 C 
ATOM     30  C   UNL     1       5.390  -8.702   8.480  0.00  0.00    +0.009 C 
ENDBRANCH  27  29
ENDBRANCH  21  23
ENDBRANCH  18  19
ENDBRANCH   1  18
TORSDOF 7
