REMARK  Name = ZINC63295608
REMARK  5 active torsions:
REMARK  status: ('A' for Active; 'I' for Inactive)
REMARK    1  A    between atoms: N_17  and  C_18
REMARK    2  A    between atoms: C_18  and  C_19
REMARK    3  A    between atoms: C_19  and  C_20
REMARK    4  A    between atoms: N_25  and  C_28
REMARK    5  A    between atoms: C_32  and  C_34
REMARK                            x       y       z     vdW  Elec       q    Type
REMARK                         _______ _______ _______ _____ _____    ______ ____
ROOT
ATOM      1  C   UNL     1       3.416  -7.732  -0.806  0.00  0.00    +0.115 C 
ENDROOT
BRANCH   1  17
ATOM      2  C   UNL     1       0.004   1.332   0.135  0.00  0.00    +0.001 A 
ATOM      3  C   UNL     1       1.186   2.085   0.127  0.00  0.00    +0.002 A 
ATOM      4  C   UNL     1       2.410   1.518   0.100  0.00  0.00    +0.026 A 
ATOM      5  C   UNL     1       2.549   0.103   0.079  0.00  0.00    +0.043 A 
ATOM      6  N   UNL     1       3.611  -0.669   0.032  0.00  0.00    -0.376 N 
ATOM      7  C   UNL     1       3.175  -2.062   0.108  0.00  0.00    +0.124 C 
ATOM      8  C   UNL     1       3.662  -2.879  -1.095  0.00  0.00    +0.138 C 
ATOM      9  N   UNL     1       2.866  -4.115  -1.152  0.00  0.00    -0.283 N 
ATOM     10  C   UNL     1       1.408  -4.058  -1.300  0.00  0.00    +0.114 C 
ATOM     11  C   UNL     1       0.808  -3.250  -0.135  0.00  0.00    +0.052 C 
ATOM     12  C   UNL     1       1.658  -2.013   0.047  0.00  0.00    -0.036 C 
ATOM     13  C   UNL     1       1.313  -0.718   0.081  0.00  0.00    -0.001 A 
ATOM     14  C   UNL     1       0.022  -0.020   0.114  0.00  0.00    +0.010 A 
ATOM     15  C   UNL     1       3.482  -5.311  -1.067  0.00  0.00    +0.302 C 
ATOM     16  O   UNL     1       4.696  -5.368  -1.041  0.00  0.00    -0.253 OA
ATOM     17  N   UNL     1       2.752  -6.442  -1.011  0.00  0.00    -0.299 N 
ATOM     18  H   UNL     1       1.788  -6.403  -1.106  0.00  0.00    +0.150 HD
ATOM     19  H   UNL     1       4.529  -0.366  -0.042  0.00  0.00    +0.160 HD
ENDBRANCH   1  17
BRANCH   1  20
ATOM     20  C   UNL     1       2.368  -8.847  -0.782  0.00  0.00    +0.114 C 
BRANCH  20  21
ATOM     21  C   UNL     1       3.051 -10.174  -0.572  0.00  0.00    +0.217 C 
ATOM     22  O   UNL     1       4.257 -10.223  -0.453  0.00  0.00    -0.276 OA
ATOM     23  N   UNL     1       2.321 -11.306  -0.516  0.00  0.00    -0.298 N 
ATOM     24  C   UNL     1       0.860 -11.262  -0.664  0.00  0.00    +0.126 C 
ATOM     25  C   UNL     1       0.455 -12.203  -1.805  0.00  0.00    +0.124 C 
ATOM     26  N   UNL     1       1.106 -13.503  -1.595  0.00  0.00    -0.327 N 
ATOM     27  C   UNL     1       2.568 -13.547  -1.447  0.00  0.00    +0.124 C 
ATOM     28  C   UNL     1       2.974 -12.607  -0.312  0.00  0.00    +0.126 C 
BRANCH  26  29
ATOM     29  C   UNL     1       0.350 -14.676  -1.537  0.00  0.00    +0.030 A 
ATOM     30  C   UNL     1      -1.013 -14.640  -1.802  0.00  0.00    +0.023 A 
ATOM     31  C   UNL     1      -1.758 -15.801  -1.744  0.00  0.00    +0.002 A 
ATOM     32  C   UNL     1      -1.147 -17.000  -1.422  0.00  0.00    +0.012 A 
ATOM     33  C   UNL     1       0.209 -17.040  -1.158  0.00  0.00    +0.057 A 
ATOM     34  C   UNL     1       0.961 -15.883  -1.220  0.00  0.00    +0.035 A 
BRANCH  33  35
ATOM     35  C   UNL     1       0.869 -18.349  -0.807  0.00  0.00    +0.417 C 
ATOM     36  F   UNL     1      -0.087 -19.370  -0.813  0.00  0.00    -0.166 F 
ATOM     37  F   UNL     1       1.864 -18.636  -1.748  0.00  0.00    -0.166 F 
ATOM     38  F   UNL     1       1.444 -18.255   0.465  0.00  0.00    -0.166 F 
ENDBRANCH  33  35
ENDBRANCH  26  29
ENDBRANCH  20  21
ENDBRANCH   1  20
TORSDOF 5
