REMARK  Name = ZINC63372198
REMARK  10 active torsions:
REMARK  status: ('A' for Active; 'I' for Inactive)
REMARK    1  A    between atoms: C_1  and  C_2
REMARK    2  A    between atoms: C_2  and  C_3
REMARK    3  A    between atoms: C_2  and  C_4
REMARK    4  A    between atoms: C_4  and  C_5
REMARK    5  A    between atoms: C_5  and  C_7
REMARK    6  A    between atoms: C_5  and  N_19
REMARK    7  A    between atoms: N_9  and  C_10
REMARK    8  A    between atoms: C_10  and  C_11
REMARK    9  A    between atoms: C_11  and  C_12
REMARK   10  A    between atoms: C_22  and  C_38
REMARK                            x       y       z     vdW  Elec       q    Type
REMARK                         _______ _______ _______ _____ _____    ______ ____
ROOT
ATOM      1  N   UNL     1       2.424   1.160  -1.079  0.00  0.00    -0.212 N 
ATOM      2  C   UNL     1       2.923   1.850  -0.032  0.00  0.00    +0.249 C 
ATOM      3  O   UNL     1       3.250   1.407   1.048  0.00  0.00    -0.273 OA
ATOM      4  C   UNL     1       2.990   3.291  -0.488  0.00  0.00    +0.136 C 
ATOM      5  C   UNL     1       2.147   4.184   0.421  0.00  0.00    +0.139 C 
ATOM      6  C   UNL     1       0.951   4.659  -0.390  0.00  0.00    -0.034 C 
ATOM      7  C   UNL     1      -0.130   4.301   0.298  0.00  0.00    -0.001 A 
ATOM      8  C   UNL     1      -1.563   4.536   0.058  0.00  0.00    +0.010 A 
ATOM      9  C   UNL     1      -2.418   4.011   0.975  0.00  0.00    +0.001 A 
ATOM     10  C   UNL     1      -1.996   3.284   2.092  0.00  0.00    +0.002 A 
ATOM     11  C   UNL     1      -0.699   3.024   2.393  0.00  0.00    +0.026 A 
ATOM     12  C   UNL     1       0.295   3.529   1.504  0.00  0.00    +0.043 A 
ATOM     13  N   UNL     1       1.605   3.445   1.563  0.00  0.00    -0.375 N 
ATOM     14  C   UNL     1       1.067   5.328  -1.737  0.00  0.00    +0.052 C 
ATOM     15  C   UNL     1       1.972   4.434  -2.608  0.00  0.00    +0.115 C 
ATOM     16  N   UNL     1       2.341   3.258  -1.815  0.00  0.00    -0.269 N 
ATOM     17  C   UNL     1       2.132   1.967  -2.108  0.00  0.00    +0.313 C 
ATOM     18  O   UNL     1       1.722   1.574  -3.183  0.00  0.00    -0.252 OA
ATOM     19  C   UNL     1       4.437   3.777  -0.585  0.00  0.00    +0.044 C 
ATOM     20  H   UNL     1       2.126   2.977   2.235  0.00  0.00    +0.160 HD
ENDROOT
BRANCH   1  21
ATOM     21  C   UNL     1       2.230  -0.292  -1.091  0.00  0.00    +0.171 C 
BRANCH  21  22
ATOM     22  C   UNL     1       3.146  -0.912  -2.115  0.00  0.00    +0.234 C 
ATOM     23  O   UNL     1       3.887  -0.210  -2.770  0.00  0.00    -0.274 OA
ATOM     24  N   UNL     1       3.141  -2.247  -2.302  0.00  0.00    -0.313 N 
ATOM     25  H   UNL     1       2.549  -2.808  -1.778  0.00  0.00    +0.149 HD
BRANCH  24  26
ATOM     26  C   UNL     1       4.031  -2.850  -3.298  0.00  0.00    +0.109 C 
BRANCH  26  27
ATOM     27  C   UNL     1       3.829  -4.366  -3.310  0.00  0.00    +0.056 C 
BRANCH  27  28
ATOM     28  C   UNL     1       4.744  -4.987  -4.334  0.00  0.00    -0.011 A 
ATOM     29  C   UNL     1       4.281  -5.241  -5.611  0.00  0.00    +0.006 A 
ATOM     30  C   UNL     1       5.121  -5.810  -6.551  0.00  0.00    +0.000 A 
ATOM     31  C   UNL     1       6.424  -6.125  -6.214  0.00  0.00    +0.003 A 
ATOM     32  C   UNL     1       6.889  -5.872  -4.938  0.00  0.00    +0.038 A 
ATOM     33  C   UNL     1       6.051  -5.297  -3.997  0.00  0.00    +0.127 A 
ATOM     34  F   UNL     1       6.506  -5.044  -2.751  0.00  0.00    -0.205 F 
ENDBRANCH  27  28
ENDBRANCH  26  27
ENDBRANCH  24  26
ENDBRANCH  21  22
BRANCH  21  35
ATOM     35  C   UNL     1       0.777  -0.610  -1.447  0.00  0.00    +0.035 C 
BRANCH  35  37
ATOM     36  C   UNL     1      -1.605  -0.258  -0.780  0.00  0.00    +0.007 C 
ATOM     37  C   UNL     1      -0.147  -0.053  -0.362  0.00  0.00    -0.015 C 
ATOM     38  C   UNL     1       0.113  -0.786   0.956  0.00  0.00    +0.007 C 
ENDBRANCH  35  37
ENDBRANCH  21  35
ENDBRANCH   1  21
TORSDOF 7
