REMARK  Name = ZINC39654477
REMARK  9 active torsions:
REMARK  status: ('A' for Active; 'I' for Inactive)
REMARK    1  A    between atoms: C_1  and  C_2
REMARK    2  A    between atoms: C_2  and  C_3
REMARK    3  A    between atoms: C_6  and  C_9
REMARK    4  A    between atoms: C_9  and  C_10
REMARK    5  A    between atoms: C_10  and  N_11
REMARK    6  A    between atoms: C_12  and  C_14
REMARK    7  A    between atoms: C_25  and  C_27
REMARK    8  A    between atoms: C_30  and  C_34
REMARK    9  A    between atoms: C_31  and  C_33
REMARK                            x       y       z     vdW  Elec       q    Type
REMARK                         _______ _______ _______ _____ _____    ______ ____
ROOT
ATOM      1  C   UNL     1       4.548  -0.601   8.879  0.00  0.00    +0.100 C 
ATOM      2  C   UNL     1       3.851  -1.542   9.887  0.00  0.00    +0.121 C 
ATOM      3  N   UNL     1       4.401  -1.151  11.206  0.00  0.00    -0.296 N 
ATOM      4  C   UNL     1       4.493   0.327  11.144  0.00  0.00    +0.115 C 
ATOM      5  C   UNL     1       4.967   0.625   9.707  0.00  0.00    -0.004 C 
ATOM      6  C   UNL     1       6.484   0.790   9.676  0.00  0.00    -0.010 C 
ATOM      7  C   UNL     1       6.871   2.047  10.459  0.00  0.00    -0.082 C 
ATOM      8  N   UNL     1       6.219   3.219   9.862  0.00  0.00    +0.379 N 
ATOM      9  C   UNL     1       4.761   3.094   9.979  0.00  0.00    -0.082 C 
ATOM     10  C   UNL     1       4.284   1.881   9.176  0.00  0.00    -0.010 C 
ATOM     11  C   UNL     1       4.742  -1.957  12.231  0.00  0.00    +0.247 C 
ATOM     12  O   UNL     1       4.730  -3.164  12.085  0.00  0.00    -0.270 OA
ATOM     13  H   UNL     1       6.523   4.053  10.341  0.00  0.00    -0.086 HD
ATOM     14  H   UNL     1       6.472   3.283   8.887  0.00  0.00    -0.086 HD
ENDROOT
BRANCH  11  15
ATOM     15  C   UNL     1       5.130  -1.374  13.533  0.00  0.00    +0.037 A 
ATOM     16  C   UNL     1       4.748  -0.071  13.859  0.00  0.00    +0.013 A 
ATOM     17  C   UNL     1       5.113   0.467  15.076  0.00  0.00    +0.004 A 
ATOM     18  C   UNL     1       5.856  -0.281  15.972  0.00  0.00    -0.047 A 
ATOM     19  C   UNL     1       6.237  -1.573  15.655  0.00  0.00    -0.047 A 
ATOM     20  C   UNL     1       5.873  -2.125  14.444  0.00  0.00    +0.016 A 
ATOM     21  C   UNL     1       7.046  -2.381  16.637  0.00  0.00    +0.044 C 
ATOM     22  C   UNL     1       6.251   0.313  17.299  0.00  0.00    +0.044 C 
ENDBRANCH  11  15
BRANCH   1  24
ATOM     23  N   UNL     1       4.049   0.080   6.554  0.00  0.00    -0.315 N 
ATOM     24  C   UNL     1       3.588  -0.196   7.790  0.00  0.00    +0.218 C 
ATOM     25  O   UNL     1       2.401  -0.117   8.026  0.00  0.00    -0.275 OA
ATOM     26  H   UNL     1       4.999   0.017   6.365  0.00  0.00    +0.149 HD
BRANCH  23  27
ATOM     27  C   UNL     1       3.116   0.474   5.495  0.00  0.00    +0.109 C 
BRANCH  27  28
ATOM     28  C   UNL     1       3.892   0.728   4.200  0.00  0.00    +0.054 C 
BRANCH  28  32
ATOM     29  C   UNL     1       1.173   1.878   1.113  0.00  0.00    -0.048 A 
ATOM     30  C   UNL     1       1.750   2.841   1.920  0.00  0.00    +0.004 A 
ATOM     31  C   UNL     1       2.629   2.468   2.919  0.00  0.00    +0.004 A 
ATOM     32  C   UNL     1       2.932   1.133   3.112  0.00  0.00    -0.046 A 
ATOM     33  C   UNL     1       2.355   0.171   2.305  0.00  0.00    +0.004 A 
ATOM     34  C   UNL     1       1.472   0.542   1.308  0.00  0.00    +0.004 A 
BRANCH  29  36
ATOM     35  C   UNL     1      -1.210   2.311   0.582  0.00  0.00    +0.009 C 
ATOM     36  C   UNL     1       0.214   2.284   0.023  0.00  0.00    +0.032 C 
ENDBRANCH  29  36
ENDBRANCH  28  32
ENDBRANCH  27  28
ENDBRANCH  23  27
ENDBRANCH   1  24
TORSDOF 6
