REMARK  Name = ZINC34734593
REMARK  7 active torsions:
REMARK  status: ('A' for Active; 'I' for Inactive)
REMARK    1  A    between atoms: C_1  and  C_2
REMARK    2  A    between atoms: C_2  and  N_3
REMARK    3  A    between atoms: C_18  and  C_20
REMARK    4  A    between atoms: C_18  and  C_21
REMARK    5  A    between atoms: N_24  and  C_25
REMARK    6  A    between atoms: C_25  and  C_26
REMARK    7  A    between atoms: N_28  and  C_29
REMARK                            x       y       z     vdW  Elec       q    Type
REMARK                         _______ _______ _______ _____ _____    ______ ____
ROOT
ATOM      1  N   UNL     1       1.192   0.386   2.044  0.00  0.00    +0.382 N 
ATOM      2  C   UNL     1       2.069   0.223   3.211  0.00  0.00    -0.060 C 
ATOM      3  C   UNL     1       2.342  -1.267   3.440  0.00  0.00    +0.089 C 
ATOM      4  N   UNL     1       1.052  -1.966   3.548  0.00  0.00    -0.304 N 
ATOM      5  C   UNL     1       0.046  -1.730   2.501  0.00  0.00    +0.089 C 
ATOM      6  C   UNL     1      -0.118  -0.218   2.316  0.00  0.00    -0.060 C 
ATOM      7  C   UNL     1       0.794  -2.814   4.596  0.00  0.00    +0.202 A 
ATOM      8  N   UNL     1       0.340  -2.324   5.731  0.00  0.00    -0.208 NA
ATOM      9  C   UNL     1       0.082  -3.121   6.762  0.00  0.00    +0.118 A 
ATOM     10  C   UNL     1       0.278  -4.512   6.698  0.00  0.00    +0.076 A 
ATOM     11  C   UNL     1      -0.049  -5.255   7.913  0.00  0.00    -0.018 A 
ATOM     12  C   UNL     1      -0.502  -4.543   8.967  0.00  0.00    +0.021 A 
ATOM     13  S   UNL     1      -0.520  -2.862   8.412  0.00  0.00    -0.071 S 
ATOM     14  C   UNL     1      -0.896  -5.092  10.303  0.00  0.00    +0.203 C 
ATOM     15  O   UNL     1      -1.015  -6.518  10.178  0.00  0.00    -0.368 OA
ATOM     16  C   UNL     1       0.101  -7.128   9.524  0.00  0.00    +0.068 C 
ATOM     17  C   UNL     1       0.100  -6.770   8.035  0.00  0.00    +0.071 C 
ATOM     18  C   UNL     1       1.398  -6.630  10.164  0.00  0.00    +0.041 C 
ATOM     19  C   UNL     1       0.012  -8.647   9.681  0.00  0.00    +0.041 C 
ATOM     20  C   UNL     1       0.771  -5.014   5.452  0.00  0.00    +0.264 A 
ATOM     21  O   UNL     1       0.971  -6.207   5.303  0.00  0.00    -0.267 OA
ATOM     22  N   UNL     1       1.007  -4.152   4.446  0.00  0.00    -0.271 N 
ATOM     23  H   UNL     1       1.611  -0.067   1.246  0.00  0.00    -0.082 HD
ENDROOT
BRANCH   1  25
ATOM     24  C   UNL     1       2.366   2.421   1.354  0.00  0.00    -0.017 C 
ATOM     25  C   UNL     1       1.020   1.817   1.759  0.00  0.00    -0.082 C 
ENDBRANCH   1  25
BRANCH  22  26
ATOM     26  C   UNL     1       1.506  -4.661   3.167  0.00  0.00    +0.224 C 
BRANCH  26  27
ATOM     27  C   UNL     1       3.006  -4.790   3.229  0.00  0.00    +0.237 C 
ATOM     28  O   UNL     1       3.600  -4.487   4.242  0.00  0.00    -0.274 OA
ATOM     29  N   UNL     1       3.689  -5.243   2.158  0.00  0.00    -0.283 N 
ATOM     30  H   UNL     1       3.225  -5.409   1.322  0.00  0.00    +0.155 HD
BRANCH  29  31
ATOM     31  C   UNL     1       5.063  -5.472   2.252  0.00  0.00    +0.041 A 
ATOM     32  C   UNL     1       5.641  -5.742   3.474  0.00  0.00    +0.024 A 
ATOM     33  C   UNL     1       7.009  -5.972   3.578  0.00  0.00    +0.002 A 
ATOM     34  C   UNL     1       7.814  -5.938   2.480  0.00  0.00    +0.008 A 
ATOM     35  C   UNL     1       7.264  -5.667   1.216  0.00  0.00    -0.016 A 
ATOM     36  C   UNL     1       5.871  -5.436   1.096  0.00  0.00    +0.003 A 
ATOM     37  C   UNL     1       5.322  -5.170  -0.169  0.00  0.00    +0.010 A 
ATOM     38  C   UNL     1       6.133  -5.142  -1.262  0.00  0.00    +0.001 A 
ATOM     39  C   UNL     1       7.502  -5.375  -1.147  0.00  0.00    +0.001 A 
ATOM     40  C   UNL     1       8.070  -5.625   0.065  0.00  0.00    +0.008 A 
ENDBRANCH  29  31
ENDBRANCH  26  27
ENDBRANCH  22  26
TORSDOF 4
