REMARK  Name = ZINC01159789
REMARK  6 active torsions:
REMARK  status: ('A' for Active; 'I' for Inactive)
REMARK    1  A    between atoms: C_1  and  C_2
REMARK    2  A    between atoms: C_8  and  C_13
REMARK    3  A    between atoms: C_9  and  O_12
REMARK    4  A    between atoms: C_13  and  C_15
REMARK    5  A    between atoms: C_13  and  N_22
REMARK    6  A    between atoms: N_22  and  C_23
REMARK                            x       y       z     vdW  Elec       q    Type
REMARK                         _______ _______ _______ _____ _____    ______ ____
ROOT
ATOM      1  C   UNL     1       0.336   3.149   7.010  0.00  0.00    +0.137 C 
ENDROOT
BRANCH   1   9
ATOM      2  C   UNL     1      -3.170  -1.905   3.076  0.00  0.00    +0.065 C 
ATOM      3  C   UNL     1      -2.758  -0.466   3.256  0.00  0.00    +0.039 A 
ATOM      4  C   UNL     1      -3.147   0.475   2.306  0.00  0.00    +0.023 A 
ATOM      5  C   UNL     1      -2.787   1.784   2.455  0.00  0.00    +0.012 A 
ATOM      6  C   UNL     1      -2.013   2.135   3.578  0.00  0.00    +0.004 A 
ATOM      7  C   UNL     1      -1.601   3.460   3.796  0.00  0.00    +0.010 A 
ATOM      8  C   UNL     1      -0.854   3.764   4.893  0.00  0.00    +0.010 A 
ATOM      9  C   UNL     1      -0.491   2.777   5.806  0.00  0.00    +0.021 A 
ATOM     10  C   UNL     1      -0.872   1.478   5.628  0.00  0.00    +0.148 A 
ATOM     11  C   UNL     1      -1.647   1.127   4.502  0.00  0.00    +0.113 A 
ATOM     12  N   UNL     1      -2.037  -0.135   4.300  0.00  0.00    -0.248 NA
BRANCH  10  13
ATOM     13  O   UNL     1      -0.509   0.530   6.530  0.00  0.00    -0.504 OA
ATOM     14  H   UNL     1       0.367   0.152   6.372  0.00  0.00    +0.292 HD
ENDBRANCH  10  13
ENDBRANCH   1   9
BRANCH   1  15
ATOM     15  C   UNL     1       0.964   4.501   6.790  0.00  0.00    -0.004 A 
ATOM     16  C   UNL     1       0.333   5.640   7.254  0.00  0.00    +0.007 A 
ATOM     17  C   UNL     1       0.911   6.880   7.056  0.00  0.00    +0.000 A 
ATOM     18  C   UNL     1       2.115   6.983   6.385  0.00  0.00    +0.001 A 
ATOM     19  C   UNL     1       2.744   5.846   5.915  0.00  0.00    +0.020 A 
ATOM     20  C   UNL     1       2.169   4.604   6.118  0.00  0.00    +0.046 A 
ATOM     21 CL   UNL     1       2.959   3.175   5.529  0.00  0.00    -0.083 Cl
ENDBRANCH   1  15
BRANCH   1  22
ATOM     22  N   UNL     1      -0.521   3.196   8.196  0.00  0.00    -0.320 N 
ATOM     23  H   UNL     1      -1.473   3.359   8.101  0.00  0.00    +0.148 HD
BRANCH  22  24
ATOM     24  C   UNL     1       0.028   3.007   9.459  0.00  0.00    +0.097 A 
ATOM     25  C   UNL     1       1.394   2.774   9.589  0.00  0.00    +0.041 A 
ATOM     26  C   UNL     1       1.927   2.588  10.851  0.00  0.00    +0.005 A 
ATOM     27  C   UNL     1       1.074   2.642  11.946  0.00  0.00    +0.018 A 
ATOM     28  C   UNL     1      -0.271   2.877  11.744  0.00  0.00    +0.084 A 
ATOM     29  N   UNL     1      -0.829   3.071  10.519  0.00  0.00    -0.350 N 
ATOM     30  H   UNL     1      -1.832   3.253  10.399  0.00  0.00    +0.166 HD
ENDBRANCH  22  24
ENDBRANCH   1  22
TORSDOF 5
