REMARK  Name = ZINC63746642
REMARK  7 active torsions:
REMARK  status: ('A' for Active; 'I' for Inactive)
REMARK    1  A    between atoms: C_1  and  C_2
REMARK    2  A    between atoms: C_5  and  C_8
REMARK    3  A    between atoms: C_8  and  N_9
REMARK    4  A    between atoms: N_12  and  C_13
REMARK    5  A    between atoms: C_15  and  C_37
REMARK    6  A    between atoms: C_18  and  C_31
REMARK    7  A    between atoms: C_19  and  C_23
REMARK                            x       y       z     vdW  Elec       q    Type
REMARK                         _______ _______ _______ _____ _____    ______ ____
ROOT
ATOM      1  C   UNL     1       3.220  -7.828   0.025  0.00  0.00    +0.059 A 
ATOM      2  C   UNL     1       2.159  -8.679   0.034  0.00  0.00    +0.028 A 
ATOM      3  C   UNL     1       2.326 -10.062   0.147  0.00  0.00    -0.048 A 
ATOM      4  C   UNL     1       3.545 -10.640   0.253  0.00  0.00    +0.013 A 
ATOM      5  C   UNL     1       4.717  -9.844   0.253  0.00  0.00    +0.006 A 
ATOM      6  C   UNL     1       6.061 -10.156   0.346  0.00  0.00    -0.000 C 
ATOM      7  C   UNL     1       6.794  -8.834   0.284  0.00  0.00    +0.198 C 
ATOM      8  N   UNL     1       5.758  -7.804   0.153  0.00  0.00    -0.368 N 
ATOM      9  C   UNL     1       4.580  -8.380   0.130  0.00  0.00    +0.065 A 
ATOM     10  C   UNL     1       1.103 -10.943   0.150  0.00  0.00    +0.044 C 
ATOM     11  H   UNL     1       5.919  -6.850   0.090  0.00  0.00    +0.161 HD
ENDROOT
BRANCH   7  12
ATOM     12  C   UNL     1       7.585  -8.619   1.549  0.00  0.00    +0.243 C 
ATOM     13  O   UNL     1       7.180  -7.848   2.393  0.00  0.00    -0.273 OA
ATOM     14  N   UNL     1       8.741  -9.284   1.741  0.00  0.00    -0.295 N 
ATOM     15  C   UNL     1       9.317 -10.125   0.680  0.00  0.00    +0.136 C 
ATOM     16  C   UNL     1      10.787  -9.732   0.496  0.00  0.00    +0.179 C 
ATOM     17  O   UNL     1      11.447  -9.768   1.764  0.00  0.00    -0.377 OA
ATOM     18  C   UNL     1      10.928  -8.841   2.720  0.00  0.00    +0.179 C 
ATOM     19  C   UNL     1       9.468  -9.184   3.017  0.00  0.00    +0.136 C 
ENDBRANCH   7  12
BRANCH   1  23
ATOM     20  N   UNL     1       1.655  -4.649  -0.674  0.00  0.00    -0.295 N 
ATOM     21  C   UNL     1       1.904  -5.974  -0.672  0.00  0.00    +0.304 C 
ATOM     22  O   UNL     1       1.120  -6.741  -1.197  0.00  0.00    -0.252 OA
ATOM     23  N   UNL     1       3.022  -6.448  -0.088  0.00  0.00    -0.268 N 
ATOM     24  H   UNL     1       2.280  -4.037  -0.255  0.00  0.00    +0.151 HD
ATOM     25  H   UNL     1       3.689  -5.832   0.254  0.00  0.00    +0.156 HD
BRANCH  20  26
ATOM     26  C   UNL     1       0.439  -4.133  -1.309  0.00  0.00    +0.141 C 
BRANCH  26  31
ATOM     27  C   UNL     1       0.284   1.620  -0.792  0.00  0.00    +0.044 C 
ATOM     28  C   UNL     1       0.325   0.119  -0.927  0.00  0.00    -0.050 A 
ATOM     29  C   UNL     1       0.932  -0.460  -2.026  0.00  0.00    +0.003 A 
ATOM     30  C   UNL     1       0.970  -1.836  -2.149  0.00  0.00    +0.005 A 
ATOM     31  C   UNL     1       0.400  -2.633  -1.174  0.00  0.00    -0.030 A 
ATOM     32  C   UNL     1      -0.207  -2.054  -0.075  0.00  0.00    +0.005 A 
ATOM     33  C   UNL     1      -0.241  -0.678   0.050  0.00  0.00    +0.003 A 
ENDBRANCH  26  31
ENDBRANCH  20  26
ENDBRANCH   1  23
BRANCH   6  34
ATOM     34  C   UNL     1       6.653 -11.490   0.477  0.00  0.00    -0.019 A 
ATOM     35  C   UNL     1       6.774 -12.086   1.740  0.00  0.00    +0.008 A 
ATOM     36  C   UNL     1       7.332 -13.341   1.854  0.00  0.00    +0.001 A 
ATOM     37  C   UNL     1       7.773 -14.012   0.726  0.00  0.00    +0.000 A 
ATOM     38  C   UNL     1       7.657 -13.431  -0.526  0.00  0.00    +0.001 A 
ATOM     39  C   UNL     1       7.097 -12.180  -0.660  0.00  0.00    +0.008 A 
ENDBRANCH   6  34
TORSDOF 5
