REMARK  Name = ZINC63746628
REMARK  7 active torsions:
REMARK  status: ('A' for Active; 'I' for Inactive)
REMARK    1  A    between atoms: C_1  and  C_2
REMARK    2  A    between atoms: C_2  and  C_3
REMARK    3  A    between atoms: C_8  and  N_9
REMARK    4  A    between atoms: N_12  and  C_13
REMARK    5  A    between atoms: C_15  and  C_37
REMARK    6  A    between atoms: C_18  and  C_31
REMARK    7  A    between atoms: C_19  and  C_23
REMARK                            x       y       z     vdW  Elec       q    Type
REMARK                         _______ _______ _______ _____ _____    ______ ____
ROOT
ATOM      1  C   UNL     1       5.602  -0.495   1.424  0.00  0.00    +0.059 A 
ATOM      2  C   UNL     1       6.001  -0.931   0.199  0.00  0.00    +0.028 A 
ATOM      3  C   UNL     1       7.351  -0.985  -0.160  0.00  0.00    -0.048 A 
ATOM      4  C   UNL     1       8.341  -0.608   0.681  0.00  0.00    +0.013 A 
ATOM      5  C   UNL     1       8.035  -0.138   1.982  0.00  0.00    +0.006 A 
ATOM      6  C   UNL     1       8.825   0.304   3.029  0.00  0.00    -0.000 C 
ATOM      7  C   UNL     1       7.865   0.664   4.141  0.00  0.00    +0.198 C 
ATOM      8  N   UNL     1       6.522   0.388   3.622  0.00  0.00    -0.368 N 
ATOM      9  C   UNL     1       6.620  -0.061   2.394  0.00  0.00    +0.065 A 
ATOM     10  C   UNL     1       7.717  -1.481  -1.535  0.00  0.00    +0.044 C 
ATOM     11  H   UNL     1       5.693   0.520   4.108  0.00  0.00    +0.161 HD
ENDROOT
BRANCH   7  12
ATOM     12  C   UNL     1       7.998   2.125   4.489  0.00  0.00    +0.243 C 
ATOM     13  O   UNL     1       7.303   2.947   3.931  0.00  0.00    -0.273 OA
ATOM     14  N   UNL     1       8.890   2.517   5.420  0.00  0.00    -0.295 N 
ATOM     15  C   UNL     1       9.830   1.557   6.021  0.00  0.00    +0.136 C 
ATOM     16  C   UNL     1      11.244   2.142   5.928  0.00  0.00    +0.179 C 
ATOM     17  O   UNL     1      11.245   3.461   6.479  0.00  0.00    -0.377 OA
ATOM     18  C   UNL     1      10.410   4.388   5.780  0.00  0.00    +0.179 C 
ATOM     19  C   UNL     1       8.957   3.919   5.862  0.00  0.00    +0.136 C 
ENDBRANCH   7  12
BRANCH   1  23
ATOM     20  N   UNL     1       2.031  -0.033   1.143  0.00  0.00    -0.269 N 
ATOM     21  C   UNL     1       3.328  -0.174   0.806  0.00  0.00    +0.308 C 
ATOM     22  O   UNL     1       3.672  -0.051  -0.354  0.00  0.00    -0.252 OA
ATOM     23  N   UNL     1       4.244  -0.453   1.754  0.00  0.00    -0.267 N 
ATOM     24  H   UNL     1       1.767  -0.058   2.076  0.00  0.00    +0.156 HD
ATOM     25  H   UNL     1       3.962  -0.625   2.666  0.00  0.00    +0.156 HD
BRANCH  20  31
ATOM     26  C   UNL     1      -0.211  -0.372   0.311  0.00  0.00    -0.026 A 
ATOM     27  C   UNL     1      -1.163  -0.184  -0.672  0.00  0.00    +0.005 A 
ATOM     28  C   UNL     1      -0.846   0.517  -1.820  0.00  0.00    +0.000 A 
ATOM     29  C   UNL     1       0.426   1.034  -1.988  0.00  0.00    +0.002 A 
ATOM     30  C   UNL     1       1.383   0.850  -1.010  0.00  0.00    +0.023 A 
ATOM     31  C   UNL     1       1.065   0.151   0.147  0.00  0.00    +0.038 A 
BRANCH  26  33
ATOM     32  C   UNL     1      -0.978  -0.156   2.659  0.00  0.00    +0.009 C 
ATOM     33  C   UNL     1      -0.558  -1.136   1.562  0.00  0.00    +0.033 C 
ENDBRANCH  26  33
ENDBRANCH  20  31
ENDBRANCH   1  23
BRANCH   6  34
ATOM     34  C   UNL     1      10.286   0.402   3.055  0.00  0.00    -0.019 A 
ATOM     35  C   UNL     1      11.034  -0.437   3.893  0.00  0.00    +0.008 A 
ATOM     36  C   UNL     1      12.408  -0.338   3.910  0.00  0.00    +0.001 A 
ATOM     37  C   UNL     1      13.051   0.585   3.103  0.00  0.00    +0.000 A 
ATOM     38  C   UNL     1      12.320   1.418   2.272  0.00  0.00    +0.001 A 
ATOM     39  C   UNL     1      10.946   1.330   2.237  0.00  0.00    +0.008 A 
ENDBRANCH   6  34
TORSDOF 5
