REMARK  Name = ZINC63161834
REMARK  7 active torsions:
REMARK  status: ('A' for Active; 'I' for Inactive)
REMARK    1  A    between atoms: C_1  and  C_2
REMARK    2  A    between atoms: N_6  and  C_8
REMARK    3  A    between atoms: C_8  and  C_9
REMARK    4  A    between atoms: C_9  and  C_10
REMARK    5  A    between atoms: C_10  and  N_11
REMARK    6  A    between atoms: N_14  and  C_15
REMARK    7  A    between atoms: C_17  and  C_23
REMARK                            x       y       z     vdW  Elec       q    Type
REMARK                         _______ _______ _______ _____ _____    ______ ____
ROOT
ATOM      1  N   UNL     1       2.478  -5.957   3.537  0.00  0.00    -0.299 N 
ATOM      2  C   UNL     1       3.152  -6.636   4.486  0.00  0.00    +0.304 C 
ATOM      3  O   UNL     1       3.530  -6.063   5.491  0.00  0.00    -0.253 OA
ATOM      4  N   UNL     1       3.409  -7.949   4.322  0.00  0.00    -0.265 N 
ATOM      5  H   UNL     1       2.177  -6.413   2.736  0.00  0.00    +0.150 HD
ATOM      6  H   UNL     1       3.045  -8.422   3.558  0.00  0.00    +0.157 HD
ENDROOT
BRANCH   4   7
ATOM      7  C   UNL     1       4.201  -8.630   5.256  0.00  0.00    +0.100 A 
ATOM      8  C   UNL     1       3.704  -9.716   5.925  0.00  0.00    +0.042 A 
ATOM      9  C   UNL     1       4.518 -10.380   6.853  0.00  0.00    +0.073 A 
ATOM     10  C   UNL     1       5.779  -9.946   7.081  0.00  0.00    +0.098 A 
ATOM     11  N   UNL     1       6.274  -8.867   6.418  0.00  0.00    -0.327 N 
ATOM     12  H   UNL     1       7.181  -8.570   6.595  0.00  0.00    +0.168 HD
ATOM     13  C   UNL     1       5.523  -8.208   5.515  0.00  0.00    +0.270 A 
ATOM     14  O   UNL     1       5.984  -7.245   4.924  0.00  0.00    -0.266 OA
BRANCH   9  15
ATOM     15  C   UNL     1       3.988 -11.577   7.599  0.00  0.00    +0.419 C 
ATOM     16  F   UNL     1       4.976 -12.064   8.462  0.00  0.00    -0.166 F 
ATOM     17  F   UNL     1       2.863 -11.203   8.342  0.00  0.00    -0.166 F 
ATOM     18  F   UNL     1       3.633 -12.575   6.686  0.00  0.00    -0.166 F 
ENDBRANCH   9  15
ENDBRANCH   4   7
BRANCH   1  19
ATOM     19  C   UNL     1       2.199  -4.530   3.716  0.00  0.00    +0.104 C 
BRANCH  19  20
ATOM     20  C   UNL     1       1.427  -4.005   2.503  0.00  0.00    +0.000 C 
BRANCH  20  21
ATOM     21  C   UNL     1       1.136  -2.515   2.690  0.00  0.00    -0.077 C 
BRANCH  21  27
ATOM     22  C   UNL     1      -0.647   1.498   0.524  0.00  0.00    +0.005 C 
ATOM     23  C   UNL     1      -0.473  -0.017   0.397  0.00  0.00    -0.031 C 
ATOM     24  C   UNL     1      -1.846  -0.680   0.261  0.00  0.00    -0.001 C 
ATOM     25  C   UNL     1      -1.666  -2.200   0.212  0.00  0.00    -0.018 C 
ATOM     26  C   UNL     1      -0.921  -2.660   1.468  0.00  0.00    -0.079 C 
ATOM     27  N   UNL     1       0.394  -2.011   1.526  0.00  0.00    +0.380 N 
ATOM     28  C   UNL     1       0.228  -0.558   1.645  0.00  0.00    -0.076 C 
ATOM     29  H   UNL     1       0.910  -2.222   0.684  0.00  0.00    -0.082 HD
ENDBRANCH  21  27
ENDBRANCH  20  21
ENDBRANCH  19  20
ENDBRANCH   1  19
TORSDOF 6
