REMARK  Name = ZINC01434788
REMARK  11 active torsions:
REMARK  status: ('A' for Active; 'I' for Inactive)
REMARK    1  A    between atoms: C_1  and  C_2
REMARK    2  A    between atoms: C_2  and  O_4
REMARK    3  A    between atoms: O_4  and  C_5
REMARK    4  A    between atoms: C_8  and  C_11
REMARK    5  A    between atoms: C_16  and  C_21
REMARK    6  A    between atoms: C_23  and  O_31
REMARK    7  A    between atoms: C_24  and  O_29
REMARK    8  A    between atoms: C_25  and  O_27
REMARK    9  A    between atoms: O_27  and  C_28
REMARK   10  A    between atoms: O_29  and  C_30
REMARK   11  A    between atoms: O_31  and  C_32
REMARK                            x       y       z     vdW  Elec       q    Type
REMARK                         _______ _______ _______ _____ _____    ______ ____
ROOT
ATOM      1  C   UNL     1      -2.908   2.195  -2.381  0.00  0.00    +0.136 C 
ATOM      2  C   UNL     1      -2.015   1.714  -1.261  0.00  0.00    +0.036 C 
ATOM      3  C   UNL     1      -0.680   1.574  -1.323  0.00  0.00    +0.017 C 
ATOM      4  C   UNL     1       0.094   1.055  -0.122  0.00  0.00    +0.059 C 
ATOM      5  C   UNL     1      -0.582   1.518   1.168  0.00  0.00    +0.032 C 
ATOM      6  C   UNL     1      -2.007   0.956   1.177  0.00  0.00    +0.088 C 
ATOM      7  C   UNL     1      -2.709   1.414  -0.065  0.00  0.00    +0.163 C 
ATOM      8  O   UNL     1      -3.918   1.531  -0.045  0.00  0.00    -0.292 OA
ATOM      9  N   UNL     1       0.082   1.862  -2.408  0.00  0.00    -0.316 N 
ATOM     10  C   UNL     1      -0.209   1.465  -3.709  0.00  0.00    +0.052 A 
ATOM     11  C   UNL     1       0.629   0.634  -4.431  0.00  0.00    +0.025 A 
ATOM     12  C   UNL     1       0.339   0.364  -5.758  0.00  0.00    +0.002 A 
ATOM     13  C   UNL     1      -0.780   0.919  -6.353  0.00  0.00    +0.002 A 
ATOM     14  C   UNL     1      -1.631   1.732  -5.625  0.00  0.00    +0.025 A 
ATOM     15  C   UNL     1      -1.351   1.991  -4.293  0.00  0.00    +0.049 A 
ATOM     16  N   UNL     1      -2.202   2.767  -3.507  0.00  0.00    -0.331 N 
ATOM     17  H   UNL     1       0.888   2.382  -2.266  0.00  0.00    +0.152 HD
ATOM     18  H   UNL     1      -2.322   3.705  -3.719  0.00  0.00    +0.147 HD
ENDROOT
BRANCH   1  22
ATOM     19  C   UNL     1      -5.230  -1.112  -3.773  0.00  0.00    +0.132 A 
ATOM     20  C   UNL     1      -3.849  -1.128  -3.905  0.00  0.00    +0.047 A 
ATOM     21  C   UNL     1      -3.101  -0.058  -3.454  0.00  0.00    +0.009 A 
ATOM     22  C   UNL     1      -3.727   1.029  -2.872  0.00  0.00    -0.023 A 
ATOM     23  C   UNL     1      -5.103   1.045  -2.735  0.00  0.00    +0.009 A 
ATOM     24  C   UNL     1      -5.856  -0.020  -3.189  0.00  0.00    +0.047 A 
BRANCH  19  25
ATOM     25  O   UNL     1      -5.969  -2.163  -4.216  0.00  0.00    -0.426 OA
BRANCH  25  27
ATOM     26  C   UNL     1      -6.655  -4.520  -3.950  0.00  0.00    +0.136 C 
ATOM     27  C   UNL     1      -5.959  -3.275  -3.463  0.00  0.00    +0.309 C 
ATOM     28  O   UNL     1      -5.393  -3.277  -2.396  0.00  0.00    -0.251 OA
ENDBRANCH  25  27
ENDBRANCH  19  25
ENDBRANCH   1  22
BRANCH   5  29
ATOM     29  C   UNL     1       0.179   0.994   2.359  0.00  0.00    -0.036 A 
ATOM     30  C   UNL     1       0.325  -0.369   2.538  0.00  0.00    +0.053 A 
ATOM     31  C   UNL     1       1.029  -0.855   3.630  0.00  0.00    +0.165 A 
ATOM     32  C   UNL     1       1.579   0.029   4.550  0.00  0.00    +0.204 A 
ATOM     33  C   UNL     1       1.425   1.399   4.369  0.00  0.00    +0.165 A 
ATOM     34  C   UNL     1       0.724   1.877   3.272  0.00  0.00    +0.053 A 
BRANCH  33  35
ATOM     35  O   UNL     1       1.962   2.269   5.266  0.00  0.00    -0.491 OA
ATOM     36  C   UNL     1       1.765   3.662   5.016  0.00  0.00    +0.277 C 
ENDBRANCH  33  35
BRANCH  32  37
ATOM     37  O   UNL     1       2.266  -0.444   5.624  0.00  0.00    -0.488 OA
ATOM     38  C   UNL     1       1.515  -0.701   6.813  0.00  0.00    +0.277 C 
ENDBRANCH  32  37
BRANCH  31  39
ATOM     39  O   UNL     1       1.177  -2.196   3.802  0.00  0.00    -0.491 OA
ATOM     40  C   UNL     1       0.585  -3.046   2.817  0.00  0.00    +0.277 C 
ENDBRANCH  31  39
ENDBRANCH   5  29
TORSDOF 7
