REMARK  Name = ZINC67291137
REMARK  12 active torsions:
REMARK  status: ('A' for Active; 'I' for Inactive)
REMARK    1  A    between atoms: C_1  and  C_2
REMARK    2  A    between atoms: C_2  and  C_3
REMARK    3  A    between atoms: C_2  and  C_4
REMARK    4  A    between atoms: C_4  and  C_6
REMARK    5  A    between atoms: C_4  and  N_26
REMARK    6  A    between atoms: N_8  and  C_9
REMARK    7  A    between atoms: C_9  and  C_10
REMARK    8  A    between atoms: C_10  and  C_11
REMARK    9  A    between atoms: C_11  and  C_12
REMARK   10  A    between atoms: C_13  and  C_24
REMARK   11  A    between atoms: C_14  and  N_23
REMARK   12  A    between atoms: N_15  and  C_17
REMARK                            x       y       z     vdW  Elec       q    Type
REMARK                         _______ _______ _______ _____ _____    ______ ____
ROOT
ATOM      1  C   UNL     1      -4.478   2.998  -4.096  0.00  0.00    +0.060 C 
ENDROOT
BRANCH   1   2
ATOM      2  C   UNL     1      -4.678   4.480  -4.276  0.00  0.00    +0.083 A 
ATOM      3  C   UNL     1      -5.715   5.252  -3.703  0.00  0.00    +0.114 A 
ATOM      4  C   UNL     1      -5.526   6.566  -4.123  0.00  0.00    +0.138 A 
ATOM      5  N   UNL     1      -4.426   6.576  -4.910  0.00  0.00    -0.217 N 
ATOM      6  N   UNL     1      -3.921   5.273  -4.982  0.00  0.00    -0.168 NA
BRANCH   5   7
ATOM      7  C   UNL     1      -3.882   7.702  -5.543  0.00  0.00    +0.067 A 
ATOM      8  C   UNL     1      -4.717   8.704  -6.019  0.00  0.00    +0.028 A 
ATOM      9  C   UNL     1      -4.177   9.812  -6.642  0.00  0.00    +0.002 A 
ATOM     10  C   UNL     1      -2.807   9.925  -6.792  0.00  0.00    +0.000 A 
ATOM     11  C   UNL     1      -1.973   8.928  -6.320  0.00  0.00    +0.002 A 
ATOM     12  C   UNL     1      -2.506   7.820  -5.691  0.00  0.00    +0.028 A 
ENDBRANCH   5   7
BRANCH   4  13
ATOM     13  N   UNL     1      -6.313   7.654  -3.798  0.00  0.00    -0.342 N 
ATOM     14  H   UNL     1      -7.085   7.539  -3.222  0.00  0.00    +0.144 HD
ATOM     15  H   UNL     1      -6.093   8.532  -4.146  0.00  0.00    +0.144 HD
ENDBRANCH   4  13
BRANCH   3  16
ATOM     16  C   UNL     1      -6.762   4.773  -2.851  0.00  0.00    +0.104 C 
ATOM     17  N   UNL     1      -7.593   4.394  -2.176  0.00  0.00    -0.191 NA
ENDBRANCH   3  16
ENDBRANCH   1   2
BRANCH   1  18
ATOM     18  C   UNL     1      -3.590   2.747  -2.875  0.00  0.00    +0.025 C 
BRANCH  18  19
ATOM     19  C   UNL     1      -3.387   1.241  -2.693  0.00  0.00    +0.104 C 
BRANCH  19  22
ATOM     20  C   UNL     1      -2.222  -0.260  -1.168  0.00  0.00    +0.200 C 
ATOM     21  O   UNL     1      -2.561  -1.190  -1.868  0.00  0.00    -0.278 OA
ATOM     22  N   UNL     1      -2.538   1.001  -1.524  0.00  0.00    -0.317 N 
ATOM     23  H   UNL     1      -2.202   1.750  -1.006  0.00  0.00    +0.149 HD
BRANCH  20  24
ATOM     24  C   UNL     1      -1.448  -0.513   0.100  0.00  0.00    +0.022 C 
BRANCH  24  25
ATOM     25  N   UNL     1      -1.612  -1.917   0.501  0.00  0.00    +0.387 N 
ATOM     26  C   UNL     1      -0.972  -2.150   1.821  0.00  0.00    -0.078 C 
ATOM     27  C   UNL     1      -1.687  -3.423   2.341  0.00  0.00    -0.020 C 
ATOM     28  C   UNL     1      -3.142  -3.223   1.860  0.00  0.00    -0.020 C 
ATOM     29  C   UNL     1      -3.045  -2.231   0.686  0.00  0.00    -0.078 C 
ATOM     30  H   UNL     1      -1.209  -2.527  -0.194  0.00  0.00    -0.081 HD
ENDBRANCH  24  25
BRANCH  24  32
ATOM     31  C   UNL     1       0.523  -1.022  -1.348  0.00  0.00    +0.006 C 
ATOM     32  C   UNL     1       0.034  -0.221  -0.140  0.00  0.00    -0.022 C 
ATOM     33  C   UNL     1       0.222   1.274  -0.409  0.00  0.00    +0.006 C 
ENDBRANCH  24  32
ENDBRANCH  20  24
ENDBRANCH  19  22
ENDBRANCH  18  19
ENDBRANCH   1  18
TORSDOF 10
