REMARK  Name = ZINC39670293
REMARK  6 active torsions:
REMARK  status: ('A' for Active; 'I' for Inactive)
REMARK    1  A    between atoms: C_1  and  C_2
REMARK    2  A    between atoms: C_7  and  C_11
REMARK    3  A    between atoms: C_11  and  N_12
REMARK    4  A    between atoms: C_13  and  C_15
REMARK    5  A    between atoms: C_26  and  C_28
REMARK    6  A    between atoms: C_29  and  C_33
REMARK                            x       y       z     vdW  Elec       q    Type
REMARK                         _______ _______ _______ _____ _____    ______ ____
ROOT
ATOM      1  C   UNL     1       3.160  -7.355   3.685  0.00  0.00    +0.100 C 
ATOM      2  C   UNL     1       3.954  -7.712   2.408  0.00  0.00    +0.121 C 
ATOM      3  N   UNL     1       4.851  -8.816   2.822  0.00  0.00    -0.296 N 
ATOM      4  C   UNL     1       4.020  -9.647   3.726  0.00  0.00    +0.115 C 
ATOM      5  C   UNL     1       3.205  -8.629   4.547  0.00  0.00    -0.004 C 
ATOM      6  C   UNL     1       1.793  -9.155   4.787  0.00  0.00    -0.010 C 
ATOM      7  C   UNL     1       1.860 -10.386   5.694  0.00  0.00    -0.082 C 
ATOM      8  N   UNL     1       2.493 -10.025   6.968  0.00  0.00    +0.379 N 
ATOM      9  C   UNL     1       3.881  -9.608   6.737  0.00  0.00    -0.082 C 
ATOM     10  C   UNL     1       3.900  -8.343   5.875  0.00  0.00    -0.010 C 
ATOM     11  C   UNL     1       6.133  -9.019   2.458  0.00  0.00    +0.254 C 
ATOM     12  O   UNL     1       6.713  -8.188   1.785  0.00  0.00    -0.269 OA
ATOM     13  H   UNL     1       1.981  -9.265   7.393  0.00  0.00    -0.086 HD
ATOM     14  H   UNL     1       2.481 -10.822   7.587  0.00  0.00    -0.086 HD
ENDROOT
BRANCH  11  15
ATOM     15  C   UNL     1       6.827 -10.242   2.872  0.00  0.00    +0.077 A 
ATOM     16  C   UNL     1       8.158 -10.593   2.699  0.00  0.00    -0.031 A 
ATOM     17  C   UNL     1       8.522 -11.819   3.201  0.00  0.00    +0.011 A 
ATOM     18  C   UNL     1       7.586 -12.584   3.815  0.00  0.00    +0.046 A 
ATOM     19  S   UNL     1       6.184 -11.661   3.738  0.00  0.00    -0.092 S 
ATOM     20  C   UNL     1       9.141  -9.687   2.004  0.00  0.00    +0.045 C 
ENDBRANCH  11  15
BRANCH   1  22
ATOM     21  N   UNL     1       0.990  -6.283   4.195  0.00  0.00    -0.309 N 
ATOM     22  C   UNL     1       1.735  -7.008   3.337  0.00  0.00    +0.219 C 
ATOM     23  O   UNL     1       1.260  -7.380   2.286  0.00  0.00    -0.275 OA
ATOM     24  H   UNL     1       1.370  -5.985   5.036  0.00  0.00    +0.149 HD
BRANCH  21  25
ATOM     25  C   UNL     1      -0.395  -5.945   3.857  0.00  0.00    +0.159 C 
BRANCH  25  32
ATOM     26  C   UNL     1      -3.677  -3.341   9.965  0.00  0.00    +0.044 C 
ATOM     27  C   UNL     1      -2.972  -3.398   8.633  0.00  0.00    -0.046 A 
ATOM     28  C   UNL     1      -2.642  -2.211   7.959  0.00  0.00    +0.021 A 
ATOM     29  C   UNL     1      -2.011  -2.258   6.767  0.00  0.00    +0.093 A 
ATOM     30  N   UNL     1      -1.685  -3.457   6.200  0.00  0.00    -0.308 N 
ATOM     31  C   UNL     1      -1.060  -3.787   5.029  0.00  0.00    +0.115 A 
ATOM     32  C   UNL     1      -1.002  -5.136   4.974  0.00  0.00    +0.051 A 
ATOM     33  N   UNL     1      -1.572  -5.632   6.074  0.00  0.00    -0.342 N 
ATOM     34  C   UNL     1      -1.995  -4.632   6.835  0.00  0.00    +0.116 A 
ATOM     35  C   UNL     1      -2.649  -4.599   8.082  0.00  0.00    +0.048 A 
ATOM     36  H   UNL     1      -1.662  -6.575   6.285  0.00  0.00    +0.167 HD
ENDBRANCH  25  32
ENDBRANCH  21  25
ENDBRANCH   1  22
TORSDOF 4
