REMARK  Name = ZINC15479616
REMARK  6 active torsions:
REMARK  status: ('A' for Active; 'I' for Inactive)
REMARK    1  A    between atoms: C_4  and  N_17
REMARK    2  A    between atoms: C_5  and  C_7
REMARK    3  A    between atoms: N_9  and  C_10
REMARK    4  A    between atoms: C_18  and  C_20
REMARK    5  A    between atoms: C_20  and  N_21
REMARK    6  A    between atoms: C_26  and  C_28
REMARK                            x       y       z     vdW  Elec       q    Type
REMARK                         _______ _______ _______ _____ _____    ______ ____
ROOT
ATOM      1  C   UNL     1      -0.125  -0.645   0.434  0.00  0.00    +0.001 A 
ATOM      2  C   UNL     1       0.994  -0.105   1.048  0.00  0.00    +0.002 A 
ATOM      3  C   UNL     1       2.260  -0.436   0.609  0.00  0.00    +0.024 A 
ATOM      4  C   UNL     1       2.420  -1.315  -0.454  0.00  0.00    +0.046 A 
ATOM      5  C   UNL     1       1.290  -1.863  -1.077  0.00  0.00    +0.058 A 
ATOM      6  C   UNL     1       0.015  -1.519  -0.622  0.00  0.00    +0.015 A 
ENDROOT
BRANCH   5   7
ATOM      7  C   UNL     1       1.446  -2.798  -2.208  0.00  0.00    +0.250 C 
ATOM      8  O   UNL     1       2.556  -3.163  -2.546  0.00  0.00    -0.270 OA
ATOM      9  N   UNL     1       0.360  -3.247  -2.867  0.00  0.00    -0.281 N 
ATOM     10  H   UNL     1      -0.519  -2.898  -2.648  0.00  0.00    +0.155 HD
BRANCH   9  11
ATOM     11  C   UNL     1       0.499  -4.215  -3.867  0.00  0.00    +0.034 A 
ATOM     12  C   UNL     1      -0.304  -4.166  -5.000  0.00  0.00    +0.026 A 
ATOM     13  C   UNL     1      -0.165  -5.123  -5.986  0.00  0.00    +0.040 A 
ATOM     14  C   UNL     1       0.773  -6.132  -5.846  0.00  0.00    +0.124 A 
ATOM     15  C   UNL     1       1.574  -6.184  -4.717  0.00  0.00    +0.040 A 
ATOM     16  C   UNL     1       1.443  -5.225  -3.731  0.00  0.00    +0.026 A 
ATOM     17  F   UNL     1       0.907  -7.067  -6.811  0.00  0.00    -0.205 F 
ENDBRANCH   9  11
ENDBRANCH   5   7
BRANCH   4  18
ATOM     18  N   UNL     1       3.697  -1.649  -0.899  0.00  0.00    -0.286 N 
ATOM     19  C   UNL     1       4.664  -0.711  -0.939  0.00  0.00    +0.201 C 
ATOM     20  O   UNL     1       4.447   0.402  -0.510  0.00  0.00    -0.278 OA
ATOM     21  H   UNL     1       3.890  -2.557  -1.180  0.00  0.00    +0.155 HD
BRANCH  19  22
ATOM     22  C   UNL     1       6.015  -1.046  -1.517  0.00  0.00    +0.020 C 
BRANCH  22  23
ATOM     23  N   UNL     1       6.884   0.136  -1.446  0.00  0.00    +0.393 N 
ATOM     24  C   UNL     1       6.363   1.179  -2.337  0.00  0.00    -0.077 C 
ATOM     25  C   UNL     1       7.219   2.441  -2.205  0.00  0.00    -0.019 C 
ATOM     26  C   UNL     1       8.664   2.114  -2.591  0.00  0.00    -0.003 C 
ATOM     27  C   UNL     1       9.172   0.973  -1.704  0.00  0.00    -0.006 C 
ATOM     28  C   UNL     1       8.245  -0.234  -1.854  0.00  0.00    +0.020 C 
ATOM     29  H   UNL     1       6.901   0.483  -0.498  0.00  0.00    -0.080 HD
BRANCH  28  30
ATOM     30  C   UNL     1       8.741  -1.360  -0.983  0.00  0.00    +0.197 C 
ATOM     31  O   UNL     1       8.310  -1.491   0.143  0.00  0.00    -0.278 OA
ATOM     32  N   UNL     1       9.665  -2.220  -1.456  0.00  0.00    -0.331 N 
ATOM     33  H   UNL     1      10.010  -2.115  -2.356  0.00  0.00    +0.145 HD
ATOM     34  H   UNL     1       9.985  -2.944  -0.895  0.00  0.00    +0.145 HD
ENDBRANCH  28  30
ENDBRANCH  22  23
ENDBRANCH  19  22
ENDBRANCH   4  18
TORSDOF 6
