REMARK  Name = ZINC21659622
REMARK  7 active torsions:
REMARK  status: ('A' for Active; 'I' for Inactive)
REMARK    1  A    between atoms: C_1  and  C_2
REMARK    2  A    between atoms: N_8  and  C_9
REMARK    3  A    between atoms: C_9  and  C_11
REMARK    4  A    between atoms: C_9  and  C_17
REMARK    5  A    between atoms: C_18  and  C_35
REMARK    6  A    between atoms: C_24  and  N_27
REMARK    7  A    between atoms: C_28  and  C_30
REMARK                            x       y       z     vdW  Elec       q    Type
REMARK                         _______ _______ _______ _____ _____    ______ ____
ROOT
ATOM      1  C   UNL     1      -2.467   1.723  -1.012  0.00  0.00    +0.007 A 
ATOM      2  C   UNL     1      -3.036   0.514  -1.140  0.00  0.00    +0.019 A 
ATOM      3  N   UNL     1      -3.525   0.361  -2.409  0.00  0.00    -0.358 N 
ATOM      4  H   UNL     1      -4.035  -0.572  -2.693  0.00  0.00    +0.166 HD
ATOM      5  C   UNL     1      -3.268   1.494  -3.150  0.00  0.00    +0.047 A 
ATOM      6  C   UNL     1      -2.594   2.397  -2.307  0.00  0.00    +0.007 A 
ATOM      7  C   UNL     1      -2.202   3.645  -2.792  0.00  0.00    +0.033 A 
ATOM      8  C   UNL     1      -2.480   3.987  -4.102  0.00  0.00    +0.034 A 
ATOM      9  C   UNL     1      -3.148   3.091  -4.934  0.00  0.00    +0.025 A 
ATOM     10  C   UNL     1      -3.539   1.857  -4.465  0.00  0.00    +0.028 A 
ATOM     11  C   UNL     1      -3.125  -0.520  -0.048  0.00  0.00    +0.063 C 
ENDROOT
BRANCH   8  12
ATOM     12  N   UNL     1      -2.090   5.239  -4.595  0.00  0.00    -0.279 N 
ATOM     13  C   UNL     1      -0.956   5.815  -4.149  0.00  0.00    +0.284 C 
ATOM     14  O   UNL     1      -0.222   5.207  -3.392  0.00  0.00    -0.266 OA
ATOM     15  H   UNL     1      -2.709   5.752  -5.345  0.00  0.00    +0.155 HD
BRANCH  13  16
ATOM     16  C   UNL     1      -0.606   7.173  -4.577  0.00  0.00    +0.189 A 
ATOM     17  C   UNL     1       0.506   7.871  -4.203  0.00  0.00    +0.054 A 
ATOM     18  C   UNL     1       0.436   9.117  -4.844  0.00  0.00    +0.042 A 
ATOM     19  C   UNL     1      -0.703   9.126  -5.572  0.00  0.00    +0.196 A 
ATOM     20  O   UNL     1      -1.325   7.951  -5.413  0.00  0.00    -0.458 OA
ENDBRANCH  13  16
ENDBRANCH   8  12
BRANCH   1  21
ATOM     21  C   UNL     1      -1.815   2.280   0.228  0.00  0.00    +0.153 C 
BRANCH  21  29
ATOM     22  C   UNL     1      -0.669   5.862   3.708  0.00  0.00    +0.044 C 
ATOM     23  C   UNL     1      -1.623   4.696   3.652  0.00  0.00    -0.046 A 
ATOM     24  C   UNL     1      -2.450   4.404   4.728  0.00  0.00    +0.021 A 
ATOM     25  C   UNL     1      -3.312   3.329   4.645  0.00  0.00    +0.084 A 
ATOM     26  N   UNL     1      -3.362   2.584   3.557  0.00  0.00    -0.350 N 
ATOM     27  C   UNL     1      -2.586   2.827   2.513  0.00  0.00    +0.097 A 
ATOM     28  C   UNL     1      -1.693   3.894   2.528  0.00  0.00    +0.045 A 
ATOM     29  N   UNL     1      -2.667   2.013   1.389  0.00  0.00    -0.318 N 
ATOM     30  H   UNL     1      -3.371   1.168   1.372  0.00  0.00    +0.148 HD
ATOM     31  H   UNL     1      -4.062   1.736   3.502  0.00  0.00    +0.166 HD
ENDBRANCH  21  29
BRANCH  21  32
ATOM     32  C   UNL     1      -0.473   1.624   0.427  0.00  0.00    +0.066 A 
ATOM     33  C   UNL     1       0.660   2.408   0.541  0.00  0.00    +0.025 A 
ATOM     34  C   UNL     1       1.890   1.794   0.720  0.00  0.00    +0.003 A 
ATOM     35  C   UNL     1       1.935   0.410   0.777  0.00  0.00    +0.020 A 
ATOM     36  C   UNL     1       0.760  -0.308   0.654  0.00  0.00    +0.111 A 
ATOM     37  N   UNL     1      -0.393   0.309   0.486  0.00  0.00    -0.258 NA
ENDBRANCH  21  32
ENDBRANCH   1  21
TORSDOF 5
