REMARK  Name = ZINC14141181
REMARK  11 active torsions:
REMARK  status: ('A' for Active; 'I' for Inactive)
REMARK    1  A    between atoms: C_1  and  C_2
REMARK    2  A    between atoms: C_5  and  C_27
REMARK    3  A    between atoms: C_6  and  N_8
REMARK    4  A    between atoms: C_9  and  C_11
REMARK    5  A    between atoms: C_11  and  N_51
REMARK    6  A    between atoms: C_12  and  N_51
REMARK    7  A    between atoms: C_13  and  C_15
REMARK    8  A    between atoms: C_13  and  C_16
REMARK    9  A    between atoms: C_13  and  N_51
REMARK   10  A    between atoms: N_18  and  C_19
REMARK   11  A    between atoms: C_20  and  C_24
REMARK                            x       y       z     vdW  Elec       q    Type
REMARK                         _______ _______ _______ _____ _____    ______ ____
ROOT
ATOM      1  C   UNL     1      -0.741   3.070   1.280  0.00  0.00    +0.017 C 
ATOM      2  C   UNL     1       0.716   3.537   1.300  0.00  0.00    -0.004 C 
ENDROOT
BRANCH   1   3
ATOM      3  C   UNL     1      -1.524   3.820   2.326  0.00  0.00    +0.204 C 
ATOM      4  O   UNL     1      -2.033   3.219   3.249  0.00  0.00    -0.277 OA
ATOM      5  N   UNL     1      -1.658   5.158   2.237  0.00  0.00    -0.281 N 
ATOM      6  H   UNL     1      -1.250   5.638   1.500  0.00  0.00    +0.155 HD
BRANCH   5   7
ATOM      7  C   UNL     1      -2.378   5.848   3.200  0.00  0.00    +0.084 A 
ATOM      8  C   UNL     1      -2.621   7.214   3.283  0.00  0.00    +0.065 A 
ATOM      9  C   UNL     1      -3.414   7.666   4.402  0.00  0.00    +0.022 A 
ATOM     10  C   UNL     1      -3.840   6.731   5.270  0.00  0.00    +0.048 A 
ATOM     11  S   UNL     1      -3.188   5.218   4.595  0.00  0.00    -0.081 S 
BRANCH   8  12
ATOM     12  C   UNL     1      -2.100   8.150   2.282  0.00  0.00    +0.244 C 
ATOM     13  O   UNL     1      -1.437   7.736   1.349  0.00  0.00    -0.270 OA
ATOM     14  N   UNL     1      -2.355   9.468   2.395  0.00  0.00    -0.325 N 
ATOM     15  H   UNL     1      -2.883   9.799   3.138  0.00  0.00    +0.145 HD
ATOM     16  H   UNL     1      -2.010  10.087   1.732  0.00  0.00    +0.145 HD
ENDBRANCH   8  12
ENDBRANCH   5   7
ENDBRANCH   1   3
BRANCH   1  18
ATOM     17  C   UNL     1      -0.305   0.848   0.423  0.00  0.00    -0.094 C 
ATOM     18  N   UNL     1      -0.824   1.623   1.569  0.00  0.00    +0.391 N 
ATOM     19  H   UNL     1      -1.807   1.370   1.725  0.00  0.00    -0.080 HD
BRANCH  18  20
ATOM     20  C   UNL     1      -0.048   1.305   2.786  0.00  0.00    +0.020 C 
BRANCH  20  22
ATOM     21  N   UNL     1       0.255  -0.643   4.280  0.00  0.00    -0.287 N 
ATOM     22  C   UNL     1      -0.327  -0.122   3.182  0.00  0.00    +0.201 C 
ATOM     23  O   UNL     1      -1.076  -0.801   2.513  0.00  0.00    -0.278 OA
ATOM     24  H   UNL     1       0.794  -0.079   4.857  0.00  0.00    +0.155 HD
BRANCH  21  30
ATOM     25  C   UNL     1      -2.581  -4.658   4.264  0.00  0.00    +0.044 C 
ATOM     26  C   UNL     1      -1.282  -3.968   4.591  0.00  0.00    -0.049 A 
ATOM     27  C   UNL     1      -0.259  -4.674   5.198  0.00  0.00    +0.004 A 
ATOM     28  C   UNL     1       0.935  -4.044   5.500  0.00  0.00    +0.005 A 
ATOM     29  C   UNL     1       1.108  -2.708   5.197  0.00  0.00    -0.029 A 
ATOM     30  C   UNL     1       0.083  -1.997   4.588  0.00  0.00    +0.036 A 
ATOM     31  C   UNL     1      -1.117  -2.631   4.291  0.00  0.00    +0.027 A 
ATOM     32  C   UNL     1       2.409  -2.022   5.527  0.00  0.00    +0.045 C 
ENDBRANCH  21  30
ENDBRANCH  20  22
ENDBRANCH  18  20
ENDBRANCH   1  18
TORSDOF 7
