REMARK  Name = ZINC02953158
REMARK  8 active torsions:
REMARK  status: ('A' for Active; 'I' for Inactive)
REMARK    1  A    between atoms: C_1  and  C_2
REMARK    2  A    between atoms: C_2  and  C_3
REMARK    3  A    between atoms: C_8  and  N_9
REMARK    4  A    between atoms: C_10  and  C_12
REMARK    5  A    between atoms: C_15  and  C_33
REMARK    6  A    between atoms: C_18  and  C_32
REMARK    7  A    between atoms: N_22  and  C_23
REMARK    8  A    between atoms: C_33  and  O_34
REMARK                            x       y       z     vdW  Elec       q    Type
REMARK                         _______ _______ _______ _____ _____    ______ ____
ROOT
ATOM      1  C   UNL     1      -3.756   5.879   0.281  0.00  0.00    +0.098 A 
ATOM      2  C   UNL     1      -3.806   7.251   0.394  0.00  0.00    +0.030 A 
ATOM      3  C   UNL     1      -5.130   7.867   0.516  0.00  0.00    +0.027 A 
ATOM      4  C   UNL     1      -5.316   9.247   0.373  0.00  0.00    +0.007 A 
ATOM      5  C   UNL     1      -6.593   9.754   0.498  0.00  0.00    +0.117 A 
ATOM      6  N   UNL     1      -7.622   8.964   0.747  0.00  0.00    -0.256 NA
ATOM      7  C   UNL     1      -7.497   7.661   0.891  0.00  0.00    +0.081 A 
ATOM      8  C   UNL     1      -6.251   7.059   0.783  0.00  0.00    +0.159 A 
ATOM      9  O   UNL     1      -6.096   5.722   0.931  0.00  0.00    -0.437 OA
ATOM     10  C   UNL     1      -5.042   5.152   0.287  0.00  0.00    +0.212 A 
ATOM     11  N   UNL     1      -5.161   3.988  -0.311  0.00  0.00    -0.325 N 
ATOM     12  C   UNL     1      -8.714   6.818   1.173  0.00  0.00    +0.069 C 
ATOM     13  H   UNL     1      -4.322   3.579  -0.893  0.00  0.00    +0.169 HD
ENDROOT
BRANCH  11  14
ATOM     14  C   UNL     1      -6.330   3.283  -0.208  0.00  0.00    +0.046 A 
ATOM     15  C   UNL     1      -6.549   2.445   0.888  0.00  0.00    +0.029 A 
ATOM     16  C   UNL     1      -7.730   1.740   0.991  0.00  0.00    +0.051 A 
ATOM     17  C   UNL     1      -8.698   1.851   0.004  0.00  0.00    +0.166 A 
ATOM     18  C   UNL     1      -8.484   2.680  -1.095  0.00  0.00    +0.168 A 
ATOM     19  C   UNL     1      -7.304   3.395  -1.202  0.00  0.00    +0.075 A 
ATOM     20  O   UNL     1      -9.576   2.613  -1.912  0.00  0.00    -0.453 OA
ATOM     21  C   UNL     1     -10.283   1.425  -1.511  0.00  0.00    +0.466 C 
ATOM     22  O   UNL     1      -9.925   1.264  -0.126  0.00  0.00    -0.453 OA
ENDBRANCH  11  14
BRANCH   1  24
ATOM     23  N   UNL     1      -2.455   3.823   0.048  0.00  0.00    -0.281 N 
ATOM     24  C   UNL     1      -2.472   5.166   0.155  0.00  0.00    +0.253 C 
ATOM     25  O   UNL     1      -1.428   5.790   0.149  0.00  0.00    -0.270 OA
ATOM     26  H   UNL     1      -3.400   3.264  -0.020  0.00  0.00    +0.155 HD
BRANCH  23  32
ATOM     27  C   UNL     1      -1.129   1.883   0.605  0.00  0.00    -0.026 A 
ATOM     28  C   UNL     1       0.078   1.213   0.582  0.00  0.00    +0.005 A 
ATOM     29  C   UNL     1       1.177   1.786  -0.030  0.00  0.00    +0.000 A 
ATOM     30  C   UNL     1       1.073   3.034  -0.617  0.00  0.00    +0.002 A 
ATOM     31  C   UNL     1      -0.129   3.712  -0.593  0.00  0.00    +0.023 A 
ATOM     32  C   UNL     1      -1.236   3.139   0.021  0.00  0.00    +0.037 A 
BRANCH  27  34
ATOM     33  C   UNL     1      -3.169   0.528   0.217  0.00  0.00    +0.009 C 
ATOM     34  C   UNL     1      -2.328   1.256   1.268  0.00  0.00    +0.033 C 
ENDBRANCH  27  34
ENDBRANCH  23  32
ENDBRANCH   1  24
BRANCH   4  35
ATOM     35  C   UNL     1      -4.149  10.157   0.089  0.00  0.00    +0.193 C 
BRANCH  35  36
ATOM     36  O   UNL     1      -4.611  11.506  -0.009  0.00  0.00    -0.390 OA
ATOM     37  H   UNL     1      -3.897  12.318  -0.215  0.00  0.00    +0.210 HD
ENDBRANCH  35  36
ENDBRANCH   4  35
TORSDOF 6
