REMARK  Name = ZINC59148005
REMARK  12 active torsions:
REMARK  status: ('A' for Active; 'I' for Inactive)
REMARK    1  A    between atoms: C_1  and  C_2
REMARK    2  A    between atoms: C_5  and  S_8
REMARK    3  A    between atoms: S_8  and  O_11
REMARK    4  A    between atoms: O_11  and  C_12
REMARK    5  A    between atoms: C_15  and  C_18
REMARK    6  A    between atoms: N_19  and  N_20
REMARK    7  A    between atoms: C_21  and  C_23
REMARK    8  A    between atoms: C_23  and  C_25
REMARK    9  A    between atoms: C_23  and  N_29
REMARK   10  A    between atoms: C_25  and  C_26
REMARK   11  A    between atoms: C_26  and  C_27
REMARK   12  A    between atoms: C_26  and  C_28
REMARK                            x       y       z     vdW  Elec       q    Type
REMARK                         _______ _______ _______ _____ _____    ______ ____
ROOT
ATOM      1  C   UNL     1       2.150  -4.816   1.163  0.00  0.00    +0.157 A 
ATOM      2  C   UNL     1       2.793  -3.623   1.467  0.00  0.00    +0.049 A 
ATOM      3  C   UNL     1       3.430  -3.472   2.679  0.00  0.00    +0.013 A 
ATOM      4  C   UNL     1       3.429  -4.520   3.603  0.00  0.00    -0.005 A 
ATOM      5  C   UNL     1       2.781  -5.719   3.292  0.00  0.00    +0.013 A 
ATOM      6  C   UNL     1       2.142  -5.860   2.080  0.00  0.00    +0.049 A 
ENDROOT
BRANCH   4   7
ATOM      7  C   UNL     1       4.110  -4.363   4.901  0.00  0.00    +0.138 C 
ATOM      8  N   UNL     1       4.108  -5.338   5.757  0.00  0.00    -0.188 NA
BRANCH   8   9
ATOM      9  N   UNL     1       4.755  -5.189   6.991  0.00  0.00    -0.208 N 
ATOM     10  C   UNL     1       4.753  -6.201   7.880  0.00  0.00    +0.218 C 
ATOM     11  O   UNL     1       4.191  -7.242   7.612  0.00  0.00    -0.276 OA
ATOM     12  H   UNL     1       5.205  -4.356   7.205  0.00  0.00    +0.177 HD
BRANCH  10  13
ATOM     13  C   UNL     1       5.450  -6.041   9.207  0.00  0.00    +0.015 C 
BRANCH  13  14
ATOM     14  N   UNL     1       4.926  -7.030  10.158  0.00  0.00    +0.386 N 
ATOM     15  H   UNL     1       5.092  -7.960   9.802  0.00  0.00    -0.089 HD
ATOM     16  H   UNL     1       5.392  -6.923  11.046  0.00  0.00    -0.089 HD
ATOM     17  H   UNL     1       3.934  -6.889  10.279  0.00  0.00    -0.089 HD
ENDBRANCH  13  14
BRANCH  13  18
ATOM     18  C   UNL     1       6.953  -6.255   9.023  0.00  0.00    -0.004 C 
BRANCH  18  19
ATOM     19  C   UNL     1       7.674  -5.970  10.342  0.00  0.00    -0.018 C 
ATOM     20  C   UNL     1       9.160  -6.305  10.194  0.00  0.00    +0.007 C 
ATOM     21  C   UNL     1       7.517  -4.491  10.700  0.00  0.00    +0.007 C 
ENDBRANCH  18  19
ENDBRANCH  13  18
ENDBRANCH  10  13
ENDBRANCH   8   9
ENDBRANCH   4   7
BRANCH   1  22
ATOM     22  O   UNL     1       1.522  -4.962  -0.033  0.00  0.00    -0.342 OA
BRANCH  22  23
ATOM     23  S   UNL     1       0.063  -4.530  -0.023  0.00  0.00    +0.151 S 
ATOM     24  O   UNL     1      -0.476  -4.950   1.223  0.00  0.00    -0.131 OA
ATOM     25  O   UNL     1      -0.490  -4.937  -1.267  0.00  0.00    -0.131 OA
BRANCH  23  30
ATOM     26  C   UNL     1      -0.018   1.503   0.010  0.00  0.00    +0.044 C 
ATOM     27  C   UNL     1       0.002  -0.004   0.002  0.00  0.00    -0.050 A 
ATOM     28  C   UNL     1       0.006  -0.689  -1.199  0.00  0.00    +0.005 A 
ATOM     29  C   UNL     1       0.025  -2.071  -1.206  0.00  0.00    +0.031 A 
ATOM     30  C   UNL     1       0.040  -2.768  -0.013  0.00  0.00    +0.128 A 
ATOM     31  C   UNL     1       0.037  -2.084   1.188  0.00  0.00    +0.031 A 
ATOM     32  C   UNL     1       0.023  -0.702   1.195  0.00  0.00    +0.005 A 
ENDBRANCH  23  30
ENDBRANCH  22  23
ENDBRANCH   1  22
TORSDOF 9
