REMARK  Name = ZINC39884078
REMARK  5 active torsions:
REMARK  status: ('A' for Active; 'I' for Inactive)
REMARK    1  A    between atoms: C_4  and  N_7
REMARK    2  A    between atoms: C_8  and  C_10
REMARK    3  A    between atoms: C_10  and  N_11
REMARK    4  A    between atoms: C_17  and  C_32
REMARK    5  A    between atoms: C_37  and  O_38
REMARK                            x       y       z     vdW  Elec       q    Type
REMARK                         _______ _______ _______ _____ _____    ______ ____
ROOT
ATOM      1  N   UNL     1       5.264  -3.886   0.875  0.00  0.00    -0.288 N 
ATOM      2  C   UNL     1       4.820  -4.645   1.934  0.00  0.00    +0.091 A 
ATOM      3  C   UNL     1       4.590  -5.939   1.647  0.00  0.00    +0.033 A 
ATOM      4  S   UNL     1       5.017  -6.059  -0.072  0.00  0.00    -0.030 S 
ATOM      5  C   UNL     1       5.440  -4.452  -0.333  0.00  0.00    +0.292 A 
ATOM      6  O   UNL     1       5.816  -3.928  -1.367  0.00  0.00    -0.259 OA
ATOM      7  C   UNL     1       4.081  -7.013   2.539  0.00  0.00    +0.075 C 
ATOM      8  C   UNL     1       4.029  -6.679   3.981  0.00  0.00    +0.111 C 
ATOM      9  C   UNL     1       3.554  -5.277   4.384  0.00  0.00    +0.152 C 
ATOM     10  S   UNL     1       4.576  -4.007   3.571  0.00  0.00    -0.093 S 
ATOM     11  C   UNL     1       4.014  -5.292   5.853  0.00  0.00    +0.244 C 
ATOM     12  O   UNL     1       3.524  -4.669   6.764  0.00  0.00    -0.273 OA
ATOM     13  N   UNL     1       5.067  -6.131   5.932  0.00  0.00    -0.162 N 
ATOM     14  C   UNL     1       5.249  -6.879   4.824  0.00  0.00    +0.235 C 
ATOM     15  O   UNL     1       6.203  -7.575   4.570  0.00  0.00    -0.274 OA
ATOM     16  C   UNL     1       5.868  -6.205   7.014  0.00  0.00    +0.313 C 
ATOM     17  O   UNL     1       6.802  -6.982   7.025  0.00  0.00    -0.252 OA
ATOM     18  N   UNL     1       5.632  -5.418   8.082  0.00  0.00    -0.313 N 
ATOM     19  H   UNL     1       4.886  -4.798   8.073  0.00  0.00    +0.147 HD
ATOM     20  H   UNL     1       6.209  -5.472   8.861  0.00  0.00    +0.147 HD
ENDROOT
BRANCH   7  21
ATOM     21  C   UNL     1       4.963  -8.223   2.370  0.00  0.00    +0.003 A 
ATOM     22  C   UNL     1       4.420  -9.491   2.452  0.00  0.00    +0.008 A 
ATOM     23  C   UNL     1       5.228 -10.602   2.298  0.00  0.00    +0.001 A 
ATOM     24  C   UNL     1       6.582 -10.447   2.061  0.00  0.00    +0.004 A 
ATOM     25  C   UNL     1       7.130  -9.182   1.978  0.00  0.00    +0.046 A 
ATOM     26  C   UNL     1       6.319  -8.066   2.127  0.00  0.00    +0.121 A 
BRANCH  26  27
ATOM     27  O   UNL     1       6.855  -6.819   2.040  0.00  0.00    -0.506 OA
ATOM     28  H   UNL     1       7.107  -6.440   2.893  0.00  0.00    +0.292 HD
ENDBRANCH  26  27
ENDBRANCH   7  21
BRANCH   1  29
ATOM     29  C   UNL     1       5.540  -2.460   1.061  0.00  0.00    +0.222 C 
BRANCH  29  31
ATOM     30  N   UNL     1       4.306  -0.322   0.895  0.00  0.00    -0.284 N 
ATOM     31  C   UNL     1       4.290  -1.665   0.786  0.00  0.00    +0.237 C 
ATOM     32  O   UNL     1       3.268  -2.235   0.465  0.00  0.00    -0.274 OA
ATOM     33  H   UNL     1       5.142   0.140   1.067  0.00  0.00    +0.155 HD
BRANCH  30  37
ATOM     34  C   UNL     1       0.770   1.845   0.498  0.00  0.00    +0.000 A 
ATOM     35  C   UNL     1       0.730   0.531   0.929  0.00  0.00    +0.002 A 
ATOM     36  C   UNL     1       1.901  -0.190   1.062  0.00  0.00    +0.023 A 
ATOM     37  C   UNL     1       3.119   0.405   0.761  0.00  0.00    +0.033 A 
ATOM     38  C   UNL     1       3.156   1.724   0.328  0.00  0.00    +0.023 A 
ATOM     39  C   UNL     1       1.982   2.440   0.198  0.00  0.00    +0.002 A 
ENDBRANCH  30  37
ENDBRANCH  29  31
ENDBRANCH   1  29
TORSDOF 5
