REMARK  Name = ZINC43259874
REMARK  11 active torsions:
REMARK  status: ('A' for Active; 'I' for Inactive)
REMARK    1  A    between atoms: C_1  and  C_2
REMARK    2  A    between atoms: C_2  and  C_3
REMARK    3  A    between atoms: C_3  and  C_5
REMARK    4  A    between atoms: C_3  and  N_21
REMARK    5  A    between atoms: C_5  and  C_7
REMARK    6  A    between atoms: C_5  and  N_13
REMARK    7  A    between atoms: N_13  and  C_14
REMARK    8  A    between atoms: N_13  and  C_15
REMARK    9  A    between atoms: C_15  and  C_16
REMARK   10  A    between atoms: N_18  and  C_19
REMARK   11  A    between atoms: N_18  and  C_20
REMARK                            x       y       z     vdW  Elec       q    Type
REMARK                         _______ _______ _______ _____ _____    ______ ____
ROOT
ATOM      1  C   UNL     1      -1.504  -2.094   0.173  0.00  0.00    -0.045 C 
ENDROOT
BRANCH   1   2
ATOM      2  C   UNL     1      -2.925  -2.587   0.082  0.00  0.00    -0.024 A 
ATOM      3  C   UNL     1      -3.558  -3.179  -0.961  0.00  0.00    +0.010 A 
ATOM      4  C   UNL     1      -4.881  -3.554  -0.817  0.00  0.00    +0.023 A 
ATOM      5  C   UNL     1      -5.506  -3.318   0.364  0.00  0.00    +0.055 A 
ATOM      6  S   UNL     1      -4.209  -2.551   1.321  0.00  0.00    -0.088 S 
ATOM      7 BR   UNL     1      -7.287  -3.707   0.867  0.00  0.00    -0.043 Br
ENDBRANCH   1   2
BRANCH   1   8
ATOM      8  N   UNL     1      -0.955  -2.424   1.494  0.00  0.00    +0.387 N 
ATOM      9  C   UNL     1       0.414  -1.901   1.600  0.00  0.00    -0.095 C 
ATOM     10  H   UNL     1      -1.530  -2.008   2.211  0.00  0.00    -0.081 HD
BRANCH   8  11
ATOM     11  C   UNL     1      -0.937  -3.883   1.667  0.00  0.00    +0.019 C 
BRANCH  11  12
ATOM     12  C   UNL     1      -0.489  -4.218   3.066  0.00  0.00    +0.199 C 
ATOM     13  O   UNL     1      -0.213  -3.329   3.844  0.00  0.00    -0.278 OA
ATOM     14  N   UNL     1      -0.396  -5.505   3.454  0.00  0.00    -0.309 N 
ATOM     15  C   UNL     1       0.039  -5.830   4.815  0.00  0.00    +0.131 C 
ATOM     16  C   UNL     1      -0.730  -6.579   2.515  0.00  0.00    +0.131 C 
ENDBRANCH  11  12
ENDBRANCH   8  11
ENDBRANCH   1   8
BRANCH   1  17
ATOM     17  C   UNL     1      -1.478  -0.577  -0.027  0.00  0.00    -0.085 C 
BRANCH  17  18
ATOM     18  N   UNL     1      -2.286   0.068   1.016  0.00  0.00    +0.379 N 
ATOM     19  H   UNL     1      -1.908  -0.159   1.923  0.00  0.00    -0.090 HD
ATOM     20  H   UNL     1      -2.269   1.068   0.884  0.00  0.00    -0.090 HD
ATOM     21  H   UNL     1      -3.238  -0.262   0.956  0.00  0.00    -0.090 HD
ENDBRANCH  17  18
BRANCH  17  23
ATOM     22  C   UNL     1      -1.879   1.264  -1.667  0.00  0.00    +0.002 C 
ATOM     23  C   UNL     1      -2.051  -0.234  -1.403  0.00  0.00    -0.021 C 
ENDBRANCH  17  23
ENDBRANCH   1  17
TORSDOF 7
