REMARK  Name = ZINC66698627
REMARK  7 active torsions:
REMARK  status: ('A' for Active; 'I' for Inactive)
REMARK    1  A    between atoms: C_1  and  C_2
REMARK    2  A    between atoms: C_2  and  C_3
REMARK    3  A    between atoms: C_3  and  C_4
REMARK    4  A    between atoms: C_4  and  N_5
REMARK    5  A    between atoms: C_10  and  C_12
REMARK    6  A    between atoms: C_12  and  N_13
REMARK    7  A    between atoms: N_16  and  C_17
REMARK                            x       y       z     vdW  Elec       q    Type
REMARK                         _______ _______ _______ _____ _____    ______ ____
ROOT
ATOM      1  N   UNL     1      -0.791  -3.765  -1.635  0.00  0.00    -0.301 N 
ATOM      2  C   UNL     1      -2.088  -4.082  -1.454  0.00  0.00    +0.300 C 
ATOM      3  O   UNL     1      -2.614  -4.919  -2.162  0.00  0.00    -0.253 OA
ATOM      4  N   UNL     1      -2.803  -3.470  -0.490  0.00  0.00    -0.293 N 
ATOM      5  H   UNL     1      -0.372  -3.096  -1.071  0.00  0.00    +0.150 HD
ATOM      6  H   UNL     1      -2.384  -2.801   0.075  0.00  0.00    +0.151 HD
ENDROOT
BRANCH   4   7
ATOM      7  C   UNL     1      -4.214  -3.814  -0.293  0.00  0.00    +0.106 C 
ATOM      8  C   UNL     1      -4.937  -2.630   0.344  0.00  0.00    +0.027 C 
ATOM      9  C   UNL     1      -6.344  -3.088   0.748  0.00  0.00    +0.008 C 
ATOM     10  C   UNL     1      -6.212  -4.072   1.907  0.00  0.00    +0.054 C 
ATOM     11  C   UNL     1      -5.215  -5.154   1.577  0.00  0.00    +0.024 A 
ATOM     12  C   UNL     1      -4.309  -5.033   0.587  0.00  0.00    -0.008 A 
ATOM     13  C   UNL     1      -3.398  -6.080   0.344  0.00  0.00    +0.012 A 
ATOM     14  C   UNL     1      -3.441  -7.208   1.105  0.00  0.00    +0.070 A 
ATOM     15  C   UNL     1      -4.402  -7.304   2.125  0.00  0.00    +0.249 A 
ATOM     16  O   UNL     1      -4.461  -8.307   2.818  0.00  0.00    -0.268 OA
ATOM     17  N   UNL     1      -5.256  -6.291   2.333  0.00  0.00    -0.326 N 
ATOM     18  H   UNL     1      -5.918  -6.367   3.039  0.00  0.00    +0.169 HD
ENDBRANCH   4   7
BRANCH   1  19
ATOM     19  C   UNL     1      -0.014  -4.429  -2.684  0.00  0.00    +0.090 C 
BRANCH  19  25
ATOM     20  N   UNL     1       1.951  -4.228  -1.238  0.00  0.00    +0.383 N 
ATOM     21  C   UNL     1       3.374  -3.875  -1.164  0.00  0.00    -0.078 C 
ATOM     22  C   UNL     1       3.547  -2.379  -1.434  0.00  0.00    -0.019 C 
ATOM     23  C   UNL     1       3.010  -2.052  -2.831  0.00  0.00    -0.003 C 
ATOM     24  C   UNL     1       1.546  -2.493  -2.920  0.00  0.00    -0.014 C 
ATOM     25  C   UNL     1       1.448  -3.985  -2.595  0.00  0.00    -0.051 C 
ATOM     26  H   UNL     1       1.432  -3.664  -0.582  0.00  0.00    -0.081 HD
BRANCH  20  27
ATOM     27  C   UNL     1       1.782  -5.648  -0.903  0.00  0.00    -0.078 C 
BRANCH  27  28
ATOM     28  C   UNL     1       2.180  -5.878   0.557  0.00  0.00    -0.019 C 
BRANCH  28  30
ATOM     29  C   UNL     1       2.401  -7.586   2.366  0.00  0.00    +0.004 C 
ATOM     30  C   UNL     1       2.004  -7.357   0.907  0.00  0.00    -0.005 C 
ENDBRANCH  28  30
ENDBRANCH  27  28
ENDBRANCH  20  27
ENDBRANCH  19  25
ENDBRANCH   1  19
TORSDOF 6
