REMARK  Name = ZINC20275677
REMARK  8 active torsions:
REMARK  status: ('A' for Active; 'I' for Inactive)
REMARK    1  A    between atoms: C_1  and  C_2
REMARK    2  A    between atoms: C_5  and  C_29
REMARK    3  A    between atoms: C_5  and  O_33
REMARK    4  A    between atoms: C_17  and  C_28
REMARK    5  A    between atoms: C_22  and  C_23
REMARK    6  A    between atoms: C_22  and  O_27
REMARK    7  A    between atoms: C_23  and  N_24
REMARK    8  A    between atoms: C_29  and  N_30
REMARK                            x       y       z     vdW  Elec       q    Type
REMARK                         _______ _______ _______ _____ _____    ______ ____
ROOT
ATOM      1  C   UNL     1      -0.964  -2.610   2.154  0.00  0.00    +0.012 C 
ATOM      2  C   UNL     1      -1.202  -1.116   2.478  0.00  0.00    -0.026 C 
ATOM      3  C   UNL     1       0.147  -0.409   2.495  0.00  0.00    +0.010 C 
ATOM      4  C   UNL     1       0.854  -0.525   1.149  0.00  0.00    +0.033 C 
ATOM      5  C   UNL     1       0.002  -0.004   0.002  0.00  0.00    +0.052 C 
ATOM      6  C   UNL     1      -1.410  -0.563   0.013  0.00  0.00    +0.037 C 
ATOM      7  C   UNL     1      -2.083  -0.554   1.371  0.00  0.00    -0.002 C 
ATOM      8  C   UNL     1      -2.578   0.843   1.740  0.00  0.00    +0.004 C 
ATOM      9  C   UNL     1      -3.498   0.683   2.956  0.00  0.00    +0.004 C 
ATOM     10  C   UNL     1      -2.656   0.216   4.145  0.00  0.00    -0.004 C 
ATOM     11  C   UNL     1      -1.873  -1.051   3.844  0.00  0.00    -0.001 C 
ATOM     12  C   UNL     1      -0.888  -1.422   4.948  0.00  0.00    +0.005 C 
ATOM     13  C   UNL     1      -0.050  -0.250   5.468  0.00  0.00    +0.010 C 
ATOM     14  C   UNL     1      -0.968   0.885   5.858  0.00  0.00    -0.002 C 
ATOM     15  C   UNL     1      -1.734   1.326   4.590  0.00  0.00    +0.001 C 
ATOM     16  C   UNL     1      -2.410   2.623   5.055  0.00  0.00    +0.007 C 
ATOM     17  C   UNL     1      -1.327   3.295   5.939  0.00  0.00    +0.034 C 
ATOM     18  C   UNL     1      -0.315   2.186   6.329  0.00  0.00    +0.057 C 
ATOM     19  C   UNL     1      -1.927   0.423   6.961  0.00  0.00    +0.014 C 
ENDROOT
BRANCH  18  20
ATOM     20  O   UNL     1      -0.146   2.156   7.750  0.00  0.00    -0.390 OA
ATOM     21  H   UNL     1       0.310   3.012   8.268  0.00  0.00    +0.210 HD
ENDBRANCH  18  20
BRANCH   5  22
ATOM     22  O   UNL     1       0.632  -0.415  -1.233  0.00  0.00    -0.390 OA
ATOM     23  H   UNL     1       0.180  -0.142  -2.198  0.00  0.00    +0.210 HD
ENDBRANCH   5  22
BRANCH  18  24
ATOM     24  C   UNL     1       1.026   2.429   5.642  0.00  0.00    -0.043 C 
BRANCH  24  25
ATOM     25  N   UNL     1       1.605   3.687   6.130  0.00  0.00    +0.379 N 
ATOM     26  C   UNL     1       1.852   4.618   5.021  0.00  0.00    -0.098 C 
ATOM     27  C   UNL     1       2.994   3.839   5.675  0.00  0.00    -0.098 C 
ATOM     28  H   UNL     1       1.103   3.771   7.105  0.00  0.00    -0.082 HD
ENDBRANCH  24  25
ENDBRANCH  18  24
BRANCH   5  29
ATOM     29  C   UNL     1      -0.019   1.528   0.010  0.00  0.00    -0.044 C 
BRANCH  29  30
ATOM     30  N   UNL     1       1.359   2.036   0.000  0.00  0.00    +0.379 N 
ATOM     31  C   UNL     1       1.612   2.897   1.163  0.00  0.00    -0.098 C 
ATOM     32  C   UNL     1       1.384   3.487  -0.231  0.00  0.00    -0.098 C 
ATOM     33  H   UNL     1       1.883   1.179  -0.448  0.00  0.00    -0.082 HD
ENDBRANCH  29  30
ENDBRANCH   5  29
TORSDOF 6
