REMARK  Name = ZINC27106525
REMARK  10 active torsions:
REMARK  status: ('A' for Active; 'I' for Inactive)
REMARK    1  A    between atoms: C_1  and  C_2
REMARK    2  A    between atoms: C_6  and  C_36
REMARK    3  A    between atoms: C_7  and  N_8
REMARK    4  A    between atoms: C_9  and  C_11
REMARK    5  A    between atoms: C_11  and  N_12
REMARK    6  A    between atoms: C_18  and  C_20
REMARK    7  A    between atoms: C_20  and  C_21
REMARK    8  A    between atoms: C_21  and  C_22
REMARK    9  A    between atoms: C_22  and  C_23
REMARK   10  A    between atoms: C_23  and  C_24
REMARK                            x       y       z     vdW  Elec       q    Type
REMARK                         _______ _______ _______ _____ _____    ______ ____
ROOT
ATOM      1  N   UNL     1       8.333   7.301  -3.914  0.00  0.00    +0.387 N 
ATOM      2  C   UNL     1       7.051   7.406  -4.623  0.00  0.00    -0.059 C 
ATOM      3  C   UNL     1       6.028   6.475  -3.963  0.00  0.00    +0.089 C 
ATOM      4  N   UNL     1       6.598   5.120  -3.906  0.00  0.00    -0.305 N 
ATOM      5  C   UNL     1       7.940   4.954  -3.327  0.00  0.00    +0.089 C 
ATOM      6  C   UNL     1       8.889   5.945  -4.017  0.00  0.00    -0.059 C 
ATOM      7  C   UNL     1       5.907   4.059  -4.368  0.00  0.00    +0.215 C 
ATOM      8  O   UNL     1       4.800   4.214  -4.838  0.00  0.00    -0.276 OA
ATOM      9  H   UNL     1       8.144   7.505  -2.849  0.00  0.00    -0.081 HD
ENDROOT
BRANCH   1  10
ATOM     10  C   UNL     1       9.290   8.302  -4.405  0.00  0.00    +0.019 C 
BRANCH  10  12
ATOM     11  N   UNL     1      11.509   9.180  -3.757  0.00  0.00    -0.287 N 
ATOM     12  C   UNL     1      10.494   8.331  -3.500  0.00  0.00    +0.201 C 
ATOM     13  O   UNL     1      10.551   7.591  -2.541  0.00  0.00    -0.278 OA
ATOM     14  H   UNL     1      11.486   9.808  -4.660  0.00  0.00    +0.155 HD
BRANCH  11  21
ATOM     15  C   UNL     1      10.969   9.624  -0.999  0.00  0.00    +0.045 C 
ATOM     16  C   UNL     1      12.374   9.477  -1.522  0.00  0.00    -0.029 A 
ATOM     17  C   UNL     1      13.446   9.552  -0.654  0.00  0.00    +0.005 A 
ATOM     18  C   UNL     1      14.736   9.422  -1.133  0.00  0.00    +0.001 A 
ATOM     19  C   UNL     1      14.958   9.213  -2.482  0.00  0.00    +0.005 A 
ATOM     20  C   UNL     1      13.891   9.132  -3.355  0.00  0.00    -0.029 A 
ATOM     21  C   UNL     1      12.593   9.261  -2.876  0.00  0.00    +0.039 A 
ATOM     22  C   UNL     1      14.133   8.903  -4.824  0.00  0.00    +0.045 C 
ENDBRANCH  11  21
ENDBRANCH  10  12
ENDBRANCH   1  10
BRANCH   7  23
ATOM     23  C   UNL     1       6.511   2.680  -4.300  0.00  0.00    +0.096 C 
BRANCH  23  24
ATOM     24  C   UNL     1       5.527   1.664  -4.885  0.00  0.00    +0.009 C 
BRANCH  24  25
ATOM     25  C   UNL     1       6.140   0.263  -4.816  0.00  0.00    +0.002 C 
BRANCH  25  26
ATOM     26  C   UNL     1       5.157  -0.753  -5.400  0.00  0.00    +0.016 C 
BRANCH  26  27
ATOM     27  C   UNL     1       5.769  -2.153  -5.331  0.00  0.00    +0.069 C 
ATOM     28  C   UNL     1       4.760  -3.224  -5.798  0.00  0.00    +0.108 C 
ATOM     29  C   UNL     1       5.387  -4.334  -6.646  0.00  0.00    +0.105 C 
ATOM     30  C   UNL     1       6.905  -4.163  -6.866  0.00  0.00    +0.093 C 
ATOM     31  S   UNL     1       7.113  -2.351  -6.581  0.00  0.00    -0.154 S 
ATOM     32  N   UNL     1       4.698  -4.227  -7.941  0.00  0.00    -0.294 N 
ATOM     33  C   UNL     1       3.810  -3.225  -7.882  0.00  0.00    +0.300 C 
ATOM     34  O   UNL     1       3.098  -2.913  -8.817  0.00  0.00    -0.253 OA
ATOM     35  N   UNL     1       3.777  -2.599  -6.698  0.00  0.00    -0.294 N 
ATOM     36  H   UNL     1       4.955  -4.916  -8.759  0.00  0.00    +0.151 HD
ATOM     37  H   UNL     1       3.167  -1.754  -6.345  0.00  0.00    +0.151 HD
ENDBRANCH  26  27
ENDBRANCH  25  26
ENDBRANCH  24  25
ENDBRANCH  23  24
ENDBRANCH   7  23
TORSDOF 8
