REMARK  Name = ZINC64104243
REMARK  8 active torsions:
REMARK  status: ('A' for Active; 'I' for Inactive)
REMARK    1  A    between atoms: C_1  and  C_2
REMARK    2  A    between atoms: C_2  and  C_4
REMARK    3  A    between atoms: C_2  and  N_14
REMARK    4  A    between atoms: C_15  and  C_17
REMARK    5  A    between atoms: C_17  and  C_18
REMARK    6  A    between atoms: C_18  and  N_19
REMARK    7  A    between atoms: N_19  and  S_20
REMARK    8  A    between atoms: S_20  and  C_23
REMARK                            x       y       z     vdW  Elec       q    Type
REMARK                         _______ _______ _______ _____ _____    ______ ____
ROOT
ATOM      1  N   UNL     1       0.711  -0.489   1.189  0.00  0.00    -0.309 N 
ATOM      2  C   UNL     1       2.054  -0.600   1.174  0.00  0.00    +0.215 C 
ATOM      3  O   UNL     1       2.676  -0.297   0.177  0.00  0.00    -0.276 OA
ATOM      4  H   UNL     1       0.213  -0.731   1.986  0.00  0.00    +0.149 HD
ENDROOT
BRANCH   1   6
ATOM      5  C   UNL     1      -0.019   1.526   0.010  0.00  0.00    +0.033 C 
ATOM      6  C   UNL     1       0.002  -0.004   0.002  0.00  0.00    +0.100 C 
BRANCH   6   7
ATOM      7  C   UNL     1      -1.412  -0.526   0.013  0.00  0.00    -0.026 A 
ATOM      8  C   UNL     1      -2.142  -0.564   1.274  0.00  0.00    +0.007 A 
ATOM      9  C   UNL     1      -3.411  -1.019   1.353  0.00  0.00    +0.025 A 
ATOM     10  C   UNL     1      -4.085  -1.490   0.145  0.00  0.00    +0.056 A 
ATOM     11  N   UNL     1      -5.270  -1.978  -0.121  0.00  0.00    -0.268 N 
ATOM     12  C   UNL     1      -5.336  -2.250  -1.467  0.00  0.00    +0.308 C 
ATOM     13  O   UNL     1      -6.300  -2.712  -2.039  0.00  0.00    -0.252 OA
ATOM     14  N   UNL     1      -4.144  -1.919  -2.067  0.00  0.00    -0.268 N 
ATOM     15  C   UNL     1      -3.335  -1.451  -1.151  0.00  0.00    +0.056 A 
ATOM     16  C   UNL     1      -1.966  -0.939  -1.148  0.00  0.00    +0.030 A 
ATOM     17  H   UNL     1      -5.981  -2.123   0.523  0.00  0.00    +0.156 HD
ATOM     18  H   UNL     1      -3.938  -2.016  -3.010  0.00  0.00    +0.156 HD
ENDBRANCH   6   7
ENDBRANCH   1   6
BRANCH   2  19
ATOM     19  C   UNL     1       2.783  -1.099   2.395  0.00  0.00    +0.112 C 
BRANCH  19  20
ATOM     20  C   UNL     1       4.287  -1.129   2.114  0.00  0.00    +0.115 C 
BRANCH  20  21
ATOM     21  N   UNL     1       4.995  -1.614   3.301  0.00  0.00    -0.189 NA
ATOM     22  H   UNL     1       4.540  -1.649   4.157  0.00  0.00    +0.148 HD
BRANCH  21  23
ATOM     23  S   UNL     1       6.573  -2.103   3.181  0.00  0.00    +0.058 S 
ATOM     24  O   UNL     1       6.979  -2.486   4.488  0.00  0.00    -0.153 OA
ATOM     25  O   UNL     1       6.641  -2.988   2.072  0.00  0.00    -0.153 OA
BRANCH  23  26
ATOM     26  C   UNL     1       7.526  -0.684   2.753  0.00  0.00    +0.106 A 
ATOM     27  C   UNL     1       7.734  -0.364   1.424  0.00  0.00    +0.029 A 
ATOM     28  C   UNL     1       8.485   0.746   1.097  0.00  0.00    +0.006 A 
ATOM     29  C   UNL     1       9.032   1.547   2.092  0.00  0.00    -0.044 A 
ATOM     30  C   UNL     1       8.821   1.230   3.415  0.00  0.00    -0.042 A 
ATOM     31  C   UNL     1       8.063   0.113   3.742  0.00  0.00    +0.032 A 
ATOM     32  C   UNL     1       9.370   2.061   4.545  0.00  0.00    +0.035 C 
ATOM     33  C   UNL     1      10.496   2.966   4.048  0.00  0.00    +0.005 C 
ATOM     34  C   UNL     1       9.996   3.729   2.816  0.00  0.00    +0.005 C 
ATOM     35  C   UNL     1       9.847   2.739   1.663  0.00  0.00    +0.035 C 
ENDBRANCH  23  26
ENDBRANCH  21  23
ENDBRANCH  20  21
ENDBRANCH  19  20
ENDBRANCH   2  19
TORSDOF 7
