REMARK  Name = ZINC11291838
REMARK  11 active torsions:
REMARK  status: ('A' for Active; 'I' for Inactive)
REMARK    1  A    between atoms: C_1  and  C_2
REMARK    2  A    between atoms: C_2  and  O_3
REMARK    3  A    between atoms: O_3  and  C_4
REMARK    4  A    between atoms: C_4  and  C_6
REMARK    5  A    between atoms: C_7  and  C_21
REMARK    6  A    between atoms: C_12  and  C_14
REMARK    7  A    between atoms: C_21  and  N_57
REMARK    8  A    between atoms: C_22  and  N_57
REMARK    9  A    between atoms: C_23  and  C_24
REMARK   10  A    between atoms: C_23  and  N_57
REMARK   11  A    between atoms: N_26  and  C_27
REMARK                            x       y       z     vdW  Elec       q    Type
REMARK                         _______ _______ _______ _____ _____    ______ ____
ROOT
ATOM      1  C   UNL     1       1.231  -1.020   1.783  0.00  0.00    +0.076 C 
ATOM      2  C   UNL     1       0.067  -0.383   2.035  0.00  0.00    +0.008 C 
ATOM      3  N   UNL     1      -1.089  -1.080   2.240  0.00  0.00    -0.274 N 
ATOM      4  C   UNL     1      -1.164  -2.417   2.213  0.00  0.00    +0.304 C 
ATOM      5  O   UNL     1      -2.240  -2.949   2.407  0.00  0.00    -0.252 OA
ATOM      6  N   UNL     1      -0.087  -3.191   1.978  0.00  0.00    -0.288 N 
ATOM      7  C   UNL     1       1.211  -2.535   1.745  0.00  0.00    +0.143 C 
ATOM      8  H   UNL     1      -1.901  -0.579   2.413  0.00  0.00    +0.156 HD
ATOM      9  H   UNL     1      -0.164  -4.158   1.964  0.00  0.00    +0.151 HD
ENDROOT
BRANCH   7  10
ATOM     10  C   UNL     1       2.180  -3.042   2.781  0.00  0.00    -0.022 A 
ATOM     11  C   UNL     1       1.764  -3.226   4.087  0.00  0.00    +0.007 A 
ATOM     12  C   UNL     1       2.651  -3.696   5.036  0.00  0.00    +0.020 A 
ATOM     13  C   UNL     1       3.960  -3.972   4.683  0.00  0.00    +0.041 A 
ATOM     14  C   UNL     1       4.378  -3.782   3.378  0.00  0.00    +0.020 A 
ATOM     15  C   UNL     1       3.488  -3.317   2.428  0.00  0.00    +0.007 A 
ATOM     16 CL   UNL     1       5.077  -4.556   5.876  0.00  0.00    -0.084 Cl
ENDBRANCH   7  10
BRANCH   1  17
ATOM     17  C   UNL     1       2.428  -0.299   1.566  0.00  0.00    +0.339 C 
ATOM     18  O   UNL     1       2.449   0.907   1.725  0.00  0.00    -0.245 OA
BRANCH  17  19
ATOM     19  O   UNL     1       3.547  -0.948   1.182  0.00  0.00    -0.462 OA
BRANCH  19  21
ATOM     20  C   UNL     1       5.877  -1.061   0.552  0.00  0.00    +0.048 C 
ATOM     21  C   UNL     1       4.719  -0.157   0.981  0.00  0.00    +0.229 C 
ENDBRANCH  19  21
ENDBRANCH  17  19
ENDBRANCH   1  17
BRANCH   2  22
ATOM     22  C   UNL     1       0.043   1.123   2.087  0.00  0.00    -0.026 C 
BRANCH  22  24
ATOM     23  C   UNL     1      -0.554   1.175   4.433  0.00  0.00    -0.095 C 
ATOM     24  N   UNL     1       0.465   1.561   3.434  0.00  0.00    +0.387 N 
ATOM     25  H   UNL     1       1.353   1.105   3.670  0.00  0.00    -0.081 HD
BRANCH  24  26
ATOM     26  C   UNL     1       0.658   3.027   3.451  0.00  0.00    +0.019 C 
BRANCH  26  27
ATOM     27  C   UNL     1       1.294   3.417   4.760  0.00  0.00    +0.201 C 
ATOM     28  O   UNL     1       1.542   2.569   5.591  0.00  0.00    -0.278 OA
ATOM     29  N   UNL     1       1.589   4.709   5.007  0.00  0.00    -0.286 N 
ATOM     30  H   UNL     1       1.321   5.397   4.377  0.00  0.00    +0.155 HD
BRANCH  29  31
ATOM     31  C   UNL     1       2.280   5.059   6.173  0.00  0.00    +0.052 A 
ATOM     32  C   UNL     1       3.014   4.101   6.861  0.00  0.00    +0.025 A 
ATOM     33  C   UNL     1       3.699   4.451   8.008  0.00  0.00    +0.002 A 
ATOM     34  C   UNL     1       3.647   5.750   8.478  0.00  0.00    +0.002 A 
ATOM     35  C   UNL     1       2.913   6.706   7.800  0.00  0.00    +0.022 A 
ATOM     36  C   UNL     1       2.229   6.364   6.648  0.00  0.00    +0.062 A 
ATOM     37 CL   UNL     1       1.307   7.563   5.796  0.00  0.00    -0.082 Cl
ENDBRANCH  29  31
ENDBRANCH  26  27
ENDBRANCH  24  26
ENDBRANCH  22  24
ENDBRANCH   2  22
TORSDOF 9
