REMARK  Name = ZINC43285154
REMARK  8 active torsions:
REMARK  status: ('A' for Active; 'I' for Inactive)
REMARK    1  A    between atoms: C_1  and  C_2
REMARK    2  A    between atoms: C_2  and  C_3
REMARK    3  A    between atoms: C_3  and  C_5
REMARK    4  A    between atoms: C_3  and  N_21
REMARK    5  A    between atoms: C_5  and  C_7
REMARK    6  A    between atoms: C_5  and  N_13
REMARK    7  A    between atoms: C_16  and  C_19
REMARK    8  A    between atoms: C_19  and  O_20
REMARK                            x       y       z     vdW  Elec       q    Type
REMARK                         _______ _______ _______ _____ _____    ______ ____
ROOT
ATOM      1  C   UNL     1      -1.425  -1.943  -0.100  0.00  0.00    +0.079 C 
ENDROOT
BRANCH   1   2
ATOM      2  C   UNL     1      -0.783  -2.503  -1.343  0.00  0.00    +0.006 A 
ATOM      3  C   UNL     1       0.495  -2.915  -1.532  0.00  0.00    +0.028 A 
ATOM      4  C   UNL     1       0.867  -3.398  -2.773  0.00  0.00    +0.025 A 
ATOM      5  C   UNL     1      -0.058  -3.446  -3.764  0.00  0.00    +0.060 A 
ATOM      6  S   UNL     1      -1.509  -2.803  -2.947  0.00  0.00    -0.099 S 
ATOM      7 BR   UNL     1       2.638  -3.983  -3.084  0.00  0.00    -0.050 Br
ENDBRANCH   1   2
BRANCH   1   8
ATOM      8  N   UNL     1      -2.780  -2.494   0.041  0.00  0.00    -0.296 NA
ATOM      9  C   UNL     1      -3.445  -1.955   1.234  0.00  0.00    +0.085 C 
ATOM     10  C   UNL     1      -4.898  -2.435   1.270  0.00  0.00    +0.021 C 
ATOM     11  C   UNL     1      -4.924  -3.966   1.296  0.00  0.00    +0.017 C 
ATOM     12  C   UNL     1      -4.183  -4.502   0.068  0.00  0.00    +0.021 C 
ATOM     13  C   UNL     1      -2.751  -3.962   0.067  0.00  0.00    +0.085 C 
BRANCH  11  14
ATOM     14  C   UNL     1      -6.374  -4.453   1.271  0.00  0.00    +0.159 C 
BRANCH  14  15
ATOM     15  O   UNL     1      -6.402  -5.875   1.412  0.00  0.00    -0.395 OA
ATOM     16  H   UNL     1      -7.291  -6.254   1.405  0.00  0.00    +0.209 HD
ENDBRANCH  14  15
ENDBRANCH  11  14
ENDBRANCH   1   8
BRANCH   1  17
ATOM     17  C   UNL     1      -1.504  -0.419  -0.208  0.00  0.00    -0.053 C 
BRANCH  17  18
ATOM     18  N   UNL     1      -0.163   0.123  -0.469  0.00  0.00    +0.381 N 
ATOM     19  H   UNL     1      -0.196   1.131  -0.439  0.00  0.00    -0.090 HD
ATOM     20  H   UNL     1       0.478  -0.214   0.234  0.00  0.00    -0.090 HD
ATOM     21  H   UNL     1       0.150  -0.177  -1.380  0.00  0.00    -0.090 HD
ENDBRANCH  17  18
BRANCH  17  23
ATOM     22  C   UNL     1      -2.616   1.483  -1.386  0.00  0.00    +0.002 C 
ATOM     23  C   UNL     1      -2.440  -0.037  -1.356  0.00  0.00    -0.018 C 
ENDBRANCH  17  23
ENDBRANCH   1  17
TORSDOF 7
