REMARK  Name = ZINC54108990
REMARK  7 active torsions:
REMARK  status: ('A' for Active; 'I' for Inactive)
REMARK    1  A    between atoms: C_3  and  N_21
REMARK    2  A    between atoms: C_4  and  N_18
REMARK    3  A    between atoms: C_6  and  S_7
REMARK    4  A    between atoms: S_7  and  N_10
REMARK    5  A    between atoms: N_10  and  C_11
REMARK    6  A    between atoms: C_11  and  C_12
REMARK    7  A    between atoms: C_12  and  N_13
REMARK                            x       y       z     vdW  Elec       q    Type
REMARK                         _______ _______ _______ _____ _____    ______ ____
ROOT
ATOM      1  S   UNL     1      -1.545  -0.842   0.128  0.00  0.00    +0.058 S 
ATOM      2  O   UNL     1      -1.335  -1.970   0.967  0.00  0.00    -0.153 OA
ATOM      3  O   UNL     1      -2.547   0.129   0.394  0.00  0.00    -0.153 OA
ENDROOT
BRANCH   1   9
ATOM      4  C   UNL     1       0.005   1.371  -0.252  0.00  0.00    +0.030 A 
ATOM      5  C   UNL     1       1.205   2.053  -0.311  0.00  0.00    +0.027 A 
ATOM      6  C   UNL     1       2.396   1.381  -0.064  0.00  0.00    +0.055 A 
ATOM      7  C   UNL     1       2.375   0.026   0.242  0.00  0.00    +0.149 A 
ATOM      8  C   UNL     1       1.172  -0.648   0.299  0.00  0.00    +0.063 A 
ATOM      9  C   UNL     1      -0.012   0.023   0.053  0.00  0.00    +0.108 A 
BRANCH   7  10
ATOM     10  N   UNL     1       3.641  -0.693   0.505  0.00  0.00    +0.058 N 
ATOM     11  O   UNL     1       3.782  -1.830   0.121  0.00  0.00    -0.126 OA
ATOM     12  O   UNL     1       4.536  -0.143   1.105  0.00  0.00    -0.126 OA
ENDBRANCH   7  10
BRANCH   6  13
ATOM     13  N   UNL     1       3.611   2.067  -0.124  0.00  0.00    -0.356 N 
ATOM     14  H   UNL     1       3.619   3.032  -0.227  0.00  0.00    +0.142 HD
ATOM     15  H   UNL     1       4.447   1.579  -0.063  0.00  0.00    +0.142 HD
ENDBRANCH   6  13
ENDBRANCH   1   9
BRANCH   1  16
ATOM     16  N   UNL     1      -1.849  -1.432  -1.389  0.00  0.00    -0.192 NA
ATOM     17  H   UNL     1      -2.612  -1.107  -1.892  0.00  0.00    +0.148 HD
BRANCH  16  18
ATOM     18  C   UNL     1      -0.966  -2.445  -1.972  0.00  0.00    +0.087 C 
BRANCH  18  19
ATOM     19  C   UNL     1      -1.651  -3.084  -3.182  0.00  0.00    -0.062 C 
BRANCH  19  20
ATOM     20  N   UNL     1      -0.765  -4.100  -3.766  0.00  0.00    +0.381 N 
ATOM     21  C   UNL     1      -0.631  -5.255  -2.842  0.00  0.00    -0.079 C 
ATOM     22  C   UNL     1      -0.186  -6.408  -3.776  0.00  0.00    -0.020 C 
ATOM     23  C   UNL     1      -0.993  -6.138  -5.067  0.00  0.00    -0.020 C 
ATOM     24  C   UNL     1      -1.361  -4.643  -5.006  0.00  0.00    -0.079 C 
ATOM     25  H   UNL     1       0.141  -3.702  -3.960  0.00  0.00    -0.082 HD
ENDBRANCH  19  20
ENDBRANCH  18  19
ENDBRANCH  16  18
ENDBRANCH   1  16
TORSDOF 7
