REMARK  Name = ZINC40621203
REMARK  8 active torsions:
REMARK  status: ('A' for Active; 'I' for Inactive)
REMARK    1  A    between atoms: C_1  and  C_2
REMARK    2  A    between atoms: C_2  and  C_3
REMARK    3  A    between atoms: C_2  and  N_4
REMARK    4  A    between atoms: C_7  and  C_10
REMARK    5  A    between atoms: C_10  and  N_11
REMARK    6  A    between atoms: N_11  and  S_12
REMARK    7  A    between atoms: S_12  and  C_15
REMARK    8  A    between atoms: C_18  and  N_22
REMARK                            x       y       z     vdW  Elec       q    Type
REMARK                         _______ _______ _______ _____ _____    ______ ____
ROOT
ATOM      1  S   UNL     1      -4.332  -5.220  -2.833  0.00  0.00    +0.059 S 
ATOM      2  O   UNL     1      -5.673  -5.267  -3.300  0.00  0.00    -0.153 OA
ATOM      3  O   UNL     1      -3.233  -4.965  -3.697  0.00  0.00    -0.153 OA
ENDROOT
BRANCH   1   4
ATOM      4  C   UNL     1      -4.014  -6.769  -2.057  0.00  0.00    +0.119 A 
ATOM      5  C   UNL     1      -2.879  -7.486  -2.387  0.00  0.00    +0.031 A 
ATOM      6  C   UNL     1      -2.627  -8.701  -1.782  0.00  0.00    +0.025 A 
ATOM      7  C   UNL     1      -3.515  -9.204  -0.839  0.00  0.00    +0.026 A 
ATOM      8  C   UNL     1      -4.654  -8.482  -0.509  0.00  0.00    +0.040 A 
ATOM      9  C   UNL     1      -4.898  -7.264  -1.115  0.00  0.00    +0.046 A 
ATOM     10 BR   UNL     1      -6.445  -6.276  -0.661  0.00  0.00    -0.048 Br
BRANCH   7  11
ATOM     11  N   UNL     1      -3.263 -10.433  -0.225  0.00  0.00    -0.358 N 
ATOM     12  H   UNL     1      -2.467 -10.936  -0.457  0.00  0.00    +0.142 HD
ATOM     13  H   UNL     1      -3.884 -10.783   0.433  0.00  0.00    +0.142 HD
ENDBRANCH   7  11
ENDBRANCH   1   4
BRANCH   1  14
ATOM     14  N   UNL     1      -4.283  -4.061  -1.651  0.00  0.00    -0.190 NA
ATOM     15  H   UNL     1      -5.083  -3.560  -1.429  0.00  0.00    +0.148 HD
BRANCH  14  16
ATOM     16  C   UNL     1      -3.031  -3.793  -0.940  0.00  0.00    +0.107 C 
BRANCH  16  20
ATOM     17  N   UNL     1      -1.857  -0.661   0.688  0.00  0.00    +0.381 N 
ATOM     18  C   UNL     1      -2.387  -0.159  -0.598  0.00  0.00    -0.078 C 
ATOM     19  C   UNL     1      -3.244  -1.285  -1.204  0.00  0.00    -0.016 C 
ATOM     20  C   UNL     1      -3.139  -2.457  -0.202  0.00  0.00    -0.014 C 
ATOM     21  C   UNL     1      -1.830  -2.141   0.564  0.00  0.00    -0.074 C 
ATOM     22  H   UNL     1      -2.463  -0.387   1.446  0.00  0.00    -0.081 HD
BRANCH  17  24
ATOM     23  C   UNL     1      -0.546   1.377   1.037  0.00  0.00    -0.014 C 
ATOM     24  C   UNL     1      -0.499  -0.147   0.912  0.00  0.00    -0.075 C 
ATOM     25  C   UNL     1       0.067  -0.747   2.200  0.00  0.00    -0.014 C 
ENDBRANCH  17  24
ENDBRANCH  16  20
ENDBRANCH  14  16
ENDBRANCH   1  14
TORSDOF 6
