REMARK  Name = ZINC63362595
REMARK  9 active torsions:
REMARK  status: ('A' for Active; 'I' for Inactive)
REMARK    1  A    between atoms: C_1  and  C_2
REMARK    2  A    between atoms: N_18  and  C_21
REMARK    3  A    between atoms: C_26  and  C_27
REMARK    4  A    between atoms: N_29  and  C_30
REMARK    5  A    between atoms: C_30  and  C_31
REMARK    6  A    between atoms: C_34  and  O_39
REMARK    7  A    between atoms: C_36  and  O_37
REMARK    8  A    between atoms: O_37  and  C_38
REMARK    9  A    between atoms: O_39  and  C_40
REMARK                            x       y       z     vdW  Elec       q    Type
REMARK                         _______ _______ _______ _____ _____    ______ ____
ROOT
ATOM      1  C   UNL     1      -2.537  -1.931   1.772  0.00  0.00    +0.058 A 
ATOM      2  C   UNL     1      -3.440  -1.263   2.587  0.00  0.00    +0.025 A 
ATOM      3  C   UNL     1      -4.549  -1.923   3.077  0.00  0.00    +0.002 A 
ATOM      4  C   UNL     1      -4.769  -3.254   2.761  0.00  0.00    +0.001 A 
ATOM      5  C   UNL     1      -3.882  -3.933   1.953  0.00  0.00    +0.015 A 
ATOM      6  C   UNL     1      -2.759  -3.276   1.446  0.00  0.00    +0.059 A 
ENDROOT
BRANCH   1  23
ATOM      7  C   UNL     1      -0.019   1.526   0.010  0.00  0.00    +0.044 C 
ATOM      8  C   UNL     1       0.002  -0.004   0.002  0.00  0.00    +0.137 C 
ATOM      9  C   UNL     1       0.726  -0.558  -1.231  0.00  0.00    +0.139 C 
ATOM     10  C   UNL     1       2.217  -0.373  -0.975  0.00  0.00    -0.034 C 
ATOM     11  C   UNL     1       2.681   0.357  -1.985  0.00  0.00    -0.001 A 
ATOM     12  C   UNL     1       4.042   0.807  -2.320  0.00  0.00    +0.010 A 
ATOM     13  C   UNL     1       4.163   1.563  -3.443  0.00  0.00    +0.001 A 
ATOM     14  C   UNL     1       3.080   1.913  -4.255  0.00  0.00    +0.002 A 
ATOM     15  C   UNL     1       1.796   1.539  -4.025  0.00  0.00    +0.026 A 
ATOM     16  C   UNL     1       1.542   0.737  -2.874  0.00  0.00    +0.043 A 
ATOM     17  N   UNL     1       0.418   0.228  -2.429  0.00  0.00    -0.375 N 
ATOM     18  C   UNL     1       2.917  -0.898   0.254  0.00  0.00    +0.052 C 
ATOM     19  C   UNL     1       2.121  -0.403   1.478  0.00  0.00    +0.115 C 
ATOM     20  N   UNL     1       0.693  -0.557   1.189  0.00  0.00    -0.268 N 
ATOM     21  C   UNL     1      -0.229  -1.219   1.899  0.00  0.00    +0.317 C 
ATOM     22  O   UNL     1      -0.016  -1.721   2.985  0.00  0.00    -0.252 OA
ATOM     23  N   UNL     1      -1.414  -1.265   1.276  0.00  0.00    -0.192 N 
ATOM     24  C   UNL     1      -1.390  -0.589   0.109  0.00  0.00    +0.253 C 
ATOM     25  O   UNL     1      -2.295  -0.473  -0.689  0.00  0.00    -0.272 OA
ATOM     26  H   UNL     1      -0.463   0.348  -2.817  0.00  0.00    +0.160 HD
ENDBRANCH   1  23
BRANCH   6  27
ATOM     27  C   UNL     1      -1.809  -3.996   0.576  0.00  0.00    +0.246 C 
ATOM     28  O   UNL     1      -0.829  -3.422   0.140  0.00  0.00    -0.270 OA
ATOM     29  N   UNL     1      -2.026  -5.289   0.265  0.00  0.00    -0.307 N 
ATOM     30  H   UNL     1      -2.808  -5.747   0.612  0.00  0.00    +0.149 HD
BRANCH  29  31
ATOM     31  C   UNL     1      -1.083  -6.003  -0.599  0.00  0.00    +0.143 C 
BRANCH  31  32
ATOM     32  C   UNL     1      -1.553  -7.422  -0.791  0.00  0.00    +0.012 A 
ATOM     33  C   UNL     1      -0.991  -8.442  -0.047  0.00  0.00    +0.012 A 
ATOM     34  C   UNL     1      -1.419  -9.744  -0.220  0.00  0.00    +0.046 A 
ATOM     35  C   UNL     1      -2.416 -10.031  -1.142  0.00  0.00    +0.124 A 
ATOM     36  C   UNL     1      -2.981  -9.010  -1.890  0.00  0.00    +0.091 A 
ATOM     37  C   UNL     1      -2.554  -7.703  -1.710  0.00  0.00    +0.128 A 
BRANCH  37  38
ATOM     38  O   UNL     1      -3.110  -6.699  -2.437  0.00  0.00    -0.495 OA
ATOM     39  C   UNL     1      -4.135  -7.061  -3.365  0.00  0.00    +0.277 C 
ENDBRANCH  37  38
BRANCH  35  40
ATOM     40  O   UNL     1      -2.837 -11.312  -1.313  0.00  0.00    -0.495 OA
ATOM     41  C   UNL     1      -2.209 -12.313  -0.509  0.00  0.00    +0.277 C 
ENDBRANCH  35  40
ENDBRANCH  31  32
ENDBRANCH  29  31
ENDBRANCH   6  27
TORSDOF 6
