REMARK  Name = ZINC20287892
REMARK  13 active torsions:
REMARK  status: ('A' for Active; 'I' for Inactive)
REMARK    1  A    between atoms: C_1  and  C_2
REMARK    2  A    between atoms: C_2  and  N_3
REMARK    3  A    between atoms: N_6  and  C_9
REMARK    4  A    between atoms: C_9  and  C_11
REMARK    5  A    between atoms: C_9  and  C_16
REMARK    6  A    between atoms: C_16  and  C_18
REMARK    7  A    between atoms: C_16  and  N_19
REMARK    8  A    between atoms: C_20  and  C_22
REMARK    9  A    between atoms: N_24  and  C_25
REMARK   10  A    between atoms: C_25  and  C_26
REMARK   11  A    between atoms: C_26  and  N_27
REMARK   12  A    between atoms: N_27  and  C_28
REMARK   13  A    between atoms: N_27  and  C_29
REMARK                            x       y       z     vdW  Elec       q    Type
REMARK                         _______ _______ _______ _____ _____    ______ ____
ROOT
ATOM      1  C   UNL     1       1.450   5.687  -1.288  0.00  0.00    +0.092 C 
ATOM      2  C   UNL     1       2.700   4.901  -1.688  0.00  0.00    +0.030 C 
ENDROOT
BRANCH   1   3
ATOM      3  N   UNL     1       0.344   5.332  -2.180  0.00  0.00    -0.303 N 
ATOM      4  C   UNL     1       0.203   5.962  -3.363  0.00  0.00    +0.299 C 
ATOM      5  O   UNL     1       0.993   6.823  -3.690  0.00  0.00    -0.265 OA
ATOM      6  H   UNL     1      -0.373   4.552  -1.883  0.00  0.00    +0.149 HD
BRANCH   4   7
ATOM      7  C   UNL     1      -0.926   5.600  -4.273  0.00  0.00    +0.299 C 
ATOM      8  O   UNL     1      -1.716   4.739  -3.946  0.00  0.00    -0.265 OA
ATOM      9  N   UNL     1      -1.066   6.229  -5.456  0.00  0.00    -0.309 N 
ATOM     10  H   UNL     1      -0.350   7.010  -5.753  0.00  0.00    +0.149 HD
BRANCH   9  11
ATOM     11  C   UNL     1      -2.173   5.874  -6.348  0.00  0.00    +0.086 C 
BRANCH  11  12
ATOM     12  C   UNL     1      -2.103   6.730  -7.614  0.00  0.00    -0.061 C 
BRANCH  12  13
ATOM     13  N   UNL     1      -3.212   6.374  -8.508  0.00  0.00    +0.377 N 
ATOM     14  C   UNL     1      -4.505   6.737  -7.913  0.00  0.00    -0.097 C 
ATOM     15  C   UNL     1      -3.047   6.999  -9.827  0.00  0.00    -0.097 C 
ATOM     16  H   UNL     1      -3.198   5.283  -8.647  0.00  0.00    -0.083 HD
ENDBRANCH  12  13
ENDBRANCH  11  12
ENDBRANCH   9  11
ENDBRANCH   4   7
ENDBRANCH   1   3
BRANCH   1  17
ATOM     17  C   UNL     1       1.073   5.345   0.155  0.00  0.00    +0.113 C 
BRANCH  17  21
ATOM     18  N   UNL     1       3.522   6.923   3.214  0.00  0.00    +0.381 N 
ATOM     19  C   UNL     1       3.828   7.296   1.826  0.00  0.00    -0.063 C 
ATOM     20  C   UNL     1       2.595   7.052   0.952  0.00  0.00    +0.066 C 
ATOM     21  N   UNL     1       2.208   5.637   1.040  0.00  0.00    -0.297 NA
ATOM     22  C   UNL     1       1.902   5.263   2.429  0.00  0.00    +0.066 C 
ATOM     23  C   UNL     1       3.135   5.508   3.303  0.00  0.00    -0.063 C 
ATOM     24  H   UNL     1       2.669   7.530   3.549  0.00  0.00    -0.082 HD
BRANCH  18  26
ATOM     25  C   UNL     1       4.405   6.591   5.474  0.00  0.00    -0.017 C 
ATOM     26  C   UNL     1       4.657   7.214   4.099  0.00  0.00    -0.082 C 
ENDBRANCH  18  26
ENDBRANCH  17  21
BRANCH  17  27
ATOM     27  C   UNL     1       0.725   3.882   0.249  0.00  0.00    +0.009 A 
ATOM     28  C   UNL     1      -0.496   3.293   0.245  0.00  0.00    +0.013 A 
ATOM     29  C   UNL     1      -0.577   1.916   0.339  0.00  0.00    +0.008 A 
ATOM     30  C   UNL     1       0.567   1.197   0.443  0.00  0.00    +0.045 A 
ATOM     31  S   UNL     1       1.813   2.475   0.397  0.00  0.00    -0.100 S 
ENDBRANCH  17  27
ENDBRANCH   1  17
TORSDOF 9
