REMARK  Name = ZINC63271464
REMARK  6 active torsions:
REMARK  status: ('A' for Active; 'I' for Inactive)
REMARK    1  A    between atoms: C_1  and  C_2
REMARK    2  A    between atoms: N_4  and  C_5
REMARK    3  A    between atoms: C_9  and  N_11
REMARK    4  A    between atoms: C_12  and  C_14
REMARK    5  A    between atoms: C_14  and  C_15
REMARK    6  A    between atoms: C_15  and  N_16
REMARK                            x       y       z     vdW  Elec       q    Type
REMARK                         _______ _______ _______ _____ _____    ______ ____
ROOT
ATOM      1  N   UNL     1      -5.411  -9.453   0.580  0.00  0.00    -0.299 N 
ATOM      2  C   UNL     1      -5.353 -10.790   0.739  0.00  0.00    +0.302 C 
ATOM      3  O   UNL     1      -4.281 -11.336   0.911  0.00  0.00    -0.253 OA
ATOM      4  N   UNL     1      -6.485 -11.522   0.708  0.00  0.00    -0.283 N 
ATOM      5  C   UNL     1      -7.758 -10.875   0.377  0.00  0.00    +0.114 C 
ATOM      6  C   UNL     1      -8.382 -11.568  -0.848  0.00  0.00    +0.052 C 
ATOM      7  C   UNL     1      -8.265 -13.054  -0.610  0.00  0.00    -0.036 C 
ATOM      8  C   UNL     1      -9.170 -14.024  -0.655  0.00  0.00    -0.001 A 
ATOM      9  C   UNL     1     -10.586 -14.025  -1.058  0.00  0.00    +0.010 A 
ATOM     10  C   UNL     1     -11.236 -15.215  -0.961  0.00  0.00    +0.001 A 
ATOM     11  C   UNL     1     -10.626 -16.390  -0.509  0.00  0.00    +0.002 A 
ATOM     12  C   UNL     1      -9.328 -16.482  -0.126  0.00  0.00    +0.026 A 
ATOM     13  C   UNL     1      -8.539 -15.297  -0.192  0.00  0.00    +0.043 A 
ATOM     14  N   UNL     1      -7.283 -15.106   0.086  0.00  0.00    -0.376 N 
ATOM     15  C   UNL     1      -6.948 -13.715  -0.222  0.00  0.00    +0.124 C 
ATOM     16  C   UNL     1      -6.428 -12.963   1.001  0.00  0.00    +0.138 C 
ATOM     17  H   UNL     1      -6.271  -9.008   0.519  0.00  0.00    +0.150 HD
ATOM     18  H   UNL     1      -6.672 -15.772   0.438  0.00  0.00    +0.160 HD
ENDROOT
BRANCH   1  19
ATOM     19  C   UNL     1      -4.175  -8.671   0.499  0.00  0.00    +0.115 C 
BRANCH  19  20
ATOM     20  C   UNL     1      -4.519  -7.191   0.320  0.00  0.00    +0.115 C 
BRANCH  20  22
ATOM     21  N   UNL     1      -3.305  -5.049   0.078  0.00  0.00    -0.285 N 
ATOM     22  C   UNL     1      -3.247  -6.386   0.237  0.00  0.00    +0.219 C 
ATOM     23  O   UNL     1      -2.172  -6.942   0.313  0.00  0.00    -0.275 OA
ATOM     24  H   UNL     1      -4.162  -4.612  -0.051  0.00  0.00    +0.155 HD
BRANCH  21  29
ATOM     25  C   UNL     1      -0.967  -2.268   0.667  0.00  0.00    +0.035 A 
ATOM     26  C   UNL     1       0.203  -2.795   0.134  0.00  0.00    +0.023 A 
ATOM     27  C   UNL     1       0.205  -4.063  -0.413  0.00  0.00    +0.004 A 
ATOM     28  C   UNL     1      -0.957  -4.812  -0.433  0.00  0.00    +0.023 A 
ATOM     29  C   UNL     1      -2.130  -4.290   0.098  0.00  0.00    +0.035 A 
ATOM     30  C   UNL     1      -2.133  -3.019   0.654  0.00  0.00    +0.046 A 
BRANCH  25  34
ATOM     31  C   UNL     1      -1.657   0.638   2.957  0.00  0.00    +0.109 C 
ATOM     32  C   UNL     1      -1.735  -0.713   2.296  0.00  0.00    +0.214 C 
ATOM     33  O   UNL     1      -2.490  -1.558   2.729  0.00  0.00    -0.276 OA
ATOM     34  N   UNL     1      -0.967  -0.983   1.222  0.00  0.00    -0.286 N 
ATOM     35  H   UNL     1      -0.414  -0.287   0.833  0.00  0.00    +0.155 HD
ENDBRANCH  25  34
ENDBRANCH  21  29
ENDBRANCH  20  22
ENDBRANCH  19  20
ENDBRANCH   1  19
TORSDOF 5
