REMARK  Name = ZINC49198336
REMARK  9 active torsions:
REMARK  status: ('A' for Active; 'I' for Inactive)
REMARK    1  A    between atoms: C_1  and  C_2
REMARK    2  A    between atoms: N_7  and  C_9
REMARK    3  A    between atoms: C_9  and  C_11
REMARK    4  A    between atoms: C_9  and  C_12
REMARK    5  A    between atoms: C_12  and  N_13
REMARK    6  A    between atoms: N_16  and  C_17
REMARK    7  A    between atoms: C_17  and  C_18
REMARK    8  A    between atoms: C_22  and  S_24
REMARK    9  A    between atoms: S_24  and  N_27
REMARK                            x       y       z     vdW  Elec       q    Type
REMARK                         _______ _______ _______ _____ _____    ______ ____
ROOT
ATOM      1  N   UNL     1       1.995  -4.565   1.353  0.00  0.00    -0.301 N 
ATOM      2  C   UNL     1       1.953  -5.895   1.139  0.00  0.00    +0.300 C 
ATOM      3  O   UNL     1       1.355  -6.617   1.913  0.00  0.00    -0.253 OA
ATOM      4  N   UNL     1       2.574  -6.424   0.067  0.00  0.00    -0.295 N 
ATOM      5  H   UNL     1       2.472  -3.989   0.736  0.00  0.00    +0.150 HD
ATOM      6  H   UNL     1       3.051  -5.848  -0.551  0.00  0.00    +0.151 HD
ENDROOT
BRANCH   1   7
ATOM      7  C   UNL     1       1.320  -3.989   2.519  0.00  0.00    +0.090 C 
BRANCH   7   8
ATOM      8  C   UNL     1       1.403  -2.463   2.455  0.00  0.00    -0.054 C 
ATOM      9  C   UNL     1       0.598  -1.859   3.607  0.00  0.00    -0.012 C 
BRANCH   8  15
ATOM     10  C   UNL     1      -2.636  -2.213  -0.299  0.00  0.00    +0.005 C 
ATOM     11  C   UNL     1      -1.141  -1.893  -0.244  0.00  0.00    -0.031 C 
ATOM     12  C   UNL     1      -0.932  -0.389  -0.444  0.00  0.00    -0.001 C 
ATOM     13  C   UNL     1       0.559  -0.068  -0.309  0.00  0.00    -0.018 C 
ATOM     14  C   UNL     1       1.057  -0.547   1.057  0.00  0.00    -0.078 C 
ATOM     15  N   UNL     1       0.854  -1.996   1.175  0.00  0.00    +0.383 N 
ATOM     16  C   UNL     1      -0.580  -2.305   1.118  0.00  0.00    -0.075 C 
ATOM     17  H   UNL     1       1.327  -2.464   0.417  0.00  0.00    -0.081 HD
ENDBRANCH   8  15
ENDBRANCH   7   8
ENDBRANCH   1   7
BRANCH   4  18
ATOM     18  C   UNL     1       2.529  -7.870  -0.166  0.00  0.00    +0.141 C 
BRANCH  18  19
ATOM     19  C   UNL     1       3.295  -8.201  -1.421  0.00  0.00    -0.028 A 
ATOM     20  C   UNL     1       2.648  -8.212  -2.643  0.00  0.00    +0.005 A 
ATOM     21  C   UNL     1       3.351  -8.515  -3.794  0.00  0.00    +0.002 A 
ATOM     22  C   UNL     1       4.700  -8.808  -3.723  0.00  0.00    +0.028 A 
ATOM     23  C   UNL     1       5.347  -8.796  -2.502  0.00  0.00    +0.105 A 
ATOM     24  C   UNL     1       4.645  -8.488  -1.351  0.00  0.00    +0.033 A 
BRANCH  23  25
ATOM     25  S   UNL     1       7.067  -9.169  -2.412  0.00  0.00    +0.056 S 
ATOM     26  O   UNL     1       7.315  -9.624  -1.089  0.00  0.00    -0.153 OA
ATOM     27  O   UNL     1       7.373  -9.953  -3.557  0.00  0.00    -0.153 OA
BRANCH  25  28
ATOM     28  N   UNL     1       7.887  -7.741  -2.583  0.00  0.00    -0.204 NA
ATOM     29  H   UNL     1       7.398  -6.912  -2.705  0.00  0.00    +0.144 HD
ATOM     30  H   UNL     1       8.857  -7.733  -2.561  0.00  0.00    +0.144 HD
ENDBRANCH  25  28
ENDBRANCH  23  25
ENDBRANCH  18  19
ENDBRANCH   4  18
TORSDOF 7
