REMARK  Name = ZINC01064075
REMARK  6 active torsions:
REMARK  status: ('A' for Active; 'I' for Inactive)
REMARK    1  A    between atoms: C_1  and  C_2
REMARK    2  A    between atoms: C_2  and  N_3
REMARK    3  A    between atoms: C_7  and  S_15
REMARK    4  A    between atoms: N_10  and  C_13
REMARK    5  A    between atoms: C_13  and  C_14
REMARK    6  A    between atoms: S_15  and  N_18
REMARK                            x       y       z     vdW  Elec       q    Type
REMARK                         _______ _______ _______ _____ _____    ______ ____
ROOT
ATOM      1  N   UNL     1       0.688  -0.476  -1.203  0.00  0.00    -0.292 N 
ATOM      2  C   UNL     1       0.087  -0.744  -2.431  0.00  0.00    +0.070 A 
ATOM      3  C   UNL     1      -1.220  -0.666  -2.888  0.00  0.00    +0.030 A 
ATOM      4  C   UNL     1      -1.513  -1.008  -4.193  0.00  0.00    +0.031 A 
ATOM      5  C   UNL     1      -0.508  -1.429  -5.048  0.00  0.00    +0.111 A 
ATOM      6  C   UNL     1       0.796  -1.510  -4.601  0.00  0.00    +0.056 A 
ATOM      7  C   UNL     1       1.101  -1.168  -3.293  0.00  0.00    +0.072 A 
ATOM      8  N   UNL     1       2.286  -1.145  -2.562  0.00  0.00    -0.292 N 
ATOM      9  C   UNL     1       2.007  -0.720  -1.315  0.00  0.00    +0.330 A 
ATOM     10  O   UNL     1       2.823  -0.581  -0.423  0.00  0.00    -0.246 OA
ENDROOT
BRANCH   5  11
ATOM     11  S   UNL     1      -0.895  -1.862  -6.711  0.00  0.00    +0.075 S 
ATOM     12  O   UNL     1       0.129  -2.744  -7.150  0.00  0.00    -0.150 OA
ATOM     13  O   UNL     1      -2.270  -2.223  -6.727  0.00  0.00    -0.150 OA
BRANCH  11  14
ATOM     14  N   UNL     1      -0.757  -0.485  -7.621  0.00  0.00    -0.202 N 
ATOM     15  C   UNL     1      -1.842   0.466  -7.874  0.00  0.00    +0.136 C 
ATOM     16  C   UNL     1      -1.221   1.559  -8.759  0.00  0.00    +0.058 C 
ATOM     17  C   UNL     1       0.216   1.127  -8.945  0.00  0.00    -0.023 A 
ATOM     18  C   UNL     1       0.412  -0.059  -8.254  0.00  0.00    +0.054 A 
ATOM     19  C   UNL     1       1.675  -0.655  -8.274  0.00  0.00    +0.025 A 
ATOM     20  C   UNL     1       2.710  -0.065  -8.968  0.00  0.00    +0.002 A 
ATOM     21  C   UNL     1       2.506   1.120  -9.650  0.00  0.00    +0.000 A 
ATOM     22  C   UNL     1       1.255   1.710  -9.643  0.00  0.00    +0.005 A 
ENDBRANCH  11  14
ENDBRANCH   5  11
BRANCH   1  24
ATOM     23  C   UNL     1      -0.019   1.526   0.010  0.00  0.00    +0.027 C 
ATOM     24  C   UNL     1       0.002  -0.004   0.002  0.00  0.00    +0.123 C 
ENDBRANCH   1  24
BRANCH   8  25
ATOM     25  C   UNL     1       3.611  -1.513  -3.066  0.00  0.00    +0.123 C 
ATOM     26  C   UNL     1       4.297  -0.275  -3.649  0.00  0.00    +0.027 C 
ENDBRANCH   8  25
TORSDOF 4
