REMARK  Name = ZINC52094503
REMARK  4 active torsions:
REMARK  status: ('A' for Active; 'I' for Inactive)
REMARK    1  A    between atoms: C_1  and  N_2
REMARK    2  A    between atoms: N_2  and  C_3
REMARK    3  A    between atoms: C_3  and  C_5
REMARK    4  A    between atoms: C_3  and  C_18
REMARK                            x       y       z     vdW  Elec       q    Type
REMARK                         _______ _______ _______ _____ _____    ______ ____
ROOT
ATOM      1  C   UNL     1      -0.058  -0.109   2.430  0.00  0.00    -0.045 A 
ATOM      2  C   UNL     1      -1.383  -0.477   2.556  0.00  0.00    +0.031 A 
ATOM      3  C   UNL     1      -2.092  -0.126   3.694  0.00  0.00    +0.067 A 
ATOM      4  C   UNL     1      -1.463   0.598   4.709  0.00  0.00    +0.068 A 
ATOM      5  C   UNL     1      -0.133   0.963   4.575  0.00  0.00    +0.043 A 
ATOM      6  C   UNL     1       0.567   0.604   3.439  0.00  0.00    +0.022 A 
ATOM      7 BR   UNL     1       2.385   1.095   3.258  0.00  0.00    -0.050 Br
ATOM      8  N   UNL     1      -2.413   0.799   5.708  0.00  0.00    -0.306 N 
ATOM      9  H   UNL     1      -2.269   1.273   6.542  0.00  0.00    +0.170 HD
ATOM     10  C   UNL     1      -3.567   0.224   5.319  0.00  0.00    +0.325 A 
ATOM     11  O   UNL     1      -4.599   0.217   5.963  0.00  0.00    -0.247 OA
ATOM     12  N   UNL     1      -3.405  -0.343   4.108  0.00  0.00    -0.306 N 
ATOM     13  H   UNL     1      -4.086  -0.820   3.609  0.00  0.00    +0.170 HD
ENDROOT
BRANCH   1  14
ATOM     14  C   UNL     1       0.713  -0.491   1.192  0.00  0.00    -0.037 C 
BRANCH  14  15
ATOM     15  C   UNL     1       1.133  -1.959   1.286  0.00  0.00    -0.021 C 
ATOM     16  C   UNL     1       1.979  -2.186   2.555  0.00  0.00    +0.002 C 
ATOM     17  C   UNL     1       3.051  -3.215   2.118  0.00  0.00    +0.000 C 
ATOM     18  C   UNL     1       3.386  -2.767   0.674  0.00  0.00    +0.000 C 
ATOM     19  C   UNL     1       2.028  -2.328   0.089  0.00  0.00    +0.002 C 
ENDBRANCH  14  15
BRANCH  14  21
ATOM     20  C   UNL     1      -0.441   1.129  -0.149  0.00  0.00    -0.100 C 
ATOM     21  N   UNL     1      -0.136  -0.299   0.009  0.00  0.00    +0.382 N 
ATOM     22  H   UNL     1      -0.995  -0.816   0.123  0.00  0.00    -0.085 HD
ATOM     23  H   UNL     1       0.350  -0.631  -0.811  0.00  0.00    -0.085 HD
ENDBRANCH  14  21
ENDBRANCH   1  14
TORSDOF 3
