REMARK  Name = ZINC65387110
REMARK  3 active torsions:
REMARK  status: ('A' for Active; 'I' for Inactive)
REMARK    1  A    between atoms: C_1  and  C_2
REMARK    2  A    between atoms: C_2  and  C_27
REMARK    3  A    between atoms: C_6  and  C_14
REMARK                            x       y       z     vdW  Elec       q    Type
REMARK                         _______ _______ _______ _____ _____    ______ ____
ROOT
ATOM      1  C   UNL     1      -0.019   1.526   0.010  0.00  0.00    +0.013 C 
ATOM      2  C   UNL     1       0.002  -0.004   0.002  0.00  0.00    -0.014 C 
ATOM      3  C   UNL     1      -1.415  -0.504  -0.091  0.00  0.00    +0.063 C 
ATOM      4  C   UNL     1      -1.504  -1.952  -0.453  0.00  0.00    +0.049 A 
ATOM      5  N   UNL     1      -2.503  -2.508  -1.187  0.00  0.00    -0.344 N 
ATOM      6  C   UNL     1      -2.253  -3.837  -1.289  0.00  0.00    +0.124 A 
ATOM      7  H   UNL     1      -3.261  -2.038  -1.569  0.00  0.00    +0.167 HD
ATOM      8  N   UNL     1      -1.148  -4.105  -0.662  0.00  0.00    -0.227 NA
ATOM      9  C   UNL     1      -0.640  -2.952  -0.132  0.00  0.00    +0.146 A 
ATOM     10  C   UNL     1       0.614  -2.886   0.615  0.00  0.00    +0.264 C 
ATOM     11  O   UNL     1       1.195  -3.945   0.759  0.00  0.00    -0.268 OA
ATOM     12  N   UNL     1       1.198  -1.841   1.152  0.00  0.00    -0.310 N 
ATOM     13  C   UNL     1       0.733  -0.482   1.227  0.00  0.00    +0.111 C 
ATOM     14  C   UNL     1       0.766  -0.475  -1.238  0.00  0.00    +0.013 C 
ATOM     15  H   UNL     1       2.065  -2.008   1.555  0.00  0.00    +0.149 HD
ENDROOT
BRANCH   6  16
ATOM     16  C   UNL     1      -3.116  -4.838  -2.011  0.00  0.00    +0.164 C 
ATOM     17  C   UNL     1      -2.657  -4.893  -3.455  0.00  0.00    +0.003 C 
ATOM     18  C   UNL     1      -3.580  -4.610  -4.416  0.00  0.00    -0.006 A 
ATOM     19  C   UNL     1      -3.218  -4.641  -5.834  0.00  0.00    +0.012 A 
ATOM     20  C   UNL     1      -4.166  -4.354  -6.761  0.00  0.00    +0.039 A 
ATOM     21  C   UNL     1      -5.475  -4.032  -6.388  0.00  0.00    +0.125 A 
ATOM     22  C   UNL     1      -5.875  -3.987  -5.076  0.00  0.00    +0.062 A 
ATOM     23  C   UNL     1      -4.965  -4.268  -4.045  0.00  0.00    +0.043 A 
ATOM     24  N   UNL     1      -5.365  -4.222  -2.773  0.00  0.00    -0.284 N 
ATOM     25  C   UNL     1      -4.562  -4.475  -1.755  0.00  0.00    +0.231 C 
ATOM     26  O   UNL     1      -4.984  -4.417  -0.615  0.00  0.00    -0.274 OA
ATOM     27  F   UNL     1      -6.378  -3.755  -7.354  0.00  0.00    -0.205 F 
ATOM     28  H   UNL     1      -6.288  -3.991  -2.587  0.00  0.00    +0.155 HD
ENDBRANCH   6  16
TORSDOF 1
