REMARK  Name = ZINC48077849
REMARK  10 active torsions:
REMARK  status: ('A' for Active; 'I' for Inactive)
REMARK    1  A    between atoms: C_1  and  N_2
REMARK    2  A    between atoms: N_2  and  C_3
REMARK    3  A    between atoms: N_2  and  C_4
REMARK    4  A    between atoms: C_4  and  C_6
REMARK    5  A    between atoms: C_4  and  C_22
REMARK    6  A    between atoms: C_6  and  N_7
REMARK    7  A    between atoms: N_10  and  C_11
REMARK    8  A    between atoms: C_14  and  O_17
REMARK    9  A    between atoms: O_17  and  C_18
REMARK   10  A    between atoms: C_18  and  C_19
REMARK                            x       y       z     vdW  Elec       q    Type
REMARK                         _______ _______ _______ _____ _____    ______ ____
ROOT
ATOM      1  N   UNL     1      -1.779   1.535  -1.159  0.00  0.00    -0.300 N 
ATOM      2  C   UNL     1      -2.270   2.265  -2.180  0.00  0.00    +0.304 C 
ATOM      3  O   UNL     1      -2.954   1.734  -3.033  0.00  0.00    -0.253 OA
ATOM      4  N   UNL     1      -2.004   3.585  -2.254  0.00  0.00    -0.269 N 
ATOM      5  H   UNL     1      -1.234   1.959  -0.478  0.00  0.00    +0.150 HD
ATOM      6  H   UNL     1      -1.399   3.994  -1.616  0.00  0.00    +0.156 HD
ENDROOT
BRANCH   4   7
ATOM      7  C   UNL     1      -2.603   4.365  -3.252  0.00  0.00    +0.035 A 
ATOM      8  C   UNL     1      -1.904   5.422  -3.820  0.00  0.00    +0.027 A 
ATOM      9  C   UNL     1      -2.494   6.191  -4.804  0.00  0.00    +0.047 A 
ATOM     10  C   UNL     1      -3.784   5.906  -5.226  0.00  0.00    +0.121 A 
ATOM     11  C   UNL     1      -4.483   4.850  -4.659  0.00  0.00    +0.047 A 
ATOM     12  C   UNL     1      -3.892   4.078  -3.679  0.00  0.00    +0.027 A 
BRANCH  10  13
ATOM     13  O   UNL     1      -4.365   6.663  -6.195  0.00  0.00    -0.483 OA
BRANCH  13  14
ATOM     14  C   UNL     1      -5.696   6.314  -6.581  0.00  0.00    +0.324 C 
BRANCH  14  15
ATOM     15  C   UNL     1      -6.170   7.256  -7.657  0.00  0.00    +0.248 C 
ATOM     16  O   UNL     1      -5.440   8.139  -8.055  0.00  0.00    -0.272 OA
ATOM     17  N   UNL     1      -7.405   7.117  -8.178  0.00  0.00    -0.327 N 
ATOM     18  H   UNL     1      -7.989   6.410  -7.861  0.00  0.00    +0.145 HD
ATOM     19  H   UNL     1      -7.710   7.723  -8.871  0.00  0.00    +0.145 HD
ENDBRANCH  14  15
ENDBRANCH  13  14
ENDBRANCH  10  13
ENDBRANCH   4   7
BRANCH   1  20
ATOM     20  C   UNL     1      -2.068   0.101  -1.078  0.00  0.00    +0.095 C 
BRANCH  20  21
ATOM     21  C   UNL     1      -1.298  -0.509   0.094  0.00  0.00    -0.021 C 
BRANCH  21  22
ATOM     22  C   UNL     1      -1.812   0.068   1.388  0.00  0.00    -0.059 A 
ATOM     23  C   UNL     1      -2.976  -0.423   1.949  0.00  0.00    +0.005 A 
ATOM     24  C   UNL     1      -3.449   0.105   3.135  0.00  0.00    +0.038 A 
ATOM     25  C   UNL     1      -2.755   1.126   3.763  0.00  0.00    +0.123 A 
ATOM     26  C   UNL     1      -1.589   1.617   3.200  0.00  0.00    +0.038 A 
ATOM     27  C   UNL     1      -1.116   1.084   2.016  0.00  0.00    +0.005 A 
ATOM     28  F   UNL     1      -3.216   1.643   4.922  0.00  0.00    -0.205 F 
ENDBRANCH  21  22
BRANCH  21  30
ATOM     29  C   UNL     1      -0.894  -2.540  -1.117  0.00  0.00    -0.096 C 
ATOM     30  N   UNL     1      -1.486  -1.966   0.099  0.00  0.00    +0.382 N 
ATOM     31  C   UNL     1      -0.831  -2.541   1.281  0.00  0.00    -0.096 C 
ATOM     32  H   UNL     1      -2.473  -2.177   0.124  0.00  0.00    -0.082 HD
ENDBRANCH  21  30
ENDBRANCH  20  21
ENDBRANCH   1  20
TORSDOF 8
