REMARK  Name = ZINC03098192
REMARK  14 active torsions:
REMARK  status: ('A' for Active; 'I' for Inactive)
REMARK    1  A    between atoms: C_1  and  C_2
REMARK    2  A    between atoms: C_2  and  N_3
REMARK    3  A    between atoms: C_7  and  C_33
REMARK    4  A    between atoms: N_10  and  C_31
REMARK    5  A    between atoms: C_11  and  C_12
REMARK    6  A    between atoms: C_13  and  N_14
REMARK    7  A    between atoms: N_14  and  C_15
REMARK    8  A    between atoms: N_14  and  S_21
REMARK    9  A    between atoms: S_21  and  C_24
REMARK   10  A    between atoms: C_27  and  C_30
REMARK   11  A    between atoms: C_31  and  C_32
REMARK   12  A    between atoms: C_33  and  O_35
REMARK   13  A    between atoms: O_35  and  C_36
REMARK   14  A    between atoms: C_36  and  C_37
REMARK                            x       y       z     vdW  Elec       q    Type
REMARK                         _______ _______ _______ _____ _____    ______ ____
ROOT
ATOM      1  C   UNL     1       2.575   4.162   2.072  0.00  0.00    +0.062 C 
ATOM      2  C   UNL     1       2.280   4.363   3.368  0.00  0.00    +0.104 C 
ENDROOT
BRANCH   1  11
ATOM      3  N   UNL     1       1.668   6.397   1.344  0.00  0.00    -0.326 N 
ATOM      4  C   UNL     1       1.422   7.015   0.135  0.00  0.00    +0.067 A 
ATOM      5  C   UNL     1       0.910   8.258  -0.218  0.00  0.00    +0.029 A 
ATOM      6  C   UNL     1       0.779   8.598  -1.534  0.00  0.00    +0.017 A 
ATOM      7  C   UNL     1       1.159   7.700  -2.541  0.00  0.00    +0.061 A 
ATOM      8  C   UNL     1       1.673   6.450  -2.206  0.00  0.00    +0.043 A 
ATOM      9  C   UNL     1       1.808   6.100  -0.862  0.00  0.00    +0.068 A 
ATOM     10  N   UNL     1       2.264   4.987  -0.234  0.00  0.00    -0.326 N 
ATOM     11  C   UNL     1       2.180   5.153   1.069  0.00  0.00    +0.116 A 
BRANCH   3  13
ATOM     12  C   UNL     1       0.002   6.619   3.120  0.00  0.00    +0.027 C 
ATOM     13  C   UNL     1       1.425   6.960   2.674  0.00  0.00    +0.120 C 
ENDBRANCH   3  13
BRANCH  10  14
ATOM     14  C   UNL     1       2.766   3.784  -0.902  0.00  0.00    +0.120 C 
ATOM     15  C   UNL     1       4.274   3.917  -1.125  0.00  0.00    +0.027 C 
ENDBRANCH  10  14
BRANCH   7  16
ATOM     16  C   UNL     1       1.012   8.079  -3.959  0.00  0.00    +0.339 C 
ATOM     17  O   UNL     1       1.340   7.302  -4.833  0.00  0.00    -0.245 OA
BRANCH  16  18
ATOM     18  O   UNL     1       0.514   9.288  -4.285  0.00  0.00    -0.461 OA
BRANCH  18  19
ATOM     19  C   UNL     1       0.398   9.594  -5.700  0.00  0.00    +0.229 C 
ATOM     20  C   UNL     1      -0.182  10.999  -5.872  0.00  0.00    +0.048 C 
ENDBRANCH  18  19
ENDBRANCH  16  18
ENDBRANCH   7  16
ENDBRANCH   1  11
BRANCH   2  21
ATOM     21  N   UNL     1       2.820   3.543   4.332  0.00  0.00    -0.179 N 
BRANCH  21  22
ATOM     22  C   UNL     1       3.554   2.415   3.957  0.00  0.00    +0.056 A 
ATOM     23  C   UNL     1       2.897   1.259   3.554  0.00  0.00    +0.025 A 
ATOM     24  C   UNL     1       3.626   0.147   3.181  0.00  0.00    +0.002 A 
ATOM     25  C   UNL     1       5.008   0.179   3.218  0.00  0.00    +0.000 A 
ATOM     26  C   UNL     1       5.665   1.327   3.624  0.00  0.00    +0.002 A 
ATOM     27  C   UNL     1       4.943   2.444   3.994  0.00  0.00    +0.025 A 
ENDBRANCH  21  22
BRANCH  21  28
ATOM     28  S   UNL     1       2.600   3.893   5.935  0.00  0.00    +0.078 S 
ATOM     29  O   UNL     1       3.717   3.352   6.626  0.00  0.00    -0.149 OA
ATOM     30  O   UNL     1       2.254   5.270   6.006  0.00  0.00    -0.149 OA
BRANCH  28  31
ATOM     31  C   UNL     1       1.187   2.990   6.476  0.00  0.00    +0.109 A 
ATOM     32  C   UNL     1      -0.079   3.517   6.301  0.00  0.00    +0.029 A 
ATOM     33  C   UNL     1      -1.188   2.806   6.722  0.00  0.00    +0.005 A 
ATOM     34  C   UNL     1      -1.030   1.573   7.327  0.00  0.00    -0.050 A 
ATOM     35  C   UNL     1       0.237   1.049   7.506  0.00  0.00    +0.005 A 
ATOM     36  C   UNL     1       1.345   1.757   7.082  0.00  0.00    +0.029 A 
ATOM     37  C   UNL     1      -2.238   0.801   7.790  0.00  0.00    +0.044 C 
ENDBRANCH  28  31
ENDBRANCH  21  28
ENDBRANCH   2  21
TORSDOF 10
