REMARK  Name = ZINC21265712
REMARK  9 active torsions:
REMARK  status: ('A' for Active; 'I' for Inactive)
REMARK    1  A    between atoms: C_3  and  S_25
REMARK    2  A    between atoms: C_6  and  C_7
REMARK    3  A    between atoms: C_7  and  N_8
REMARK    4  A    between atoms: N_8  and  C_9
REMARK    5  A    between atoms: C_9  and  C_10
REMARK    6  A    between atoms: N_12  and  C_13
REMARK    7  A    between atoms: C_16  and  N_22
REMARK    8  A    between atoms: C_18  and  N_19
REMARK    9  A    between atoms: S_25  and  N_28
REMARK                            x       y       z     vdW  Elec       q    Type
REMARK                         _______ _______ _______ _____ _____    ______ ____
ROOT
ATOM      1  C   UNL     1      -0.068   1.107  -2.413  0.00  0.00    +0.016 C 
ENDROOT
BRANCH   1   2
ATOM      2  C   UNL     1      -0.816   1.636  -3.610  0.00  0.00    +0.200 C 
ATOM      3  O   UNL     1      -1.799   2.329  -3.453  0.00  0.00    -0.278 OA
ATOM      4  N   UNL     1      -0.392   1.338  -4.854  0.00  0.00    -0.285 N 
ATOM      5  H   UNL     1       0.549   0.787  -4.998  0.00  0.00    +0.155 HD
BRANCH   4   6
ATOM      6  C   UNL     1      -1.150   1.730  -5.964  0.00  0.00    +0.064 A 
ATOM      7  C   UNL     1      -2.518   1.935  -5.835  0.00  0.00    +0.028 A 
ATOM      8  C   UNL     1      -3.262   2.322  -6.931  0.00  0.00    +0.034 A 
ATOM      9  C   UNL     1      -2.648   2.507  -8.156  0.00  0.00    +0.128 A 
ATOM     10  C   UNL     1      -1.286   2.305  -8.288  0.00  0.00    +0.067 A 
ATOM     11  C   UNL     1      -0.535   1.922  -7.194  0.00  0.00    +0.149 A 
BRANCH  11  12
ATOM     12  N   UNL     1       0.923   1.711  -7.334  0.00  0.00    +0.058 N 
ATOM     13  O   UNL     1       1.477   1.965  -8.388  0.00  0.00    -0.126 OA
ATOM     14  O   UNL     1       1.570   1.283  -6.394  0.00  0.00    -0.126 OA
ENDBRANCH  11  12
BRANCH   9  15
ATOM     15  N   UNL     1      -3.449   2.923  -9.330  0.00  0.00    +0.056 N 
ATOM     16  O   UNL     1      -4.648   3.102  -9.216  0.00  0.00    -0.126 OA
ATOM     17  O   UNL     1      -2.909   3.086 -10.409  0.00  0.00    -0.126 OA
ENDBRANCH   9  15
ENDBRANCH   4   6
ENDBRANCH   1   2
BRANCH   1  18
ATOM     18  N   UNL     1      -0.724   1.569  -1.183  0.00  0.00    +0.387 N 
ATOM     19  H   UNL     1      -1.761   1.201  -1.176  0.00  0.00    -0.085 HD
ATOM     20  H   UNL     1      -0.726   2.669  -1.175  0.00  0.00    -0.085 HD
BRANCH  18  21
ATOM     21  C   UNL     1      -0.021   1.072   0.007  0.00  0.00    -0.046 C 
BRANCH  21  27
ATOM     22  C   UNL     1      -0.349   2.766   1.820  0.00  0.00    +0.003 A 
ATOM     23  C   UNL     1      -0.994   3.220   2.955  0.00  0.00    +0.029 A 
ATOM     24  C   UNL     1      -2.006   2.469   3.522  0.00  0.00    +0.105 A 
ATOM     25  C   UNL     1      -2.375   1.264   2.953  0.00  0.00    +0.029 A 
ATOM     26  C   UNL     1      -1.733   0.812   1.815  0.00  0.00    +0.003 A 
ATOM     27  C   UNL     1      -0.721   1.565   1.247  0.00  0.00    -0.064 A 
BRANCH  24  28
ATOM     28  S   UNL     1      -2.826   3.046   4.971  0.00  0.00    +0.056 S 
ATOM     29  O   UNL     1      -2.666   4.457   4.994  0.00  0.00    -0.153 OA
ATOM     30  O   UNL     1      -4.103   2.423   4.990  0.00  0.00    -0.153 OA
BRANCH  28  31
ATOM     31  N   UNL     1      -1.992   2.454   6.274  0.00  0.00    -0.204 NA
ATOM     32  H   UNL     1      -2.474   2.793   7.203  0.00  0.00    +0.144 HD
ATOM     33  H   UNL     1      -0.956   2.822   6.244  0.00  0.00    +0.144 HD
ENDBRANCH  28  31
ENDBRANCH  24  28
ENDBRANCH  21  27
ENDBRANCH  18  21
ENDBRANCH   1  18
TORSDOF 9
