REMARK  Name = ZINC48181816
REMARK  9 active torsions:
REMARK  status: ('A' for Active; 'I' for Inactive)
REMARK    1  A    between atoms: C_1  and  C_2
REMARK    2  A    between atoms: C_5  and  O_29
REMARK    3  A    between atoms: C_6  and  C_8
REMARK    4  A    between atoms: C_8  and  C_10
REMARK    5  A    between atoms: C_8  and  N_11
REMARK    6  A    between atoms: N_14  and  C_15
REMARK    7  A    between atoms: C_15  and  C_16
REMARK    8  A    between atoms: N_25  and  C_28
REMARK    9  A    between atoms: O_29  and  C_30
REMARK                            x       y       z     vdW  Elec       q    Type
REMARK                         _______ _______ _______ _____ _____    ______ ____
ROOT
ATOM      1  N   UNL     1      -0.569  -2.098   3.559  0.00  0.00    -0.293 N 
ATOM      2  C   UNL     1      -1.117  -2.661   4.654  0.00  0.00    +0.300 C 
ATOM      3  O   UNL     1      -1.128  -3.870   4.775  0.00  0.00    -0.253 OA
ATOM      4  N   UNL     1      -1.653  -1.883   5.615  0.00  0.00    -0.295 N 
ATOM      5  H   UNL     1      -0.560  -1.133   3.463  0.00  0.00    +0.151 HD
ATOM      6  H   UNL     1      -1.644  -0.917   5.519  0.00  0.00    +0.151 HD
ENDROOT
BRANCH   1   7
ATOM      7  C   UNL     1       0.014  -2.943   2.514  0.00  0.00    +0.105 C 
ATOM      8  C   UNL     1       1.459  -3.286   2.882  0.00  0.00    +0.033 C 
BRANCH   7  14
ATOM      9  C   UNL     1      -0.066   1.359  -0.038  0.00  0.00    +0.044 C 
ATOM     10  C   UNL     1      -0.048  -0.148  -0.022  0.00  0.00    -0.050 A 
ATOM     11  C   UNL     1      -0.052  -0.851  -1.213  0.00  0.00    +0.007 A 
ATOM     12  C   UNL     1      -0.035  -2.232  -1.201  0.00  0.00    +0.046 A 
ATOM     13  C   UNL     1      -0.014  -2.914   0.007  0.00  0.00    +0.125 A 
ATOM     14  C   UNL     1      -0.009  -2.206   1.200  0.00  0.00    +0.014 A 
ATOM     15  C   UNL     1      -0.021  -0.825   1.183  0.00  0.00    +0.012 A 
BRANCH  13  16
ATOM     16  O   UNL     1       0.002  -4.272   0.022  0.00  0.00    -0.495 OA
ATOM     17  C   UNL     1      -0.005  -4.935  -1.244  0.00  0.00    +0.277 C 
ENDBRANCH  13  16
ENDBRANCH   7  14
ENDBRANCH   1   7
BRANCH   4  18
ATOM     18  C   UNL     1      -2.248  -2.494   6.806  0.00  0.00    +0.141 C 
BRANCH  18  19
ATOM     19  C   UNL     1      -2.771  -1.415   7.718  0.00  0.00    -0.026 A 
ATOM     20  C   UNL     1      -1.958  -0.856   8.696  0.00  0.00    +0.023 A 
ATOM     21  C   UNL     1      -2.467   0.132   9.515  0.00  0.00    +0.084 A 
ATOM     22  N   UNL     1      -3.712   0.549   9.379  0.00  0.00    -0.350 N 
ATOM     23  C   UNL     1      -4.518   0.042   8.459  0.00  0.00    +0.099 A 
ATOM     24  C   UNL     1      -4.069  -0.953   7.595  0.00  0.00    +0.047 A 
ATOM     25  N   UNL     1      -5.822   0.511   8.351  0.00  0.00    -0.320 N 
ATOM     26  C   UNL     1      -6.701   0.058   7.262  0.00  0.00    +0.088 C 
ATOM     27  C   UNL     1      -8.029  -0.403   7.870  0.00  0.00    -0.060 C 
ATOM     28  N   UNL     1      -8.591   0.676   8.693  0.00  0.00    +0.380 N 
ATOM     29  C   UNL     1      -7.706   0.946   9.834  0.00  0.00    -0.060 C 
ATOM     30  C   UNL     1      -6.364   1.470   9.326  0.00  0.00    +0.088 C 
ATOM     31  C   UNL     1      -9.915   0.275   9.186  0.00  0.00    -0.096 C 
ATOM     32  H   UNL     1      -4.044   1.245   9.967  0.00  0.00    +0.166 HD
ATOM     33  H   UNL     1      -8.681   1.511   8.134  0.00  0.00    -0.082 HD
ENDBRANCH  18  19
ENDBRANCH   4  18
TORSDOF 5
