REMARK  Name = ZINC64931561
REMARK  8 active torsions:
REMARK  status: ('A' for Active; 'I' for Inactive)
REMARK    1  A    between atoms: C_1  and  C_2
REMARK    2  A    between atoms: C_2  and  N_3
REMARK    3  A    between atoms: N_3  and  C_4
REMARK    4  A    between atoms: N_3  and  C_10
REMARK    5  A    between atoms: C_4  and  C_5
REMARK    6  A    between atoms: C_10  and  C_11
REMARK    7  A    between atoms: C_14  and  C_16
REMARK    8  A    between atoms: C_19  and  C_22
REMARK                            x       y       z     vdW  Elec       q    Type
REMARK                         _______ _______ _______ _____ _____    ______ ____
ROOT
ATOM      1  C   UNL     1       1.941   1.538  -1.082  0.00  0.00    +0.033 A 
ATOM      2  C   UNL     1       1.997   2.130   0.143  0.00  0.00    +0.068 A 
ATOM      3  S   UNL     1       1.951   3.856  -0.323  0.00  0.00    -0.075 S 
ATOM      4  C   UNL     1       1.862   3.602  -2.091  0.00  0.00    +0.108 A 
ATOM      5  N   UNL     1       1.880   2.278  -2.162  0.00  0.00    -0.246 NA
ENDROOT
BRANCH   4   6
ATOM      6  C   UNL     1       1.792   4.598  -3.179  0.00  0.00    +0.007 A 
ATOM      7  C   UNL     1       1.722   4.176  -4.509  0.00  0.00    +0.011 A 
ATOM      8  C   UNL     1       1.656   5.104  -5.523  0.00  0.00    +0.014 A 
ATOM      9  C   UNL     1       1.660   6.469  -5.223  0.00  0.00    +0.037 A 
ATOM     10  C   UNL     1       1.731   6.891  -3.892  0.00  0.00    +0.014 A 
ATOM     11  C   UNL     1       1.791   5.963  -2.878  0.00  0.00    +0.011 A 
BRANCH   9  12
ATOM     12  C   UNL     1       1.591   7.465  -6.311  0.00  0.00    +0.242 C 
ATOM     13  O   UNL     1       1.530   7.098  -7.468  0.00  0.00    -0.270 OA
ATOM     14  N   UNL     1       1.595   8.781  -6.020  0.00  0.00    -0.325 N 
ATOM     15  H   UNL     1       1.643   9.074  -5.097  0.00  0.00    +0.145 HD
ATOM     16  H   UNL     1       1.549   9.436  -6.735  0.00  0.00    +0.145 HD
ENDBRANCH   9  12
ENDBRANCH   4   6
BRANCH   1  17
ATOM     17  C   UNL     1       1.955   0.036  -1.195  0.00  0.00    -0.021 C 
BRANCH  17  18
ATOM     18  N   UNL     1       0.576  -0.462  -1.281  0.00  0.00    +0.386 N 
ATOM     19  H   UNL     1       0.043  -0.114  -0.497  0.00  0.00    -0.081 HD
BRANCH  18  21
ATOM     20  C   UNL     1       1.088  -2.415   0.105  0.00  0.00    -0.017 C 
ATOM     21  C   UNL     1       0.582  -1.931  -1.255  0.00  0.00    -0.081 C 
ENDBRANCH  18  21
BRANCH  18  22
ATOM     22  C   UNL     1      -0.036   0.003  -2.533  0.00  0.00    -0.035 C 
BRANCH  22  23
ATOM     23  C   UNL     1      -1.487  -0.403  -2.564  0.00  0.00    -0.027 A 
ATOM     24  C   UNL     1      -2.573   0.277  -2.121  0.00  0.00    +0.009 A 
ATOM     25  C   UNL     1      -3.823  -0.297  -2.256  0.00  0.00    +0.008 A 
ATOM     26  C   UNL     1      -3.926  -1.522  -2.827  0.00  0.00    +0.045 A 
ATOM     27  S   UNL     1      -2.222  -1.899  -3.202  0.00  0.00    -0.103 S 
ENDBRANCH  22  23
ENDBRANCH  18  22
ENDBRANCH  17  18
ENDBRANCH   1  17
TORSDOF 7
