REMARK  Name = ZINC65388167
REMARK  12 active torsions:
REMARK  status: ('A' for Active; 'I' for Inactive)
REMARK    1  A    between atoms: C_1  and  C_2
REMARK    2  A    between atoms: C_3  and  C_25
REMARK    3  A    between atoms: C_7  and  N_14
REMARK    4  A    between atoms: C_9  and  C_11
REMARK    5  A    between atoms: C_11  and  C_12
REMARK    6  A    between atoms: C_12  and  N_13
REMARK    7  A    between atoms: N_14  and  C_15
REMARK    8  A    between atoms: C_15  and  C_16
REMARK    9  A    between atoms: C_16  and  C_17
REMARK   10  A    between atoms: C_17  and  S_18
REMARK   11  A    between atoms: S_18  and  C_19
REMARK   12  A    between atoms: C_22  and  C_24
REMARK                            x       y       z     vdW  Elec       q    Type
REMARK                         _______ _______ _______ _____ _____    ______ ____
ROOT
ATOM      1  C   UNL     1      -0.556   1.486   0.114  0.00  0.00    +0.045 C 
ATOM      2  C   UNL     1      -0.484  -0.020   0.096  0.00  0.00    -0.028 A 
ATOM      3  C   UNL     1      -0.771  -0.699  -1.024  0.00  0.00    -0.008 A 
ATOM      4  S   UNL     1      -0.546  -2.402  -0.548  0.00  0.00    -0.074 S 
ATOM      5  C   UNL     1      -0.073  -2.156   1.143  0.00  0.00    +0.114 A 
ATOM      6  C   UNL     1      -0.097  -0.751   1.289  0.00  0.00    +0.051 A 
ATOM      7  C   UNL     1       0.255  -0.267   2.579  0.00  0.00    +0.131 A 
ATOM      8  N   UNL     1       0.577  -1.132   3.527  0.00  0.00    -0.217 NA
ATOM      9  C   UNL     1       0.583  -2.436   3.318  0.00  0.00    +0.131 A 
ATOM     10  N   UNL     1       0.256  -2.946   2.146  0.00  0.00    -0.225 NA
ATOM     11  C   UNL     1      -1.185  -0.153  -2.366  0.00  0.00    +0.052 C 
ENDROOT
BRANCH   7  12
ATOM     12  N   UNL     1       0.262   1.092   2.839  0.00  0.00    -0.328 N 
ATOM     13  H   UNL     1       0.110   1.724   2.119  0.00  0.00    +0.147 HD
BRANCH  12  14
ATOM     14  C   UNL     1       0.498   1.576   4.201  0.00  0.00    +0.104 C 
BRANCH  14  15
ATOM     15  C   UNL     1       0.454   3.105   4.214  0.00  0.00    +0.030 C 
BRANCH  15  16
ATOM     16  C   UNL     1       0.700   3.611   5.637  0.00  0.00    +0.078 C 
BRANCH  16  17
ATOM     17  S   UNL     1       0.648   5.424   5.652  0.00  0.00    -0.097 S 
BRANCH  17  18
ATOM     18  C   UNL     1       0.945   5.845   7.337  0.00  0.00    +0.158 A 
ATOM     19  N   UNL     1       1.168   5.063   8.386  0.00  0.00    -0.135 NA
ATOM     20  N   UNL     1       1.365   5.538   9.538  0.00  0.00    -0.146 NA
ATOM     21  C   UNL     1       1.362   6.834   9.774  0.00  0.00    +0.100 A 
ATOM     22  S   UNL     1       1.041   7.451   8.123  0.00  0.00    -0.044 S 
ATOM     23  C   UNL     1       1.574   7.584  11.063  0.00  0.00    +0.075 C 
ENDBRANCH  17  18
ENDBRANCH  16  17
ENDBRANCH  15  16
ENDBRANCH  14  15
ENDBRANCH  12  14
ENDBRANCH   7  12
BRANCH   9  24
ATOM     24  C   UNL     1       0.960  -3.362   4.445  0.00  0.00    +0.057 C 
BRANCH  24  25
ATOM     25  C   UNL     1      -0.295  -3.747   5.231  0.00  0.00    -0.079 C 
BRANCH  25  26
ATOM     26  N   UNL     1       0.073  -4.649   6.330  0.00  0.00    +0.378 N 
ATOM     27  H   UNL     1       0.501  -5.481   5.953  0.00  0.00    -0.090 HD
ATOM     28  H   UNL     1       0.724  -4.184   6.944  0.00  0.00    -0.090 HD
ATOM     29  H   UNL     1      -0.755  -4.903   6.848  0.00  0.00    -0.090 HD
ENDBRANCH  25  26
ENDBRANCH  24  25
ENDBRANCH   9  24
TORSDOF 9
