REMARK  Name = ZINC53137453
REMARK  5 active torsions:
REMARK  status: ('A' for Active; 'I' for Inactive)
REMARK    1  A    between atoms: C_4  and  C_7
REMARK    2  A    between atoms: N_16  and  C_17
REMARK    3  A    between atoms: C_17  and  C_18
REMARK    4  A    between atoms: N_20  and  C_21
REMARK    5  A    between atoms: C_26  and  C_27
REMARK                            x       y       z     vdW  Elec       q    Type
REMARK                         _______ _______ _______ _____ _____    ______ ____
ROOT
ATOM      1  C   UNL     1       3.661  -0.689  -0.041  0.00  0.00    -0.005 C 
ATOM      2  C   UNL     1       3.999  -1.165   1.369  0.00  0.00    -0.047 A 
ATOM      3  C   UNL     1       3.778  -0.412   2.519  0.00  0.00    +0.010 A 
ATOM      4  C   UNL     1       4.107  -0.916   3.732  0.00  0.00    +0.045 A 
ATOM      5  S   UNL     1       4.762  -2.521   3.298  0.00  0.00    -0.101 S 
ATOM      6  C   UNL     1       4.551  -2.398   1.546  0.00  0.00    -0.010 A 
ATOM      7  C   UNL     1       4.885  -3.382   0.473  0.00  0.00    +0.024 C 
ATOM      8  C   UNL     1       4.821  -2.640  -0.874  0.00  0.00    -0.072 C 
ATOM      9  N   UNL     1       3.580  -1.855  -0.929  0.00  0.00    +0.393 N 
ATOM     10  H   UNL     1       2.808  -2.438  -0.641  0.00  0.00    -0.080 HD
ENDROOT
BRANCH   1  14
ATOM     11  C   UNL     1      -0.093   1.348  -0.007  0.00  0.00    +0.000 A 
ATOM     12  C   UNL     1       1.085   2.071  -0.012  0.00  0.00    +0.000 A 
ATOM     13  C   UNL     1       2.300   1.411  -0.022  0.00  0.00    +0.002 A 
ATOM     14  C   UNL     1       2.337   0.029  -0.028  0.00  0.00    -0.057 A 
ATOM     15  C   UNL     1       1.158  -0.693  -0.023  0.00  0.00    +0.002 A 
ATOM     16  C   UNL     1      -0.057  -0.034  -0.014  0.00  0.00    +0.000 A 
ENDBRANCH   1  14
BRANCH   9  17
ATOM     17  C   UNL     1       3.354  -1.399  -2.307  0.00  0.00    +0.020 C 
BRANCH  17  18
ATOM     18  C   UNL     1       3.147  -2.592  -3.203  0.00  0.00    +0.201 C 
ATOM     19  O   UNL     1       3.185  -3.713  -2.740  0.00  0.00    -0.278 OA
ATOM     20  N   UNL     1       2.921  -2.415  -4.520  0.00  0.00    -0.286 N 
ATOM     21  H   UNL     1       2.826  -1.519  -4.879  0.00  0.00    +0.155 HD
BRANCH  20  22
ATOM     22  C   UNL     1       2.823  -3.518  -5.365  0.00  0.00    +0.045 A 
ATOM     23  C   UNL     1       2.242  -4.695  -4.911  0.00  0.00    +0.024 A 
ATOM     24  C   UNL     1       2.147  -5.787  -5.750  0.00  0.00    +0.002 A 
ATOM     25  C   UNL     1       2.628  -5.719  -7.048  0.00  0.00    +0.001 A 
ATOM     26  C   UNL     1       3.207  -4.559  -7.515  0.00  0.00    +0.015 A 
ATOM     27  C   UNL     1       3.306  -3.444  -6.680  0.00  0.00    +0.058 A 
BRANCH  27  28
ATOM     28  C   UNL     1       3.919  -2.197  -7.176  0.00  0.00    +0.243 C 
ATOM     29  O   UNL     1       4.096  -1.263  -6.417  0.00  0.00    -0.270 OA
ATOM     30  N   UNL     1       4.283  -2.093  -8.469  0.00  0.00    -0.325 N 
ATOM     31  H   UNL     1       4.142  -2.838  -9.074  0.00  0.00    +0.145 HD
ATOM     32  H   UNL     1       4.686  -1.274  -8.795  0.00  0.00    +0.145 HD
ENDBRANCH  27  28
ENDBRANCH  20  22
ENDBRANCH  17  18
ENDBRANCH   9  17
TORSDOF 5
