REMARK  Name = ZINC51354287
REMARK  14 active torsions:
REMARK  status: ('A' for Active; 'I' for Inactive)
REMARK    1  A    between atoms: C_1  and  C_2
REMARK    2  A    between atoms: C_2  and  N_3
REMARK    3  A    between atoms: N_3  and  C_4
REMARK    4  A    between atoms: N_3  and  C_6
REMARK    5  A    between atoms: C_4  and  C_5
REMARK    6  A    between atoms: C_6  and  C_7
REMARK    7  A    between atoms: C_7  and  N_8
REMARK    8  A    between atoms: C_9  and  C_11
REMARK    9  A    between atoms: C_14  and  N_17
REMARK   10  A    between atoms: N_20  and  C_21
REMARK   11  A    between atoms: C_24  and  C_27
REMARK   12  A    between atoms: C_27  and  O_29
REMARK   13  A    between atoms: O_29  and  C_30
REMARK   14  A    between atoms: C_30  and  C_31
REMARK                            x       y       z     vdW  Elec       q    Type
REMARK                         _______ _______ _______ _____ _____    ______ ____
ROOT
ATOM      1  C   UNL     1       0.282  -5.582   3.652  0.00  0.00    +0.037 A 
ATOM      2  C   UNL     1      -0.049  -6.500   2.652  0.00  0.00    +0.015 A 
ATOM      3  C   UNL     1      -0.036  -7.849   2.927  0.00  0.00    +0.024 A 
ATOM      4  C   UNL     1       0.304  -8.298   4.199  0.00  0.00    +0.035 A 
ATOM      5  C   UNL     1       0.633  -7.386   5.198  0.00  0.00    +0.024 A 
ATOM      6  C   UNL     1       0.629  -6.036   4.928  0.00  0.00    +0.015 A 
ENDROOT
BRANCH   4   7
ATOM      7  N   UNL     1       0.316  -9.665   4.475  0.00  0.00    -0.269 N 
ATOM      8  C   UNL     1      -0.603 -10.474   3.910  0.00  0.00    +0.308 C 
ATOM      9  O   UNL     1      -1.387 -10.027   3.096  0.00  0.00    -0.252 OA
ATOM     10  N   UNL     1      -0.651 -11.778   4.248  0.00  0.00    -0.269 N 
ATOM     11  H   UNL     1       0.984 -10.034   5.073  0.00  0.00    +0.156 HD
ATOM     12  H   UNL     1      -0.077 -12.118   4.952  0.00  0.00    +0.156 HD
BRANCH  10  13
ATOM     13  C   UNL     1      -1.526 -12.637   3.586  0.00  0.00    +0.035 A 
ATOM     14  C   UNL     1      -1.809 -12.437   2.238  0.00  0.00    +0.024 A 
ATOM     15  C   UNL     1      -2.672 -13.284   1.581  0.00  0.00    +0.017 A 
ATOM     16  C   UNL     1      -3.266 -14.346   2.269  0.00  0.00    +0.059 A 
ATOM     17  C   UNL     1      -2.979 -14.544   3.623  0.00  0.00    +0.017 A 
ATOM     18  C   UNL     1      -2.111 -13.697   4.273  0.00  0.00    +0.024 A 
BRANCH  16  19
ATOM     19  C   UNL     1      -4.192 -15.255   1.569  0.00  0.00    +0.339 C 
ATOM     20  O   UNL     1      -4.440 -15.081   0.392  0.00  0.00    -0.245 OA
BRANCH  19  21
ATOM     21  O   UNL     1      -4.763 -16.278   2.234  0.00  0.00    -0.461 OA
BRANCH  21  22
ATOM     22  C   UNL     1      -5.650 -17.119   1.493  0.00  0.00    +0.229 C 
ATOM     23  C   UNL     1      -6.197 -18.216   2.409  0.00  0.00    +0.048 C 
ENDBRANCH  21  22
ENDBRANCH  19  21
ENDBRANCH  16  19
ENDBRANCH  10  13
ENDBRANCH   4   7
BRANCH   1  25
ATOM     24  N   UNL     1      -0.066  -3.698   2.131  0.00  0.00    -0.313 N 
ATOM     25  C   UNL     1       0.270  -4.135   3.361  0.00  0.00    +0.244 C 
ATOM     26  O   UNL     1       0.562  -3.337   4.231  0.00  0.00    -0.270 OA
ATOM     27  H   UNL     1      -0.299  -4.335   1.437  0.00  0.00    +0.149 HD
BRANCH  24  28
ATOM     28  C   UNL     1      -0.078  -2.262   1.842  0.00  0.00    +0.086 C 
BRANCH  28  29
ATOM     29  C   UNL     1      -0.489  -2.038   0.385  0.00  0.00    -0.060 C 
BRANCH  29  30
ATOM     30  N   UNL     1      -0.501  -0.598   0.095  0.00  0.00    +0.380 N 
ATOM     31  H   UNL     1      -1.097  -0.127   0.759  0.00  0.00    -0.082 HD
BRANCH  30  33
ATOM     32  C   UNL     1       0.835   1.452   0.017  0.00  0.00    -0.017 C 
ATOM     33  C   UNL     1       0.864  -0.067   0.199  0.00  0.00    -0.082 C 
ENDBRANCH  30  33
BRANCH  30  34
ATOM     34  C   UNL     1      -1.010  -0.377  -1.265  0.00  0.00    -0.082 C 
ATOM     35  C   UNL     1      -2.474  -0.816  -1.339  0.00  0.00    -0.017 C 
ENDBRANCH  30  34
ENDBRANCH  29  30
ENDBRANCH  28  29
ENDBRANCH  24  28
ENDBRANCH   1  25
TORSDOF 11
