REMARK  Name = ZINC66462676
REMARK  3 active torsions:
REMARK  status: ('A' for Active; 'I' for Inactive)
REMARK    1  A    between atoms: C_1  and  C_2
REMARK    2  A    between atoms: C_9  and  N_12
REMARK    3  A    between atoms: C_13  and  C_15
REMARK                            x       y       z     vdW  Elec       q    Type
REMARK                         _______ _______ _______ _____ _____    ______ ____
ROOT
ATOM      1  N   UNL     1       0.047  -1.961   3.623  0.00  0.00    -0.280 N 
ATOM      2  C   UNL     1      -0.040  -2.621   4.795  0.00  0.00    +0.248 C 
ATOM      3  O   UNL     1      -0.023  -3.837   4.811  0.00  0.00    -0.270 OA
ATOM      4  H   UNL     1       0.114  -0.994   3.614  0.00  0.00    +0.155 HD
ENDROOT
BRANCH   2   5
ATOM      5  C   UNL     1      -0.156  -1.867   6.058  0.00  0.00    +0.039 A 
ATOM      6  C   UNL     1      -0.182  -0.470   6.041  0.00  0.00    +0.017 A 
ATOM      7  C   UNL     1      -0.291   0.234   7.220  0.00  0.00    +0.048 A 
ATOM      8  C   UNL     1      -0.375  -0.442   8.428  0.00  0.00    +0.142 A 
ATOM      9  C   UNL     1      -0.349  -1.838   8.453  0.00  0.00    +0.076 A 
ATOM     10  C   UNL     1      -0.246  -2.550   7.275  0.00  0.00    +0.040 A 
ATOM     11  N   UNL     1      -0.434  -2.503   9.685  0.00  0.00    -0.280 N 
ATOM     12  C   UNL     1      -0.852  -1.817  10.771  0.00  0.00    +0.255 C 
ATOM     13  O   UNL     1      -0.905  -2.363  11.853  0.00  0.00    -0.272 OA
ATOM     14  C   UNL     1      -1.252  -0.370  10.633  0.00  0.00    +0.325 C 
ATOM     15  O   UNL     1      -0.483   0.244   9.596  0.00  0.00    -0.481 OA
ATOM     16  H   UNL     1      -0.197  -3.441   9.756  0.00  0.00    +0.155 HD
ENDBRANCH   2   5
BRANCH   1  25
ATOM     17  C   UNL     1       2.400   0.968   0.316  0.00  0.00    +0.065 C 
ATOM     18  C   UNL     1       1.763  -0.394   0.225  0.00  0.00    +0.039 A 
ATOM     19  C   UNL     1       1.777  -1.070  -0.993  0.00  0.00    +0.023 A 
ATOM     20  C   UNL     1       1.204  -2.305  -1.093  0.00  0.00    +0.012 A 
ATOM     21  C   UNL     1       0.612  -2.859   0.058  0.00  0.00    +0.002 A 
ATOM     22  C   UNL     1       0.005  -4.125   0.029  0.00  0.00    +0.010 A 
ATOM     23  C   UNL     1      -0.559  -4.633   1.160  0.00  0.00    +0.003 A 
ATOM     24  C   UNL     1      -0.545  -3.916   2.352  0.00  0.00    +0.025 A 
ATOM     25  C   UNL     1       0.040  -2.671   2.420  0.00  0.00    +0.060 A 
ATOM     26  C   UNL     1       0.634  -2.117   1.264  0.00  0.00    +0.092 A 
ATOM     27  N   UNL     1       1.215  -0.915   1.296  0.00  0.00    -0.250 NA
ENDBRANCH   1  25
TORSDOF 2
