REMARK  Name = ZINC22199507
REMARK  10 active torsions:
REMARK  status: ('A' for Active; 'I' for Inactive)
REMARK    1  A    between atoms: C_1  and  C_2
REMARK    2  A    between atoms: C_2  and  C_4
REMARK    3  A    between atoms: C_2  and  N_14
REMARK    4  A    between atoms: C_7  and  S_10
REMARK    5  A    between atoms: S_10  and  N_13
REMARK    6  A    between atoms: N_14  and  C_15
REMARK    7  A    between atoms: N_14  and  C_16
REMARK    8  A    between atoms: C_16  and  C_17
REMARK    9  A    between atoms: C_17  and  C_18
REMARK   10  A    between atoms: N_20  and  C_21
REMARK                            x       y       z     vdW  Elec       q    Type
REMARK                         _______ _______ _______ _____ _____    ______ ____
ROOT
ATOM      1  N   UNL     1      -1.733   2.613   6.441  0.00  0.00    +0.383 N 
ATOM      2  C   UNL     1      -2.033   3.728   5.534  0.00  0.00    -0.095 C 
ATOM      3  H   UNL     1      -0.649   2.609   6.625  0.00  0.00    -0.081 HD
ENDROOT
BRANCH   1   5
ATOM      4  C   UNL     1      -1.285   1.126   4.548  0.00  0.00    -0.008 C 
ATOM      5  C   UNL     1      -2.094   1.326   5.832  0.00  0.00    -0.041 C 
BRANCH   5   6
ATOM      6  C   UNL     1      -1.788   0.210   6.797  0.00  0.00    -0.061 A 
ATOM      7  C   UNL     1      -2.730  -0.773   7.038  0.00  0.00    +0.004 A 
ATOM      8  C   UNL     1      -2.449  -1.797   7.923  0.00  0.00    +0.029 A 
ATOM      9  C   UNL     1      -1.227  -1.838   8.567  0.00  0.00    +0.105 A 
ATOM     10  C   UNL     1      -0.287  -0.853   8.330  0.00  0.00    +0.029 A 
ATOM     11  C   UNL     1      -0.566   0.169   7.441  0.00  0.00    +0.004 A 
BRANCH   9  12
ATOM     12  S   UNL     1      -0.870  -3.144   9.695  0.00  0.00    +0.056 S 
ATOM     13  O   UNL     1      -2.120  -3.634  10.158  0.00  0.00    -0.153 OA
ATOM     14  O   UNL     1       0.131  -2.655  10.578  0.00  0.00    -0.153 OA
BRANCH  12  15
ATOM     15  N   UNL     1      -0.175  -4.368   8.823  0.00  0.00    -0.204 NA
ATOM     16  H   UNL     1       0.065  -5.206   9.494  0.00  0.00    +0.144 HD
ATOM     17  H   UNL     1       0.748  -4.003   8.349  0.00  0.00    +0.144 HD
ENDBRANCH  12  15
ENDBRANCH   9  12
ENDBRANCH   5   6
ENDBRANCH   1   5
BRANCH   1  18
ATOM     18  C   UNL     1      -2.409   2.791   7.734  0.00  0.00    -0.069 C 
BRANCH  18  19
ATOM     19  C   UNL     1      -1.826   4.010   8.451  0.00  0.00    +0.077 C 
BRANCH  19  20
ATOM     20  C   UNL     1      -2.519   4.192   9.777  0.00  0.00    +0.215 C 
ATOM     21  O   UNL     1      -3.393   3.422  10.115  0.00  0.00    -0.276 OA
ATOM     22  N   UNL     1      -2.168   5.211  10.586  0.00  0.00    -0.283 N 
ATOM     23  H   UNL     1      -1.336   5.874  10.307  0.00  0.00    +0.155 HD
BRANCH  22  24
ATOM     24  C   UNL     1      -2.861   5.425  11.784  0.00  0.00    +0.070 A 
ATOM     25  C   UNL     1      -4.247   5.321  11.814  0.00  0.00    +0.064 A 
ATOM     26  C   UNL     1      -4.928   5.529  12.998  0.00  0.00    +0.022 A 
ATOM     27  C   UNL     1      -4.233   5.849  14.150  0.00  0.00    +0.003 A 
ATOM     28  C   UNL     1      -2.855   5.958  14.123  0.00  0.00    +0.022 A 
ATOM     29  C   UNL     1      -2.167   5.747  12.943  0.00  0.00    +0.064 A 
ATOM     30 CL   UNL     1      -0.437   5.885  12.909  0.00  0.00    -0.082 Cl
ATOM     31 CL   UNL     1      -5.120   4.925  10.367  0.00  0.00    -0.082 Cl
ENDBRANCH  22  24
ENDBRANCH  19  20
ENDBRANCH  18  19
ENDBRANCH   1  18
TORSDOF 8
