REMARK  Name = ZINC09138007
REMARK  7 active torsions:
REMARK  status: ('A' for Active; 'I' for Inactive)
REMARK    1  A    between atoms: C_1  and  C_2
REMARK    2  A    between atoms: C_5  and  C_8
REMARK    3  A    between atoms: C_8  and  N_9
REMARK    4  A    between atoms: C_10  and  C_12
REMARK    5  A    between atoms: C_12  and  C_14
REMARK    6  A    between atoms: C_12  and  N_15
REMARK    7  A    between atoms: C_16  and  C_18
REMARK                            x       y       z     vdW  Elec       q    Type
REMARK                         _______ _______ _______ _____ _____    ______ ____
ROOT
ATOM      1  N   UNL     1       1.250  -5.952  -3.087  0.00  0.00    -0.306 N 
ATOM      2  C   UNL     1       0.755  -6.627  -4.143  0.00  0.00    +0.200 C 
ATOM      3  O   UNL     1       0.294  -6.022  -5.088  0.00  0.00    -0.278 OA
ATOM      4  H   UNL     1       1.619  -6.435  -2.331  0.00  0.00    +0.149 HD
ENDROOT
BRANCH   2   5
ATOM      5  C   UNL     1       0.776  -8.134  -4.150  0.00  0.00    +0.021 C 
ATOM      6  C   UNL     1      -0.389  -8.668  -3.315  0.00  0.00    +0.028 C 
ATOM      7  C   UNL     1      -0.524 -10.156  -3.512  0.00  0.00    -0.047 A 
ATOM      8  C   UNL     1      -1.271 -10.879  -2.594  0.00  0.00    +0.004 A 
ATOM      9  C   UNL     1      -1.424 -12.243  -2.740  0.00  0.00    +0.000 A 
ATOM     10  C   UNL     1      -0.830 -12.892  -3.807  0.00  0.00    +0.000 A 
ATOM     11  C   UNL     1      -0.085 -12.173  -4.720  0.00  0.00    +0.002 A 
ATOM     12  C   UNL     1       0.072 -10.802  -4.574  0.00  0.00    -0.061 A 
ATOM     13  C   UNL     1       0.901 -10.063  -5.591  0.00  0.00    -0.045 C 
ATOM     14  N   UNL     1       0.623  -8.621  -5.534  0.00  0.00    +0.389 N 
ATOM     15  H   UNL     1       1.282  -8.123  -6.144  0.00  0.00    -0.084 HD
ATOM     16  H   UNL     1      -0.337  -8.446  -5.852  0.00  0.00    -0.084 HD
ENDBRANCH   2   5
BRANCH   1  17
ATOM     17  C   UNL     1       1.230  -4.487  -3.080  0.00  0.00    +0.156 C 
ATOM     18  C   UNL     1       2.465  -3.957  -3.811  0.00  0.00    +0.038 C 
BRANCH  17  20
ATOM     19  N   UNL     1       1.222  -2.667  -1.404  0.00  0.00    -0.310 N 
ATOM     20  C   UNL     1       1.237  -3.991  -1.657  0.00  0.00    +0.233 C 
ATOM     21  O   UNL     1       1.257  -4.784  -0.739  0.00  0.00    -0.274 OA
ATOM     22  H   UNL     1       1.206  -2.034  -2.138  0.00  0.00    +0.149 HD
BRANCH  19  23
ATOM     23  C   UNL     1       1.229  -2.186  -0.021  0.00  0.00    +0.139 C 
BRANCH  23  28
ATOM     24  C   UNL     1       1.151   3.592   0.010  0.00  0.00    +0.044 C 
ATOM     25  C   UNL     1       1.171   2.086   0.002  0.00  0.00    -0.050 A 
ATOM     26  C   UNL     1      -0.017   1.378   0.010  0.00  0.00    +0.003 A 
ATOM     27  C   UNL     1       0.002  -0.004   0.002  0.00  0.00    +0.005 A 
ATOM     28  C   UNL     1       1.208  -0.679  -0.013  0.00  0.00    -0.030 A 
ATOM     29  C   UNL     1       2.396   0.029  -0.021  0.00  0.00    +0.005 A 
ATOM     30  C   UNL     1       2.377   1.411  -0.015  0.00  0.00    +0.003 A 
ENDBRANCH  23  28
ENDBRANCH  19  23
ENDBRANCH  17  20
ENDBRANCH   1  17
TORSDOF 5
