REMARK  Name = ZINC39364802
REMARK  8 active torsions:
REMARK  status: ('A' for Active; 'I' for Inactive)
REMARK    1  A    between atoms: C_1  and  C_2
REMARK    2  A    between atoms: C_4  and  C_8
REMARK    3  A    between atoms: C_8  and  C_9
REMARK    4  A    between atoms: C_9  and  N_10
REMARK    5  A    between atoms: N_10  and  C_11
REMARK    6  A    between atoms: C_11  and  C_12
REMARK    7  A    between atoms: N_15  and  C_26
REMARK    8  A    between atoms: C_17  and  C_19
REMARK                            x       y       z     vdW  Elec       q    Type
REMARK                         _______ _______ _______ _____ _____    ______ ____
ROOT
ATOM      1  C   UNL     1      -1.046  -7.149   3.649  0.00  0.00    +0.014 C 
ATOM      2  C   UNL     1      -0.329  -6.624   4.916  0.00  0.00    +0.127 C 
ATOM      3  N   UNL     1       0.754  -7.585   5.178  0.00  0.00    -0.266 N 
ATOM      4  N   UNL     1       0.782  -8.536   4.191  0.00  0.00    -0.232 NA
ATOM      5  C   UNL     1      -0.595  -8.635   3.641  0.00  0.00    +0.107 C 
ATOM      6  H   UNL     1       1.091  -9.425   4.555  0.00  0.00    +0.145 HD
ENDROOT
BRANCH   5   7
ATOM      7  C   UNL     1      -0.578  -9.186   2.239  0.00  0.00    -0.010 A 
ATOM      8  C   UNL     1       0.616  -9.287   1.550  0.00  0.00    +0.006 A 
ATOM      9  C   UNL     1       0.632  -9.792   0.263  0.00  0.00    +0.000 A 
ATOM     10  C   UNL     1      -0.547 -10.197  -0.335  0.00  0.00    +0.001 A 
ATOM     11  C   UNL     1      -1.741 -10.097   0.352  0.00  0.00    +0.020 A 
ATOM     12  C   UNL     1      -1.757  -9.597   1.642  0.00  0.00    +0.046 A 
ATOM     13 CL   UNL     1      -3.256  -9.477   2.509  0.00  0.00    -0.083 Cl
ENDBRANCH   5   7
BRANCH   3  14
ATOM     14  C   UNL     1       1.625  -7.535   6.271  0.00  0.00    +0.045 A 
ATOM     15  C   UNL     1       1.499  -6.524   7.215  0.00  0.00    +0.027 A 
ATOM     16  C   UNL     1       2.361  -6.476   8.294  0.00  0.00    +0.040 A 
ATOM     17  C   UNL     1       3.349  -7.436   8.435  0.00  0.00    +0.124 A 
ATOM     18  C   UNL     1       3.477  -8.444   7.495  0.00  0.00    +0.040 A 
ATOM     19  C   UNL     1       2.614  -8.499   6.417  0.00  0.00    +0.027 A 
ATOM     20  F   UNL     1       4.191  -7.387   9.490  0.00  0.00    -0.205 F 
ENDBRANCH   3  14
BRANCH   1  21
ATOM     21  C   UNL     1      -0.557  -6.419   2.397  0.00  0.00    -0.076 C 
BRANCH  21  22
ATOM     22  N   UNL     1      -1.035  -5.030   2.421  0.00  0.00    +0.379 N 
ATOM     23  H   UNL     1      -0.677  -4.566   3.243  0.00  0.00    -0.086 HD
ATOM     24  H   UNL     1      -2.044  -5.022   2.443  0.00  0.00    -0.086 HD
BRANCH  22  25
ATOM     25  C   UNL     1      -0.565  -4.329   1.219  0.00  0.00    -0.079 C 
BRANCH  25  26
ATOM     26  C   UNL     1      -1.063  -2.882   1.245  0.00  0.00    +0.031 C 
BRANCH  26  30
ATOM     27  C   UNL     1      -0.018   1.503   0.010  0.00  0.00    +0.067 C 
ATOM     28  C   UNL     1       0.002  -0.004   0.002  0.00  0.00    +0.053 C 
ATOM     29  N   UNL     1      -1.044  -0.760   0.003  0.00  0.00    -0.261 NA
ATOM     30  C   UNL     1      -0.574  -2.152  -0.007  0.00  0.00    +0.219 C 
ATOM     31  N   UNL     1       0.893  -2.083  -0.013  0.00  0.00    -0.264 NA
ATOM     32  C   UNL     1       1.217  -0.834  -0.015  0.00  0.00    +0.130 C 
ENDBRANCH  26  30
ENDBRANCH  25  26
ENDBRANCH  22  25
ENDBRANCH  21  22
ENDBRANCH   1  21
TORSDOF 7
