REMARK  Name = ZINC66402499
REMARK  7 active torsions:
REMARK  status: ('A' for Active; 'I' for Inactive)
REMARK    1  A    between atoms: C_1  and  C_2
REMARK    2  A    between atoms: N_8  and  C_9
REMARK    3  A    between atoms: C_9  and  C_11
REMARK    4  A    between atoms: C_9  and  C_12
REMARK    5  A    between atoms: C_12  and  N_13
REMARK    6  A    between atoms: N_16  and  C_17
REMARK    7  A    between atoms: C_19  and  C_25
REMARK                            x       y       z     vdW  Elec       q    Type
REMARK                         _______ _______ _______ _____ _____    ______ ____
ROOT
ATOM      1  N   UNL     1      -1.539   1.916   1.068  0.00  0.00    -0.301 N 
ATOM      2  C   UNL     1      -1.729   3.187   0.661  0.00  0.00    +0.304 C 
ATOM      3  O   UNL     1      -1.807   4.082   1.480  0.00  0.00    -0.253 OA
ATOM      4  N   UNL     1      -1.831   3.465  -0.654  0.00  0.00    -0.265 N 
ATOM      5  H   UNL     1      -1.404   1.212   0.414  0.00  0.00    +0.150 HD
ATOM      6  H   UNL     1      -1.767   2.751  -1.307  0.00  0.00    +0.157 HD
ENDROOT
BRANCH   4   7
ATOM      7  C   UNL     1      -2.029   4.787  -1.077  0.00  0.00    +0.100 A 
ATOM      8  C   UNL     1      -2.900   5.064  -2.095  0.00  0.00    +0.042 A 
ATOM      9  C   UNL     1      -3.081   6.395  -2.498  0.00  0.00    +0.073 A 
ATOM     10  C   UNL     1      -2.398   7.387  -1.883  0.00  0.00    +0.098 A 
ATOM     11  N   UNL     1      -1.531   7.114  -0.872  0.00  0.00    -0.327 N 
ATOM     12  H   UNL     1      -1.051   7.839  -0.443  0.00  0.00    +0.168 HD
ATOM     13  C   UNL     1      -1.337   5.848  -0.454  0.00  0.00    +0.270 A 
ATOM     14  O   UNL     1      -0.560   5.618   0.459  0.00  0.00    -0.266 OA
BRANCH   9  15
ATOM     15  C   UNL     1      -4.036   6.720  -3.618  0.00  0.00    +0.419 C 
ATOM     16  F   UNL     1      -4.045   8.101  -3.837  0.00  0.00    -0.166 F 
ATOM     17  F   UNL     1      -3.626   6.065  -4.785  0.00  0.00    -0.166 F 
ATOM     18  F   UNL     1      -5.322   6.294  -3.272  0.00  0.00    -0.166 F 
ENDBRANCH   9  15
ENDBRANCH   4   7
BRANCH   1  19
ATOM     19  C   UNL     1      -1.536   1.597   2.498  0.00  0.00    +0.090 C 
BRANCH  19  20
ATOM     20  C   UNL     1      -1.418   0.083   2.683  0.00  0.00    -0.054 C 
ATOM     21  C   UNL     1      -1.298  -0.241   4.173  0.00  0.00    -0.012 C 
BRANCH  20  28
ATOM     22  C   UNL     1      -1.474  -2.447   1.467  0.00  0.00    -0.013 C 
ATOM     23  C   UNL     1      -0.182  -1.870   2.049  0.00  0.00    -0.071 C 
ATOM     24  C   UNL     1       1.014  -2.388   1.247  0.00  0.00    -0.016 C 
ATOM     25  C   UNL     1       2.305  -1.808   1.833  0.00  0.00    -0.003 C 
ATOM     26  C   UNL     1       2.216  -0.279   1.823  0.00  0.00    -0.019 C 
ATOM     27  C   UNL     1       0.976   0.161   2.603  0.00  0.00    -0.078 C 
ATOM     28  N   UNL     1      -0.225  -0.405   1.978  0.00  0.00    +0.384 N 
ATOM     29  H   UNL     1      -0.268  -0.117   1.011  0.00  0.00    -0.081 HD
ENDBRANCH  20  28
ENDBRANCH  19  20
ENDBRANCH   1  19
TORSDOF 5
