REMARK  Name = ZINC20995460
REMARK  9 active torsions:
REMARK  status: ('A' for Active; 'I' for Inactive)
REMARK    1  A    between atoms: C_1  and  C_2
REMARK    2  A    between atoms: C_3  and  S_14
REMARK    3  A    between atoms: C_4  and  C_7
REMARK    4  A    between atoms: C_8  and  C_9
REMARK    5  A    between atoms: S_14  and  N_17
REMARK    6  A    between atoms: C_21  and  C_24
REMARK    7  A    between atoms: N_26  and  C_27
REMARK    8  A    between atoms: C_31  and  C_33
REMARK    9  A    between atoms: C_33  and  C_35
REMARK                            x       y       z     vdW  Elec       q    Type
REMARK                         _______ _______ _______ _____ _____    ______ ____
ROOT
ATOM      1  N   UNL     1      -1.774  -1.412  -1.576  0.00  0.00    -0.176 NA
ATOM      2  C   UNL     1      -2.758  -0.577  -2.278  0.00  0.00    +0.109 C 
ATOM      3  C   UNL     1      -2.123  -0.061  -3.578  0.00  0.00    +0.018 C 
ATOM      4  C   UNL     1      -1.610  -1.250  -4.395  0.00  0.00    +0.015 C 
ATOM      5  C   UNL     1      -0.537  -1.995  -3.597  0.00  0.00    +0.091 C 
ATOM      6  C   UNL     1      -1.151  -2.529  -2.299  0.00  0.00    +0.122 C 
ENDROOT
BRANCH   5   7
ATOM      7  C   UNL     1      -0.011  -3.146  -4.415  0.00  0.00    +0.222 C 
ATOM      8  O   UNL     1      -0.115  -4.281  -4.002  0.00  0.00    -0.275 OA
ATOM      9  N   UNL     1       0.577  -2.913  -5.605  0.00  0.00    -0.285 N 
ATOM     10  H   UNL     1       0.604  -1.893  -6.015  0.00  0.00    +0.155 HD
BRANCH   9  11
ATOM     11  C   UNL     1       1.152  -3.970  -6.320  0.00  0.00    +0.034 A 
ATOM     12  C   UNL     1       2.300  -3.755  -7.074  0.00  0.00    +0.023 A 
ATOM     13  C   UNL     1       2.876  -4.796  -7.779  0.00  0.00    +0.002 A 
ATOM     14  C   UNL     1       2.309  -6.054  -7.748  0.00  0.00    +0.011 A 
ATOM     15  C   UNL     1       1.152  -6.280  -6.997  0.00  0.00    +0.019 A 
ATOM     16  C   UNL     1       0.574  -5.228  -6.281  0.00  0.00    +0.034 A 
BRANCH  15  17
ATOM     17  C   UNL     1       0.544  -7.620  -6.962  0.00  0.00    +0.160 C 
ATOM     18  O   UNL     1      -0.460  -7.814  -6.310  0.00  0.00    -0.292 OA
ATOM     19  C   UNL     1       1.170  -8.752  -7.735  0.00  0.00    +0.091 C 
ENDBRANCH  15  17
ENDBRANCH   9  11
ENDBRANCH   5   7
BRANCH   1  20
ATOM     20  S   UNL     1      -1.380  -1.104   0.003  0.00  0.00    +0.066 S 
ATOM     21  O   UNL     1      -0.900  -2.325   0.547  0.00  0.00    -0.153 OA
ATOM     22  O   UNL     1      -2.478  -0.399   0.565  0.00  0.00    -0.153 OA
BRANCH  20  25
ATOM     23  C   UNL     1       1.972  -1.667  -0.030  0.00  0.00    +0.071 C 
ATOM     24  C   UNL     1       1.356  -0.292  -0.023  0.00  0.00    +0.107 A 
ATOM     25  C   UNL     1      -0.018   0.013  -0.009  0.00  0.00    +0.174 A 
ATOM     26  C   UNL     1      -0.046   1.398  -0.006  0.00  0.00    +0.187 A 
ATOM     27  O   UNL     1       1.242   1.792  -0.018  0.00  0.00    -0.353 OA
ATOM     28  N   UNL     1       1.993   0.845  -0.027  0.00  0.00    -0.081 NA
BRANCH  26  29
ATOM     29  C   UNL     1      -1.231   2.256   0.001  0.00  0.00    +0.054 C 
ATOM     30  C   UNL     1      -1.092   3.602   0.003  0.00  0.00    +0.050 C 
BRANCH  30  31
ATOM     31  C   UNL     1      -2.276   4.459   0.010  0.00  0.00    +0.128 A 
ATOM     32  C   UNL     1      -2.278   5.827   0.018  0.00  0.00    +0.049 A 
ATOM     33  C   UNL     1      -3.625   6.228   0.021  0.00  0.00    +0.042 A 
ATOM     34  C   UNL     1      -4.375   5.106   0.023  0.00  0.00    +0.195 A 
ATOM     35  O   UNL     1      -3.558   4.040   0.017  0.00  0.00    -0.464 OA
ENDBRANCH  30  31
ENDBRANCH  26  29
ENDBRANCH  20  25
ENDBRANCH   1  20
TORSDOF 7
