REMARK  Name = ZINC63572445
REMARK  6 active torsions:
REMARK  status: ('A' for Active; 'I' for Inactive)
REMARK    1  A    between atoms: C_1  and  C_2
REMARK    2  A    between atoms: C_2  and  O_3
REMARK    3  A    between atoms: O_3  and  C_4
REMARK    4  A    between atoms: C_4  and  C_6
REMARK    5  A    between atoms: C_11  and  N_12
REMARK    6  A    between atoms: C_28  and  C_30
REMARK                            x       y       z     vdW  Elec       q    Type
REMARK                         _______ _______ _______ _____ _____    ______ ____
ROOT
ATOM      1  N   UNL     1      -1.689  -4.837  -2.001  0.00  0.00    -0.269 N 
ATOM      2  C   UNL     1      -1.854  -6.106  -1.579  0.00  0.00    +0.307 C 
ATOM      3  O   UNL     1      -2.947  -6.634  -1.652  0.00  0.00    -0.252 OA
ATOM      4  N   UNL     1      -0.808  -6.790  -1.074  0.00  0.00    -0.276 N 
ATOM      5  C   UNL     1       0.530  -6.191  -1.099  0.00  0.00    +0.114 C 
ATOM      6  C   UNL     1       1.084  -6.116   0.336  0.00  0.00    +0.052 C 
ATOM      7  C   UNL     1       0.806  -7.453   0.977  0.00  0.00    -0.035 C 
ATOM      8  C   UNL     1       1.602  -8.303   1.615  0.00  0.00    +0.001 A 
ATOM      9  C   UNL     1       3.012  -8.204   2.026  0.00  0.00    +0.030 A 
ATOM     10  C   UNL     1       3.530  -9.292   2.658  0.00  0.00    +0.042 A 
ATOM     11  C   UNL     1       2.793 -10.453   2.919  0.00  0.00    +0.022 A 
ATOM     12  C   UNL     1       1.490 -10.626   2.585  0.00  0.00    +0.027 A 
ATOM     13  C   UNL     1       0.834  -9.547   1.922  0.00  0.00    +0.043 A 
ATOM     14  N   UNL     1      -0.396  -9.434   1.516  0.00  0.00    -0.375 N 
ATOM     15  C   UNL     1      -0.577  -8.092   0.961  0.00  0.00    +0.131 C 
ATOM     16  C   UNL     1      -1.022  -8.128  -0.500  0.00  0.00    +0.134 C 
ATOM     17 CL   UNL     1       5.189  -9.237   3.166  0.00  0.00    -0.084 Cl
ATOM     18  H   UNL     1      -0.804  -4.440  -2.009  0.00  0.00    +0.156 HD
ATOM     19  H   UNL     1      -1.078 -10.122   1.571  0.00  0.00    +0.160 HD
ENDROOT
BRANCH  16  20
ATOM     20  C   UNL     1      -2.483  -8.489  -0.577  0.00  0.00    -0.025 A 
ATOM     21  C   UNL     1      -3.415  -7.751   0.129  0.00  0.00    +0.008 A 
ATOM     22  C   UNL     1      -4.755  -8.080   0.059  0.00  0.00    +0.038 A 
ATOM     23  C   UNL     1      -5.165  -9.150  -0.718  0.00  0.00    +0.123 A 
ATOM     24  C   UNL     1      -4.231  -9.889  -1.425  0.00  0.00    +0.038 A 
ATOM     25  C   UNL     1      -2.892  -9.554  -1.357  0.00  0.00    +0.008 A 
ATOM     26  F   UNL     1      -6.475  -9.474  -0.787  0.00  0.00    -0.205 F 
ENDBRANCH  16  20
BRANCH   1  32
ATOM     27  C   UNL     1      -2.796  -2.700  -2.287  0.00  0.00    +0.080 A 
ATOM     28  C   UNL     1      -3.903  -1.968  -2.724  0.00  0.00    +0.017 A 
ATOM     29  C   UNL     1      -4.980  -2.620  -3.284  0.00  0.00    +0.001 A 
ATOM     30  C   UNL     1      -4.972  -4.000  -3.416  0.00  0.00    +0.002 A 
ATOM     31  C   UNL     1      -3.885  -4.736  -2.989  0.00  0.00    +0.024 A 
ATOM     32  C   UNL     1      -2.788  -4.097  -2.428  0.00  0.00    +0.049 A 
BRANCH  27  33
ATOM     33  C   UNL     1      -1.641  -2.010  -1.687  0.00  0.00    +0.341 C 
ATOM     34  O   UNL     1      -0.732  -2.655  -1.202  0.00  0.00    -0.245 OA
BRANCH  33  35
ATOM     35  O   UNL     1      -1.592  -0.663  -1.676  0.00  0.00    -0.461 OA
BRANCH  35  37
ATOM     36  C   UNL     1      -0.565   1.463  -1.159  0.00  0.00    +0.048 C 
ATOM     37  C   UNL     1      -0.442  -0.060  -1.078  0.00  0.00    +0.229 C 
ENDBRANCH  35  37
ENDBRANCH  33  35
ENDBRANCH  27  33
ENDBRANCH   1  32
TORSDOF 5
