REMARK  Name = ZINC03874473
REMARK  6 active torsions:
REMARK  status: ('A' for Active; 'I' for Inactive)
REMARK    1  A    between atoms: C_2  and  C_3
REMARK    2  A    between atoms: C_3  and  N_60
REMARK    3  A    between atoms: C_11  and  O_34
REMARK    4  A    between atoms: N_17  and  N_18
REMARK    5  A    between atoms: C_19  and  C_21
REMARK    6  A    between atoms: C_29  and  O_33
REMARK                            x       y       z     vdW  Elec       q    Type
REMARK                         _______ _______ _______ _____ _____    ______ ____
ROOT
ATOM      1  C   UNL     1       7.085   9.720  -1.524  0.00  0.00    -0.077 C 
ATOM      2  C   UNL     1       7.149   8.512  -0.581  0.00  0.00    -0.000 C 
ATOM      3  C   UNL     1       5.999   7.566  -0.918  0.00  0.00    +0.067 C 
ATOM      4  C   UNL     1       6.095   7.156  -2.367  0.00  0.00    +0.014 A 
ATOM      5  C   UNL     1       5.578   7.832  -3.448  0.00  0.00    -0.041 A 
ATOM      6  C   UNL     1       5.820   7.265  -4.687  0.00  0.00    +0.007 A 
ATOM      7  C   UNL     1       6.486   6.054  -4.781  0.00  0.00    +0.049 A 
ATOM      8  C   UNL     1       6.928   5.337  -3.671  0.00  0.00    +0.159 A 
ATOM      9  C   UNL     1       6.702   5.910  -2.414  0.00  0.00    +0.167 A 
ATOM     10  O   UNL     1       6.961   5.468  -1.164  0.00  0.00    -0.478 OA
ATOM     11  C   UNL     1       6.145   6.220  -0.229  0.00  0.00    +0.232 C 
ATOM     12  C   UNL     1       4.834   5.498  -0.114  0.00  0.00    +0.078 C 
ATOM     13  N   UNL     1       4.847   4.221  -0.024  0.00  0.00    -0.185 NA
ATOM     14  C   UNL     1       3.511   6.202  -0.094  0.00  0.00    +0.059 C 
ATOM     15  C   UNL     1       3.514   7.347  -1.109  0.00  0.00    +0.040 C 
ATOM     16  C   UNL     1       4.670   8.290  -0.778  0.00  0.00    +0.068 C 
ATOM     17  C   UNL     1       4.673   9.473  -1.751  0.00  0.00    -0.031 C 
ATOM     18  C   UNL     1       4.773   9.075  -3.215  0.00  0.00    +0.023 C 
ATOM     19  N   UNL     1       5.773  10.391  -1.374  0.00  0.00    +0.386 N 
ATOM     20  H   UNL     1       5.653  10.665  -0.392  0.00  0.00    -0.081 HD
ENDROOT
BRANCH  13  21
ATOM     21  N   UNL     1       3.657   3.525   0.222  0.00  0.00    -0.203 N 
ATOM     22  C   UNL     1       3.650   2.177   0.209  0.00  0.00    +0.263 C 
ATOM     23  O   UNL     1       4.677   1.566  -0.017  0.00  0.00    -0.268 OA
ATOM     24  H   UNL     1       2.838   4.012   0.402  0.00  0.00    +0.178 HD
BRANCH  22  25
ATOM     25  C   UNL     1       2.395   1.442   0.469  0.00  0.00    +0.038 A 
ATOM     26  C   UNL     1       1.214   2.140   0.728  0.00  0.00    +0.013 A 
ATOM     27  C   UNL     1       0.046   1.448   0.969  0.00  0.00    +0.001 A 
ATOM     28  C   UNL     1       0.042   0.064   0.955  0.00  0.00    +0.000 A 
ATOM     29  C   UNL     1       1.209  -0.634   0.699  0.00  0.00    +0.001 A 
ATOM     30  C   UNL     1       2.384   0.046   0.456  0.00  0.00    +0.013 A 
ENDBRANCH  22  25
ENDBRANCH  13  21
BRANCH  16  31
ATOM     31  O   UNL     1       4.526   8.772   0.559  0.00  0.00    -0.389 OA
ATOM     32  H   UNL     1       3.706   9.261   0.716  0.00  0.00    +0.210 HD
ENDBRANCH  16  31
BRANCH   8  33
ATOM     33  O   UNL     1       7.551   4.136  -3.803  0.00  0.00    -0.503 OA
ATOM     34  H   UNL     1       6.950   3.378  -3.795  0.00  0.00    +0.292 HD
ENDBRANCH   8  33
BRANCH  19  35
ATOM     35  C   UNL     1       5.730  11.600  -2.218  0.00  0.00    -0.051 C 
BRANCH  35  37
ATOM     36  C   UNL     1       7.630  13.114  -2.464  0.00  0.00    +0.002 C 
ATOM     37  C   UNL     1       6.717  12.601  -1.676  0.00  0.00    -0.053 C 
ENDBRANCH  35  37
ENDBRANCH  19  35
TORSDOF 6
