REMARK  Name = ZINC43096721
REMARK  7 active torsions:
REMARK  status: ('A' for Active; 'I' for Inactive)
REMARK    1  A    between atoms: C_1  and  C_2
REMARK    2  A    between atoms: C_2  and  C_4
REMARK    3  A    between atoms: C_2  and  N_23
REMARK    4  A    between atoms: C_4  and  C_6
REMARK    5  A    between atoms: C_4  and  N_14
REMARK    6  A    between atoms: C_11  and  O_12
REMARK    7  A    between atoms: O_12  and  C_13
REMARK                            x       y       z     vdW  Elec       q    Type
REMARK                         _______ _______ _______ _____ _____    ______ ____
ROOT
ATOM      1  C   UNL     1       0.742  -0.511   1.242  0.00  0.00    +0.076 C 
ENDROOT
BRANCH   1   2
ATOM      2  N   UNL     1       0.126   0.060   2.447  0.00  0.00    -0.292 NA
ATOM      3  C   UNL     1       0.833  -0.380   3.658  0.00  0.00    +0.090 C 
ATOM      4  C   UNL     1       0.436   0.540   4.825  0.00  0.00    +0.058 C 
ATOM      5  C   UNL     1      -1.050   0.688   4.802  0.00  0.00    -0.005 A 
ATOM      6  C   UNL     1      -1.886   0.346   3.782  0.00  0.00    -0.023 A 
ATOM      7  C   UNL     1      -3.245   0.573   3.989  0.00  0.00    +0.013 A 
ATOM      8  C   UNL     1      -3.672   1.111   5.155  0.00  0.00    +0.046 A 
ATOM      9  S   UNL     1      -2.137   1.327   6.045  0.00  0.00    -0.101 S 
ATOM     10  C   UNL     1      -1.308  -0.250   2.502  0.00  0.00    +0.121 C 
ENDBRANCH   1   2
BRANCH   1  11
ATOM     11  C   UNL     1       2.188  -0.092   1.170  0.00  0.00    +0.010 A 
ATOM     12  C   UNL     1       2.627   1.003   1.888  0.00  0.00    +0.009 A 
ATOM     13  C   UNL     1       3.953   1.388   1.822  0.00  0.00    +0.001 A 
ATOM     14  C   UNL     1       4.844   0.678   1.038  0.00  0.00    +0.004 A 
ATOM     15  C   UNL     1       4.410  -0.418   0.318  0.00  0.00    +0.046 A 
ATOM     16  C   UNL     1       3.080  -0.810   0.387  0.00  0.00    +0.125 A 
BRANCH  16  17
ATOM     17  O   UNL     1       2.652  -1.891  -0.316  0.00  0.00    -0.495 OA
ATOM     18  C   UNL     1       3.626  -2.582  -1.101  0.00  0.00    +0.277 C 
ENDBRANCH  16  17
ENDBRANCH   1  11
BRANCH   1  20
ATOM     19  C   UNL     1      -0.019   1.526   0.010  0.00  0.00    -0.012 C 
ATOM     20  C   UNL     1       0.002  -0.004   0.002  0.00  0.00    -0.056 C 
BRANCH  20  21
ATOM     21  N   UNL     1       0.690  -0.478  -1.207  0.00  0.00    +0.381 N 
ATOM     22  H   UNL     1       0.703  -1.487  -1.212  0.00  0.00    -0.090 HD
ATOM     23  H   UNL     1       0.202  -0.144  -2.024  0.00  0.00    -0.090 HD
ATOM     24  H   UNL     1       1.636  -0.129  -1.214  0.00  0.00    -0.090 HD
ENDBRANCH  20  21
ENDBRANCH   1  20
TORSDOF 5
