REMARK  Name = ZINC35375012
REMARK  5 active torsions:
REMARK  status: ('A' for Active; 'I' for Inactive)
REMARK    1  A    between atoms: C_4  and  C_7
REMARK    2  A    between atoms: C_7  and  C_8
REMARK    3  A    between atoms: C_8  and  N_9
REMARK    4  A    between atoms: C_10  and  C_12
REMARK    5  A    between atoms: N_25  and  C_26
REMARK                            x       y       z     vdW  Elec       q    Type
REMARK                         _______ _______ _______ _____ _____    ______ ____
ROOT
ATOM      1  C   UNL     1       7.571  -3.113   2.343  0.00  0.00    +0.028 C 
ATOM      2  C   UNL     1       7.187  -4.538   1.841  0.00  0.00    +0.061 C 
ATOM      3  S   UNL     1       8.508  -5.516   2.682  0.00  0.00    -0.174 S 
ATOM      4  C   UNL     1       8.948  -4.299   3.984  0.00  0.00    -0.016 C 
ATOM      5  N   UNL     1       7.980  -3.206   3.759  0.00  0.00    +0.397 N 
ATOM      6  C   UNL     1      10.376  -3.818   3.779  0.00  0.00    +0.017 C 
ATOM      7  C   UNL     1      10.726  -2.781   4.852  0.00  0.00    +0.109 C 
ATOM      8  N   UNL     1      10.441  -3.356   6.174  0.00  0.00    -0.285 N 
ATOM      9  C   UNL     1       9.098  -3.889   6.440  0.00  0.00    +0.109 C 
ATOM     10  C   UNL     1       8.756  -4.921   5.358  0.00  0.00    +0.017 C 
ATOM     11  C   UNL     1      11.394  -3.393   7.126  0.00  0.00    +0.306 C 
ATOM     12  O   UNL     1      12.527  -3.036   6.866  0.00  0.00    -0.252 OA
ATOM     13  N   UNL     1      11.092  -3.828   8.365  0.00  0.00    -0.268 N 
ATOM     14  H   UNL     1       8.403  -2.333   4.036  0.00  0.00    -0.083 HD
ATOM     15  H   UNL     1      10.206  -4.175   8.555  0.00  0.00    +0.156 HD
ATOM     16  H   UNL     1       7.162  -3.367   4.327  0.00  0.00    -0.083 HD
ENDROOT
BRANCH  13  17
ATOM     17  C   UNL     1      12.057  -3.779   9.378  0.00  0.00    +0.049 A 
ATOM     18  C   UNL     1      13.173  -2.965   9.238  0.00  0.00    +0.024 A 
ATOM     19  C   UNL     1      14.123  -2.919  10.240  0.00  0.00    +0.002 A 
ATOM     20  C   UNL     1      13.963  -3.682  11.382  0.00  0.00    +0.001 A 
ATOM     21  C   UNL     1      12.854  -4.494  11.525  0.00  0.00    +0.017 A 
ATOM     22  C   UNL     1      11.897  -4.541  10.529  0.00  0.00    +0.039 A 
ATOM     23 BR   UNL     1      10.376  -5.646  10.729  0.00  0.00    -0.048 Br
ENDBRANCH  13  17
BRANCH   1  25
ATOM     24  N   UNL     1       5.839  -1.956   1.009  0.00  0.00    -0.316 N 
ATOM     25  C   UNL     1       6.382  -2.195   2.219  0.00  0.00    +0.200 C 
ATOM     26  O   UNL     1       5.914  -1.672   3.208  0.00  0.00    -0.278 OA
ATOM     27  H   UNL     1       6.213  -2.374   0.218  0.00  0.00    +0.149 HD
BRANCH  24  28
ATOM     28  C   UNL     1       4.683  -1.063   0.888  0.00  0.00    +0.109 C 
BRANCH  28  29
ATOM     29  C   UNL     1       4.267  -0.964  -0.581  0.00  0.00    +0.054 C 
BRANCH  29  33
ATOM     30  C   UNL     1       0.897   1.637  -0.935  0.00  0.00    +0.000 A 
ATOM     31  C   UNL     1       2.178   2.150  -1.022  0.00  0.00    +0.000 A 
ATOM     32  C   UNL     1       3.268   1.308  -0.907  0.00  0.00    +0.004 A 
ATOM     33  C   UNL     1       3.078  -0.046  -0.705  0.00  0.00    -0.046 A 
ATOM     34  C   UNL     1       1.797  -0.558  -0.617  0.00  0.00    +0.004 A 
ATOM     35  C   UNL     1       0.707   0.283  -0.733  0.00  0.00    +0.000 A 
ENDBRANCH  29  33
ENDBRANCH  28  29
ENDBRANCH  24  28
ENDBRANCH   1  25
TORSDOF 5
