REMARK  Name = ZINC32391454
REMARK  10 active torsions:
REMARK  status: ('A' for Active; 'I' for Inactive)
REMARK    1  A    between atoms: C_1  and  C_2
REMARK    2  A    between atoms: C_2  and  C_4
REMARK    3  A    between atoms: C_2  and  N_33
REMARK    4  A    between atoms: C_7  and  S_16
REMARK    5  A    between atoms: N_8  and  C_9
REMARK    6  A    between atoms: S_16  and  C_17
REMARK    7  A    between atoms: C_17  and  C_18
REMARK    8  A    between atoms: N_24  and  C_25
REMARK    9  A    between atoms: N_33  and  C_34
REMARK   10  A    between atoms: N_33  and  C_35
REMARK                            x       y       z     vdW  Elec       q    Type
REMARK                         _______ _______ _______ _____ _____    ______ ____
ROOT
ATOM      1  S   UNL     1       3.474   8.433  -1.224  0.00  0.00    -0.078 S 
ENDROOT
BRANCH   1   5
ATOM      2  C   UNL     1       3.402  12.321  -0.879  0.00  0.00    +0.125 A 
ATOM      3  N   UNL     1       3.366  11.925   0.362  0.00  0.00    -0.135 NA
ATOM      4  N   UNL     1       3.383  10.642   0.418  0.00  0.00    -0.122 NA
ATOM      5  C   UNL     1       3.433  10.142  -0.796  0.00  0.00    +0.196 A 
ATOM      6  N   UNL     1       3.452  11.199  -1.663  0.00  0.00    -0.275 N 
BRANCH   6   7
ATOM      7  C   UNL     1       3.507  11.145  -3.064  0.00  0.00    +0.050 A 
ATOM      8  C   UNL     1       4.614  11.646  -3.736  0.00  0.00    +0.029 A 
ATOM      9  C   UNL     1       4.670  11.586  -5.114  0.00  0.00    +0.040 A 
ATOM     10  C   UNL     1       3.616  11.039  -5.828  0.00  0.00    +0.124 A 
ATOM     11  C   UNL     1       2.509  10.544  -5.160  0.00  0.00    +0.040 A 
ATOM     12  C   UNL     1       2.453  10.596  -3.781  0.00  0.00    +0.029 A 
ATOM     13  F   UNL     1       3.670  10.987  -7.177  0.00  0.00    -0.205 F 
ENDBRANCH   6   7
BRANCH   2  15
ATOM     14  C   UNL     1       1.989  14.330  -1.221  0.00  0.00    -0.005 C 
ATOM     15  C   UNL     1       3.397  13.748  -1.363  0.00  0.00    -0.003 C 
BRANCH  15  16
ATOM     16  N   UNL     1       4.337  14.541  -0.558  0.00  0.00    +0.382 N 
ATOM     17  C   UNL     1       4.448  15.911  -1.076  0.00  0.00    -0.096 C 
ATOM     18  C   UNL     1       3.946  14.543   0.858  0.00  0.00    -0.096 C 
ATOM     19  H   UNL     1       5.328  14.069  -0.635  0.00  0.00    -0.082 HD
ENDBRANCH  15  16
ENDBRANCH   2  15
ENDBRANCH   1   5
BRANCH   1  20
ATOM     20  C   UNL     1       3.429   7.694   0.427  0.00  0.00    +0.153 C 
BRANCH  20  21
ATOM     21  C   UNL     1       3.456   6.192   0.306  0.00  0.00    +0.146 A 
ATOM     22  N   UNL     1       4.613   5.553   0.292  0.00  0.00    -0.199 NA
ATOM     23  C   UNL     1       4.642   4.226   0.185  0.00  0.00    +0.217 A 
ATOM     24  N   UNL     1       3.505   3.545   0.092  0.00  0.00    -0.181 NA
ATOM     25  C   UNL     1       2.345   4.190   0.106  0.00  0.00    +0.224 A 
ATOM     26  N   UNL     1       2.324   5.518   0.208  0.00  0.00    -0.198 NA
ATOM     27  N   UNL     1       1.160   3.486   0.009  0.00  0.00    -0.284 N 
ATOM     28  N   UNL     1       5.850   3.560   0.172  0.00  0.00    -0.327 N 
ATOM     29  H   UNL     1       0.205   4.025  -0.071  0.00  0.00    +0.155 HD
ATOM     30  H   UNL     1       5.873   2.464   0.084  0.00  0.00    +0.145 HD
ATOM     31  H   UNL     1       6.791   4.125   0.250  0.00  0.00    +0.145 HD
BRANCH  27  32
ATOM     32  C   UNL     1       1.176   2.087   0.013  0.00  0.00    +0.034 A 
ATOM     33  C   UNL     1       2.132   1.404   0.754  0.00  0.00    +0.026 A 
ATOM     34  C   UNL     1       2.145   0.023   0.756  0.00  0.00    +0.040 A 
ATOM     35  C   UNL     1       1.207  -0.681   0.020  0.00  0.00    +0.124 A 
ATOM     36  C   UNL     1       0.254  -0.002  -0.720  0.00  0.00    +0.040 A 
ATOM     37  C   UNL     1       0.236   1.379  -0.725  0.00  0.00    +0.026 A 
ATOM     38  F   UNL     1       1.222  -2.032   0.024  0.00  0.00    -0.205 F 
ENDBRANCH  27  32
ENDBRANCH  20  21
ENDBRANCH   1  20
TORSDOF 7
