REMARK  Name = ZINC03841098
REMARK  11 active torsions:
REMARK  status: ('A' for Active; 'I' for Inactive)
REMARK    1  A    between atoms: C_1  and  C_2
REMARK    2  A    between atoms: C_5  and  O_36
REMARK    3  A    between atoms: C_7  and  C_33
REMARK    4  A    between atoms: C_7  and  C_34
REMARK    5  A    between atoms: C_17  and  C_19
REMARK    6  A    between atoms: C_19  and  O_20
REMARK    7  A    between atoms: O_20  and  C_21
REMARK    8  A    between atoms: C_22  and  C_24
REMARK    9  A    between atoms: C_24  and  C_25
REMARK   10  A    between atoms: N_27  and  C_28
REMARK   11  A    between atoms: C_34  and  O_35
REMARK                            x       y       z     vdW  Elec       q    Type
REMARK                         _______ _______ _______ _____ _____    ______ ____
ROOT
ATOM      1  C   UNL     1       0.137  -8.530   3.335  0.00  0.00    +0.012 C 
ATOM      2  C   UNL     1       1.579  -8.449   2.829  0.00  0.00    -0.019 C 
ATOM      3  C   UNL     1       2.452  -9.442   3.604  0.00  0.00    +0.010 C 
ATOM      4  C   UNL     1       1.977 -10.873   3.356  0.00  0.00    +0.032 C 
ATOM      5  C   UNL     1       2.092 -11.179   1.860  0.00  0.00    +0.123 C 
ATOM      6  C   UNL     1       1.185 -10.220   1.092  0.00  0.00    +0.021 C 
ATOM      7  C   UNL     1       1.617  -8.770   1.334  0.00  0.00    +0.011 C 
ATOM      8  C   UNL     1       0.606  -7.865   0.602  0.00  0.00    +0.049 C 
ATOM      9  C   UNL     1       0.770  -6.467   1.082  0.00  0.00    +0.015 A 
ATOM     10  C   UNL     1       1.441  -6.041   2.184  0.00  0.00    +0.058 A 
ATOM     11  N   UNL     1       1.437  -4.728   2.397  0.00  0.00    -0.229 NA
ATOM     12  C   UNL     1       0.824  -3.887   1.591  0.00  0.00    +0.165 A 
ATOM     13  S   UNL     1       0.153  -4.955   0.394  0.00  0.00    -0.057 S 
ATOM     14  N   UNL     1       0.731  -2.503   1.677  0.00  0.00    -0.263 N 
ATOM     15  C   UNL     1       0.050  -1.813   0.740  0.00  0.00    +0.244 C 
ATOM     16  O   UNL     1      -0.482  -2.401  -0.178  0.00  0.00    -0.273 OA
ATOM     17  C   UNL     1       2.144  -7.045   3.085  0.00  0.00    +0.054 C 
ATOM     18  C   UNL     1       1.270 -10.530  -0.404  0.00  0.00    +0.016 C 
ATOM     19  H   UNL     1       1.157  -2.033   2.411  0.00  0.00    +0.157 HD
ENDROOT
BRANCH   5  20
ATOM     20  O   UNL     1       1.684 -12.526   1.614  0.00  0.00    -0.391 OA
ATOM     21  H   UNL     1       2.211 -13.188   2.081  0.00  0.00    +0.210 HD
ENDBRANCH   5  20
BRANCH  15  22
ATOM     22  C   UNL     1      -0.050  -0.312   0.834  0.00  0.00    +0.255 C 
BRANCH  22  23
ATOM     23  O   UNL     1      -0.816   0.183  -0.266  0.00  0.00    -0.374 OA
ATOM     24  C   UNL     1      -0.973   1.604  -0.272  0.00  0.00    +0.194 C 
ENDBRANCH  22  23
ENDBRANCH  15  22
BRANCH  17  25
ATOM     25  C   UNL     1       1.915  -6.663   4.549  0.00  0.00    +0.106 C 
BRANCH  25  26
ATOM     26  C   UNL     1       2.643  -5.378   4.851  0.00  0.00    +0.214 C 
ATOM     27  O   UNL     1       3.281  -4.823   3.982  0.00  0.00    -0.276 OA
ATOM     28  N   UNL     1       2.584  -4.846   6.088  0.00  0.00    -0.312 N 
ATOM     29  H   UNL     1       2.074  -5.290   6.784  0.00  0.00    +0.149 HD
BRANCH  28  30
ATOM     30  C   UNL     1       3.292  -3.597   6.383  0.00  0.00    +0.073 C 
ATOM     31  C   UNL     1       4.740  -3.900   6.818  0.00  0.00    +0.022 C 
ATOM     32  C   UNL     1       5.033  -2.853   7.921  0.00  0.00    +0.002 C 
ATOM     33  C   UNL     1       3.683  -2.767   8.677  0.00  0.00    +0.002 C 
ATOM     34  C   UNL     1       2.619  -2.877   7.564  0.00  0.00    +0.022 C 
ENDBRANCH  28  30
ENDBRANCH  25  26
ENDBRANCH  17  25
BRANCH   6  35
ATOM     35  C   UNL     1      -0.259 -10.403   1.562  0.00  0.00    +0.165 C 
BRANCH  35  36
ATOM     36  O   UNL     1      -0.717 -11.706   1.197  0.00  0.00    -0.394 OA
ATOM     37  H   UNL     1      -1.628 -11.892   1.464  0.00  0.00    +0.209 HD
ENDBRANCH  35  36
ENDBRANCH   6  35
TORSDOF 8
