REMARK  Name = ZINC64885726
REMARK  9 active torsions:
REMARK  status: ('A' for Active; 'I' for Inactive)
REMARK    1  A    between atoms: C_3  and  O_22
REMARK    2  A    between atoms: C_6  and  C_7
REMARK    3  A    between atoms: N_9  and  N_10
REMARK    4  A    between atoms: N_13  and  C_14
REMARK    5  A    between atoms: C_14  and  C_15
REMARK    6  A    between atoms: C_15  and  C_16
REMARK    7  A    between atoms: C_16  and  N_17
REMARK    8  A    between atoms: O_22  and  C_23
REMARK    9  A    between atoms: C_23  and  C_24
REMARK                            x       y       z     vdW  Elec       q    Type
REMARK                         _______ _______ _______ _____ _____    ______ ____
ROOT
ATOM      1  C   UNL     1      -1.265  -0.761   0.011  0.00  0.00    +0.260 C 
ATOM      2  O   UNL     1      -2.327  -0.169   0.024  0.00  0.00    -0.269 OA
ATOM      3  N   UNL     1      -1.244  -2.109   0.003  0.00  0.00    -0.229 N 
ATOM      4  H   UNL     1      -0.397  -2.581  -0.008  0.00  0.00    +0.173 HD
ENDROOT
BRANCH   1  10
ATOM      5  C   UNL     1      -0.017   1.393   0.010  0.00  0.00    +0.016 A 
ATOM      6  C   UNL     1       1.167   2.096   0.002  0.00  0.00    +0.046 A 
ATOM      7  C   UNL     1       2.380   1.417  -0.013  0.00  0.00    +0.121 A 
ATOM      8  C   UNL     1       2.403   0.028  -0.021  0.00  0.00    +0.046 A 
ATOM      9  C   UNL     1       1.224  -0.682  -0.014  0.00  0.00    +0.016 A 
ATOM     10  C   UNL     1       0.002  -0.004   0.002  0.00  0.00    +0.038 A 
BRANCH   7  11
ATOM     11  O   UNL     1       3.545   2.114  -0.020  0.00  0.00    -0.492 OA
BRANCH  11  12
ATOM     12  C   UNL     1       4.755   1.354  -0.036  0.00  0.00    +0.232 C 
BRANCH  12  13
ATOM     13  C   UNL     1       5.954   2.304  -0.042  0.00  0.00    +0.027 C 
ATOM     14  C   UNL     1       6.871   2.277  -1.267  0.00  0.00    +0.007 C 
ATOM     15  C   UNL     1       7.349   1.682   0.059  0.00  0.00    +0.007 C 
ENDBRANCH  12  13
ENDBRANCH  11  12
ENDBRANCH   7  11
ENDBRANCH   1  10
BRANCH   3  16
ATOM     16  N   UNL     1      -2.447  -2.828   0.011  0.00  0.00    -0.218 N 
ATOM     17  C   UNL     1      -2.427  -4.175   0.004  0.00  0.00    +0.316 C 
ATOM     18  O   UNL     1      -3.470  -4.799   0.011  0.00  0.00    -0.251 OA
ATOM     19  N   UNL     1      -1.250  -4.831  -0.011  0.00  0.00    -0.298 N 
ATOM     20  H   UNL     1      -3.294  -2.356   0.022  0.00  0.00    +0.174 HD
ATOM     21  H   UNL     1      -0.417  -4.334  -0.017  0.00  0.00    +0.150 HD
BRANCH  19  22
ATOM     22  C   UNL     1      -1.228  -6.296  -0.019  0.00  0.00    +0.107 C 
BRANCH  22  23
ATOM     23  C   UNL     1       0.223  -6.784  -0.036  0.00  0.00    +0.040 C 
BRANCH  23  24
ATOM     24  C   UNL     1       0.246  -8.314  -0.045  0.00  0.00    +0.124 C 
BRANCH  24  25
ATOM     25  N   UNL     1       1.634  -8.781  -0.061  0.00  0.00    -0.338 N 
ATOM     26  C   UNL     1       2.395  -9.029  -1.172  0.00  0.00    +0.104 A 
ATOM     27  C   UNL     1       3.601  -9.438  -0.735  0.00  0.00    +0.101 A 
ATOM     28  N   UNL     1       3.578  -9.440   0.606  0.00  0.00    -0.352 N 
ATOM     29  C   UNL     1       2.404  -9.043   1.017  0.00  0.00    +0.173 A 
ATOM     30  H   UNL     1       4.317  -9.693   1.180  0.00  0.00    +0.166 HD
ENDBRANCH  24  25
ENDBRANCH  23  24
ENDBRANCH  22  23
ENDBRANCH  19  22
ENDBRANCH   3  16
TORSDOF 9
