REMARK  Name = ZINC12373275
REMARK  7 active torsions:
REMARK  status: ('A' for Active; 'I' for Inactive)
REMARK    1  A    between atoms: C_5  and  C_7
REMARK    2  A    between atoms: C_7  and  N_47
REMARK    3  A    between atoms: C_8  and  C_9
REMARK    4  A    between atoms: C_8  and  N_47
REMARK    5  A    between atoms: C_9  and  O_24
REMARK    6  A    between atoms: N_13  and  C_16
REMARK    7  A    between atoms: C_16  and  C_17
REMARK                            x       y       z     vdW  Elec       q    Type
REMARK                         _______ _______ _______ _____ _____    ______ ____
ROOT
ATOM      1  C   UNL     1       3.678   4.240  -3.604  0.00  0.00    +0.127 C 
ATOM      2  C   UNL     1       2.762   5.412  -3.962  0.00  0.00    +0.044 C 
ATOM      3  C   UNL     1       2.791   6.421  -2.808  0.00  0.00    +0.022 C 
ATOM      4  C   UNL     1       2.123   5.789  -1.587  0.00  0.00    +0.108 C 
ATOM      5  N   UNL     1       2.689   4.472  -1.321  0.00  0.00    -0.295 N 
ATOM      6  C   UNL     1       3.373   3.758  -2.215  0.00  0.00    +0.246 C 
ATOM      7  O   UNL     1       3.767   2.657  -1.890  0.00  0.00    -0.273 OA
ENDROOT
BRANCH   1   8
ATOM      8  O   UNL     1       5.041   4.667  -3.665  0.00  0.00    -0.381 OA
ATOM      9  H   UNL     1       5.680   3.974  -3.449  0.00  0.00    +0.211 HD
ENDBRANCH   1   8
BRANCH   1  10
ATOM     10  C   UNL     1       3.458   3.099  -4.599  0.00  0.00    -0.037 C 
BRANCH  10  11
ATOM     11  N   UNL     1       3.688   3.600  -5.968  0.00  0.00    +0.384 N 
ATOM     12  H   UNL     1       3.098   4.425  -6.130  0.00  0.00    -0.085 HD
ATOM     13  H   UNL     1       4.676   3.861  -6.071  0.00  0.00    -0.085 HD
BRANCH  11  14
ATOM     14  C   UNL     1       3.354   2.559  -6.957  0.00  0.00    -0.045 C 
BRANCH  14  19
ATOM     15  C   UNL     1       4.932   3.182 -10.330  0.00  0.00    +0.000 A 
ATOM     16  C   UNL     1       4.048   4.088 -10.886  0.00  0.00    +0.001 A 
ATOM     17  C   UNL     1       2.939   4.500 -10.171  0.00  0.00    +0.020 A 
ATOM     18  C   UNL     1       2.711   4.001  -8.901  0.00  0.00    +0.042 A 
ATOM     19  C   UNL     1       3.599   3.099  -8.343  0.00  0.00    -0.046 A 
ATOM     20  C   UNL     1       4.707   2.688  -9.059  0.00  0.00    +0.003 A 
ATOM     21 CL   UNL     1       1.315   4.513  -8.006  0.00  0.00    -0.083 Cl
ENDBRANCH  14  19
ENDBRANCH  11  14
ENDBRANCH  10  11
ENDBRANCH   1  10
BRANCH   5  22
ATOM     22  C   UNL     1       2.499   3.901   0.015  0.00  0.00    +0.145 C 
BRANCH  22  23
ATOM     23  C   UNL     1       1.224   3.097   0.041  0.00  0.00    +0.005 A 
ATOM     24  C   UNL     1       1.277   1.716   0.030  0.00  0.00    +0.008 A 
ATOM     25  C   UNL     1       0.108   0.979   0.053  0.00  0.00    +0.000 A 
ATOM     26  C   UNL     1      -1.116   1.622   0.082  0.00  0.00    +0.003 A 
ATOM     27  C   UNL     1      -1.171   3.003   0.098  0.00  0.00    +0.038 A 
ATOM     28  C   UNL     1      -0.000   3.742   0.074  0.00  0.00    +0.128 A 
ATOM     29  F   UNL     1      -0.053   5.092   0.085  0.00  0.00    -0.205 F 
ENDBRANCH  22  23
ENDBRANCH   5  22
TORSDOF 7
