REMARK  Name = ZINC37318442
REMARK  9 active torsions:
REMARK  status: ('A' for Active; 'I' for Inactive)
REMARK    1  A    between atoms: C_1  and  C_2
REMARK    2  A    between atoms: C_2  and  C_4
REMARK    3  A    between atoms: C_2  and  N_13
REMARK    4  A    between atoms: C_4  and  C_5
REMARK    5  A    between atoms: C_5  and  C_6
REMARK    6  A    between atoms: C_9  and  O_12
REMARK    7  A    between atoms: N_13  and  C_14
REMARK    8  A    between atoms: C_14  and  C_16
REMARK    9  A    between atoms: C_14  and  C_17
REMARK                            x       y       z     vdW  Elec       q    Type
REMARK                         _______ _______ _______ _____ _____    ______ ____
ROOT
ATOM      1  C   UNL     1      -0.019   1.526   0.010  0.00  0.00    -0.014 C 
ATOM      2  C   UNL     1       0.002  -0.004   0.002  0.00  0.00    -0.074 C 
ENDROOT
BRANCH   2   3
ATOM      3  N   UNL     1       0.713  -0.491   1.192  0.00  0.00    +0.385 N 
ATOM      4  H   UNL     1       0.798  -1.495   1.145  0.00  0.00    -0.085 HD
ATOM      5  H   UNL     1       1.632  -0.076   1.228  0.00  0.00    -0.085 HD
BRANCH   3   6
ATOM      6  C   UNL     1      -0.040  -0.119   2.398  0.00  0.00    -0.044 C 
ATOM      7  C   UNL     1      -1.385  -0.847   2.404  0.00  0.00    -0.009 C 
BRANCH   6   8
ATOM      8  C   UNL     1       0.748  -0.509   3.622  0.00  0.00    -0.062 A 
ATOM      9  C   UNL     1       1.440  -1.705   3.646  0.00  0.00    +0.003 A 
ATOM     10  C   UNL     1       2.163  -2.063   4.768  0.00  0.00    +0.014 A 
ATOM     11  C   UNL     1       2.193  -1.225   5.867  0.00  0.00    +0.013 A 
ATOM     12  C   UNL     1       1.500  -0.028   5.843  0.00  0.00    +0.014 A 
ATOM     13  C   UNL     1       0.783   0.332   4.718  0.00  0.00    +0.003 A 
ATOM     14  I   UNL     1       3.288  -1.768   7.569  0.00  0.00    -0.044 I 
ENDBRANCH   6   8
ENDBRANCH   3   6
ENDBRANCH   2   3
BRANCH   2  15
ATOM     15  C   UNL     1       0.718  -0.497  -1.257  0.00  0.00    -0.011 C 
BRANCH  15  16
ATOM     16  C   UNL     1       0.630  -2.023  -1.329  0.00  0.00    +0.033 C 
BRANCH  16  17
ATOM     17  C   UNL     1       1.336  -2.509  -2.568  0.00  0.00    -0.047 A 
ATOM     18  C   UNL     1       0.637  -2.639  -3.754  0.00  0.00    +0.007 A 
ATOM     19  C   UNL     1       1.281  -3.084  -4.892  0.00  0.00    +0.045 A 
ATOM     20  C   UNL     1       2.630  -3.402  -4.844  0.00  0.00    +0.117 A 
ATOM     21  C   UNL     1       3.330  -3.271  -3.653  0.00  0.00    +0.045 A 
ATOM     22  C   UNL     1       2.682  -2.820  -2.520  0.00  0.00    +0.007 A 
BRANCH  20  23
ATOM     23  O   UNL     1       3.266  -3.841  -5.962  0.00  0.00    -0.507 OA
ATOM     24  H   UNL     1       3.654  -3.135  -6.497  0.00  0.00    +0.292 HD
ENDBRANCH  20  23
ENDBRANCH  16  17
ENDBRANCH  15  16
ENDBRANCH   2  15
TORSDOF 7
