REMARK  Name = ZINC66290309
REMARK  6 active torsions:
REMARK  status: ('A' for Active; 'I' for Inactive)
REMARK    1  A    between atoms: C_1  and  C_2
REMARK    2  A    between atoms: C_4  and  N_21
REMARK    3  A    between atoms: C_7  and  C_8
REMARK    4  A    between atoms: N_10  and  C_11
REMARK    5  A    between atoms: C_14  and  S_17
REMARK    6  A    between atoms: S_17  and  N_20
REMARK                            x       y       z     vdW  Elec       q    Type
REMARK                         _______ _______ _______ _____ _____    ______ ____
ROOT
ATOM      1  C   UNL     1       0.423   0.039   2.470  0.00  0.00    +0.249 C 
ATOM      2  O   UNL     1       0.484   1.253   2.490  0.00  0.00    -0.270 OA
ATOM      3  N   UNL     1       0.465  -0.656   3.624  0.00  0.00    -0.281 N 
ATOM      4  H   UNL     1       0.492  -1.626   3.606  0.00  0.00    +0.155 HD
ENDROOT
BRANCH   1  11
ATOM      5  C   UNL     1       0.047   1.546   0.030  0.00  0.00    +0.044 C 
ATOM      6  C   UNL     1       0.122   0.042  -0.002  0.00  0.00    -0.036 A 
ATOM      7  C   UNL     1       0.017  -0.631  -1.202  0.00  0.00    +0.036 A 
ATOM      8  C   UNL     1       0.085  -2.012  -1.234  0.00  0.00    +0.126 A 
ATOM      9  C   UNL     1       0.260  -2.729  -0.063  0.00  0.00    +0.033 A 
ATOM     10  C   UNL     1       0.367  -2.069   1.144  0.00  0.00    +0.015 A 
ATOM     11  C   UNL     1       0.304  -0.675   1.182  0.00  0.00    +0.040 A 
BRANCH   8  12
ATOM     12  N   UNL     1      -0.029  -2.726  -2.525  0.00  0.00    +0.056 N 
ATOM     13  O   UNL     1      -0.182  -2.103  -3.549  0.00  0.00    -0.126 OA
ATOM     14  O   UNL     1       0.030  -3.934  -2.555  0.00  0.00    -0.126 OA
ENDBRANCH   8  12
ENDBRANCH   1  11
BRANCH   3  15
ATOM     15  C   UNL     1       0.469   0.020   4.848  0.00  0.00    +0.034 A 
ATOM     16  C   UNL     1       1.180  -0.493   5.925  0.00  0.00    +0.025 A 
ATOM     17  C   UNL     1       1.182   0.177   7.132  0.00  0.00    +0.030 A 
ATOM     18  C   UNL     1       0.477   1.358   7.270  0.00  0.00    +0.105 A 
ATOM     19  C   UNL     1      -0.233   1.872   6.200  0.00  0.00    +0.030 A 
ATOM     20  C   UNL     1      -0.234   1.210   4.988  0.00  0.00    +0.025 A 
BRANCH  18  21
ATOM     21  S   UNL     1       0.481   2.210   8.812  0.00  0.00    +0.056 S 
ATOM     22  O   UNL     1      -0.698   3.003   8.842  0.00  0.00    -0.153 OA
ATOM     23  O   UNL     1       0.772   1.242   9.811  0.00  0.00    -0.153 OA
BRANCH  21  24
ATOM     24  N   UNL     1       1.759   3.263   8.787  0.00  0.00    -0.204 NA
ATOM     25  H   UNL     1       1.714   4.093   9.286  0.00  0.00    +0.144 HD
ATOM     26  H   UNL     1       2.553   3.049   8.273  0.00  0.00    +0.144 HD
ENDBRANCH  21  24
ENDBRANCH  18  21
ENDBRANCH   3  15
TORSDOF 5
