REMARK  Name = ZINC26647887
REMARK  18 active torsions:
REMARK  status: ('A' for Active; 'I' for Inactive)
REMARK    1  A    between atoms: C_1  and  C_2
REMARK    2  A    between atoms: C_2  and  C_3
REMARK    3  A    between atoms: C_3  and  C_4
REMARK    4  A    between atoms: C_4  and  N_5
REMARK    5  A    between atoms: C_6  and  N_34
REMARK    6  A    between atoms: C_7  and  N_14
REMARK    7  A    between atoms: N_14  and  C_15
REMARK    8  A    between atoms: C_15  and  C_16
REMARK    9  A    between atoms: C_22  and  C_24
REMARK   10  A    between atoms: C_24  and  N_25
REMARK   11  A    between atoms: N_25  and  C_26
REMARK   12  A    between atoms: N_25  and  C_30
REMARK   13  A    between atoms: C_26  and  C_27
REMARK   14  A    between atoms: C_27  and  C_28
REMARK   15  A    between atoms: C_27  and  C_29
REMARK   16  A    between atoms: C_30  and  C_31
REMARK   17  A    between atoms: C_31  and  C_32
REMARK   18  A    between atoms: C_31  and  C_33
REMARK                            x       y       z     vdW  Elec       q    Type
REMARK                         _______ _______ _______ _____ _____    ______ ____
ROOT
ATOM      1  N   UNL     1      -0.558  -2.374  -5.550  0.00  0.00    -0.261 N 
ATOM      2  C   UNL     1      -1.879  -2.233  -5.788  0.00  0.00    +0.204 C 
ATOM      3  O   UNL     1      -2.631  -1.939  -4.883  0.00  0.00    -0.277 OA
ENDROOT
BRANCH   1   6
ATOM      4  N   UNL     1       1.315  -0.792  -2.813  0.00  0.00    -0.280 N 
ATOM      5  C   UNL     1       0.827  -1.039  -4.075  0.00  0.00    +0.127 A 
ATOM      6  C   UNL     1      -0.040  -2.095  -4.267  0.00  0.00    +0.140 A 
ATOM      7  C   UNL     1      -0.398  -2.890  -3.162  0.00  0.00    +0.277 A 
ATOM      8  O   UNL     1      -1.162  -3.830  -3.304  0.00  0.00    -0.266 OA
ATOM      9  N   UNL     1       0.109  -2.606  -1.946  0.00  0.00    -0.273 N 
ATOM     10  H   UNL     1      -0.138  -3.153  -1.184  0.00  0.00    +0.173 HD
ATOM     11  C   UNL     1       0.957  -1.575  -1.779  0.00  0.00    +0.331 A 
ATOM     12  O   UNL     1       1.403  -1.344  -0.672  0.00  0.00    -0.246 OA
BRANCH   5  13
ATOM     13  N   UNL     1       1.198  -0.243  -5.132  0.00  0.00    -0.343 N 
ATOM     14  H   UNL     1       1.752   0.539  -4.979  0.00  0.00    +0.144 HD
ATOM     15  H   UNL     1       0.906  -0.462  -6.030  0.00  0.00    +0.144 HD
ENDBRANCH   5  13
BRANCH   4  16
ATOM     16  C   UNL     1       2.237   0.326  -2.594  0.00  0.00    +0.128 C 
BRANCH  16  17
ATOM     17  C   UNL     1       3.676  -0.154  -2.788  0.00  0.00    +0.021 C 
BRANCH  17  19
ATOM     18  C   UNL     1       6.078   0.533  -2.753  0.00  0.00    +0.004 C 
ATOM     19  C   UNL     1       4.638   1.013  -2.559  0.00  0.00    -0.002 C 
ENDBRANCH  17  19
ENDBRANCH  16  17
ENDBRANCH   4  16
ENDBRANCH   1   6
BRANCH   1  20
ATOM     20  C   UNL     1       0.338  -2.815  -6.622  0.00  0.00    +0.149 C 
BRANCH  20  21
ATOM     21  C   UNL     1       0.402  -4.321  -6.634  0.00  0.00    -0.030 A 
ATOM     22  C   UNL     1       1.272  -4.982  -5.787  0.00  0.00    +0.005 A 
ATOM     23  C   UNL     1       1.331  -6.363  -5.798  0.00  0.00    +0.000 A 
ATOM     24  C   UNL     1       0.521  -7.083  -6.656  0.00  0.00    +0.000 A 
ATOM     25  C   UNL     1      -0.349  -6.422  -7.503  0.00  0.00    +0.000 A 
ATOM     26  C   UNL     1      -0.412  -5.041  -7.488  0.00  0.00    +0.005 A 
ENDBRANCH  20  21
ENDBRANCH   1  20
BRANCH   2  27
ATOM     27  C   UNL     1      -2.419  -2.442  -7.180  0.00  0.00    +0.019 C 
BRANCH  27  28
ATOM     28  N   UNL     1      -3.842  -2.079  -7.212  0.00  0.00    +0.386 N 
ATOM     29  H   UNL     1      -4.338  -2.601  -6.505  0.00  0.00    -0.081 HD
BRANCH  28  30
ATOM     30  C   UNL     1      -3.987  -0.641  -6.950  0.00  0.00    -0.075 C 
BRANCH  30  31
ATOM     31  C   UNL     1      -5.471  -0.293  -6.817  0.00  0.00    -0.034 C 
ATOM     32  C   UNL     1      -6.059  -1.023  -5.608  0.00  0.00    +0.005 C 
ATOM     33  C   UNL     1      -5.626   1.217  -6.627  0.00  0.00    +0.005 C 
ENDBRANCH  30  31
ENDBRANCH  28  30
BRANCH  28  34
ATOM     34  C   UNL     1      -4.398  -2.394  -8.534  0.00  0.00    -0.075 C 
BRANCH  34  35
ATOM     35  C   UNL     1      -3.352  -2.099  -9.611  0.00  0.00    -0.034 C 
ATOM     36  C   UNL     1      -3.896  -2.516 -10.979  0.00  0.00    +0.005 C 
ATOM     37  C   UNL     1      -3.040  -0.601  -9.621  0.00  0.00    +0.005 C 
ENDBRANCH  34  35
ENDBRANCH  28  34
ENDBRANCH  27  28
ENDBRANCH   2  27
TORSDOF 13
