REMARK  Name = ZINC15548707
REMARK  6 active torsions:
REMARK  status: ('A' for Active; 'I' for Inactive)
REMARK    1  A    between atoms: C_3  and  C_6
REMARK    2  A    between atoms: C_15  and  C_16
REMARK    3  A    between atoms: C_15  and  N_49
REMARK    4  A    between atoms: N_18  and  C_19
REMARK    5  A    between atoms: C_19  and  C_20
REMARK    6  A    between atoms: N_22  and  C_23
REMARK                            x       y       z     vdW  Elec       q    Type
REMARK                         _______ _______ _______ _____ _____    ______ ____
ROOT
ATOM      1  C   UNL     1       3.569   3.502   3.049  0.00  0.00    +0.197 C 
ATOM      2  O   UNL     1       4.591   3.880   2.516  0.00  0.00    -0.278 OA
ATOM      3  N   UNL     1       3.571   3.182   4.358  0.00  0.00    -0.308 N 
ATOM      4  H   UNL     1       2.753   2.880   4.785  0.00  0.00    +0.149 HD
ENDROOT
BRANCH   1   5
ATOM      5  C   UNL     1       2.298   3.392   2.248  0.00  0.00    +0.020 C 
BRANCH   5  14
ATOM      6  C   UNL     1       1.413   3.479  -0.004  0.00  0.00    +0.002 C 
ATOM      7  C   UNL     1       1.730   3.940  -1.423  0.00  0.00    -0.046 A 
ATOM      8  C   UNL     1       1.059   3.485  -2.556  0.00  0.00    +0.010 A 
ATOM      9  C   UNL     1       1.408   3.946  -3.780  0.00  0.00    +0.045 A 
ATOM     10  S   UNL     1       2.735   5.076  -3.384  0.00  0.00    -0.101 S 
ATOM     11  C   UNL     1       2.724   4.849  -1.629  0.00  0.00    -0.010 A 
ATOM     12  C   UNL     1       3.581   5.485  -0.583  0.00  0.00    +0.024 C 
ATOM     13  C   UNL     1       2.930   5.215   0.784  0.00  0.00    -0.072 C 
ATOM     14  N   UNL     1       2.586   3.775   0.852  0.00  0.00    +0.393 N 
ATOM     15  H   UNL     1       3.387   3.227   0.515  0.00  0.00    -0.080 HD
BRANCH   6  18
ATOM     16  C   UNL     1       0.011  -0.063   0.018  0.00  0.00    +0.008 A 
ATOM     17  C   UNL     1      -0.007   1.319   0.015  0.00  0.00    +0.010 A 
ATOM     18  C   UNL     1       1.170   1.992   0.003  0.00  0.00    -0.019 A 
ATOM     19  S   UNL     1       2.357   0.659  -0.003  0.00  0.00    -0.103 S 
ATOM     20  C   UNL     1       1.205  -0.705   0.010  0.00  0.00    +0.045 A 
ENDBRANCH   6  18
ENDBRANCH   5  14
ENDBRANCH   1   5
BRANCH   3  21
ATOM     21  C   UNL     1       4.806   3.289   5.138  0.00  0.00    +0.200 C 
BRANCH  21  22
ATOM     22  C   UNL     1       4.540   2.876   6.562  0.00  0.00    +0.234 C 
ATOM     23  O   UNL     1       3.427   2.526   6.894  0.00  0.00    -0.274 OA
ATOM     24  N   UNL     1       5.538   2.894   7.467  0.00  0.00    -0.282 N 
ATOM     25  H   UNL     1       6.441   3.111   7.189  0.00  0.00    +0.155 HD
BRANCH  24  26
ATOM     26  C   UNL     1       5.271   2.600   8.811  0.00  0.00    +0.072 A 
ATOM     27  C   UNL     1       4.306   1.657   9.138  0.00  0.00    +0.029 A 
ATOM     28  C   UNL     1       4.043   1.367  10.463  0.00  0.00    +0.043 A 
ATOM     29  C   UNL     1       4.742   2.015  11.467  0.00  0.00    +0.161 A 
ATOM     30  C   UNL     1       5.706   2.958  11.146  0.00  0.00    +0.195 A 
ATOM     31  C   UNL     1       5.976   3.248   9.819  0.00  0.00    +0.182 A 
ATOM     32  F   UNL     1       6.919   4.162   9.504  0.00  0.00    -0.200 F 
ATOM     33  F   UNL     1       6.386   3.590  12.127  0.00  0.00    -0.199 F 
ATOM     34  F   UNL     1       4.483   1.728  12.762  0.00  0.00    -0.202 F 
ENDBRANCH  24  26
ENDBRANCH  21  22
ENDBRANCH   3  21
TORSDOF 6
