REMARK  Name = ZINC35318280
REMARK  15 active torsions:
REMARK  status: ('A' for Active; 'I' for Inactive)
REMARK    1  A    between atoms: C_1  and  C_2
REMARK    2  A    between atoms: C_2  and  O_3
REMARK    3  A    between atoms: O_3  and  C_4
REMARK    4  A    between atoms: C_4  and  C_6
REMARK    5  A    between atoms: C_7  and  C_32
REMARK    6  A    between atoms: N_8  and  C_21
REMARK    7  A    between atoms: C_12  and  C_14
REMARK    8  A    between atoms: C_21  and  C_22
REMARK    9  A    between atoms: N_24  and  C_25
REMARK   10  A    between atoms: C_25  and  C_26
REMARK   11  A    between atoms: C_26  and  C_27
REMARK   12  A    between atoms: C_27  and  C_28
REMARK   13  A    between atoms: C_28  and  C_29
REMARK   14  A    between atoms: C_29  and  C_30
REMARK   15  A    between atoms: C_30  and  N_31
REMARK                            x       y       z     vdW  Elec       q    Type
REMARK                         _______ _______ _______ _____ _____    ______ ____
ROOT
ATOM      1  C   UNL     1      -2.793  -2.433   0.236  0.00  0.00    +0.061 C 
ATOM      2  C   UNL     1      -2.951  -3.728  -0.086  0.00  0.00    +0.021 C 
ATOM      3  N   UNL     1      -4.197  -4.268  -0.267  0.00  0.00    -0.266 N 
ATOM      4  C   UNL     1      -5.300  -3.616   0.140  0.00  0.00    +0.221 C 
ATOM      5  O   UNL     1      -6.397  -4.069  -0.109  0.00  0.00    -0.275 OA
ATOM      6  C   UNL     1      -5.179  -2.323   0.905  0.00  0.00    +0.109 C 
ATOM      7  C   UNL     1      -3.989  -1.527   0.373  0.00  0.00    +0.068 C 
ATOM      8  C   UNL     1      -1.736  -4.603  -0.252  0.00  0.00    +0.061 C 
ENDROOT
BRANCH   7   9
ATOM      9  C   UNL     1      -4.339  -0.950  -0.974  0.00  0.00    -0.021 A 
ATOM     10  C   UNL     1      -4.681  -1.790  -2.018  0.00  0.00    +0.005 A 
ATOM     11  C   UNL     1      -5.002  -1.262  -3.254  0.00  0.00    +0.000 A 
ATOM     12  C   UNL     1      -4.982   0.107  -3.447  0.00  0.00    +0.001 A 
ATOM     13  C   UNL     1      -4.641   0.948  -2.405  0.00  0.00    +0.020 A 
ATOM     14  C   UNL     1      -4.325   0.420  -1.166  0.00  0.00    +0.045 A 
ATOM     15 CL   UNL     1      -3.902   1.475   0.146  0.00  0.00    -0.083 Cl
ENDBRANCH   7   9
BRANCH   1  16
ATOM     16  C   UNL     1      -1.493  -1.918   0.454  0.00  0.00    +0.337 C 
ATOM     17  O   UNL     1      -0.536  -2.669   0.470  0.00  0.00    -0.245 OA
BRANCH  16  18
ATOM     18  O   UNL     1      -1.315  -0.595   0.646  0.00  0.00    -0.462 OA
BRANCH  18  20
ATOM     19  C   UNL     1       0.026   1.373   1.056  0.00  0.00    +0.048 C 
ATOM     20  C   UNL     1       0.024  -0.144   0.860  0.00  0.00    +0.229 C 
ENDBRANCH  18  20
ENDBRANCH  16  18
ENDBRANCH   1  16
BRANCH   3  21
ATOM     21  C   UNL     1      -4.329  -5.575  -0.914  0.00  0.00    +0.209 C 
BRANCH  21  22
ATOM     22  C   UNL     1      -4.283  -6.660   0.131  0.00  0.00    +0.231 C 
ATOM     23  O   UNL     1      -4.152  -6.370   1.301  0.00  0.00    -0.274 OA
ATOM     24  N   UNL     1      -4.387  -7.953  -0.235  0.00  0.00    -0.314 N 
ATOM     25  H   UNL     1      -4.492  -8.186  -1.171  0.00  0.00    +0.149 HD
BRANCH  24  26
ATOM     26  C   UNL     1      -4.342  -9.008   0.781  0.00  0.00    +0.104 C 
BRANCH  26  27
ATOM     27  C   UNL     1      -4.480 -10.373   0.105  0.00  0.00    +0.019 C 
BRANCH  27  28
ATOM     28  C   UNL     1      -4.433 -11.475   1.167  0.00  0.00    +0.001 C 
BRANCH  28  29
ATOM     29  C   UNL     1      -4.572 -12.840   0.491  0.00  0.00    -0.002 C 
BRANCH  29  30
ATOM     30  C   UNL     1      -4.525 -13.941   1.552  0.00  0.00    -0.020 C 
BRANCH  30  31
ATOM     31  C   UNL     1      -4.663 -15.307   0.876  0.00  0.00    -0.086 C 
BRANCH  31  32
ATOM     32  N   UNL     1      -4.618 -16.364   1.895  0.00  0.00    +0.378 N 
ATOM     33  H   UNL     1      -4.709 -17.265   1.449  0.00  0.00    -0.090 HD
ATOM     34  H   UNL     1      -3.738 -16.320   2.387  0.00  0.00    -0.090 HD
ATOM     35  H   UNL     1      -5.376 -16.234   2.548  0.00  0.00    -0.090 HD
ENDBRANCH  31  32
ENDBRANCH  30  31
ENDBRANCH  29  30
ENDBRANCH  28  29
ENDBRANCH  27  28
ENDBRANCH  26  27
ENDBRANCH  24  26
ENDBRANCH  21  22
ENDBRANCH   3  21
TORSDOF 13
