REMARK  Name = ZINC09044327
REMARK  10 active torsions:
REMARK  status: ('A' for Active; 'I' for Inactive)
REMARK    1  A    between atoms: C_1  and  C_2
REMARK    2  A    between atoms: C_5  and  C_8
REMARK    3  A    between atoms: C_9  and  O_21
REMARK    4  A    between atoms: C_15  and  C_19
REMARK    5  A    between atoms: O_21  and  C_22
REMARK    6  A    between atoms: C_22  and  C_24
REMARK    7  A    between atoms: C_22  and  C_25
REMARK    8  A    between atoms: N_27  and  C_28
REMARK    9  A    between atoms: C_33  and  O_34
REMARK   10  A    between atoms: O_34  and  C_35
REMARK                            x       y       z     vdW  Elec       q    Type
REMARK                         _______ _______ _______ _____ _____    ______ ____
ROOT
ATOM      1  C   UNL     1      -8.134   0.295   0.501  0.00  0.00    +0.181 A 
ATOM      2  C   UNL     1      -7.235  -0.337  -0.305  0.00  0.00    +0.212 A 
ATOM      3  C   UNL     1      -7.502  -0.448  -1.694  0.00  0.00    +0.235 A 
ATOM      4  O   UNL     1      -6.724  -1.011  -2.447  0.00  0.00    -0.283 OA
ATOM      5  C   UNL     1      -8.758   0.145  -2.192  0.00  0.00    +0.069 A 
ATOM      6  C   UNL     1      -9.102   0.084  -3.542  0.00  0.00    +0.035 A 
ATOM      7  C   UNL     1     -10.285   0.650  -3.969  0.00  0.00    +0.045 A 
ATOM      8  C   UNL     1     -11.128   1.276  -3.061  0.00  0.00    -0.029 A 
ATOM      9  C   UNL     1     -10.798   1.343  -1.725  0.00  0.00    +0.051 A 
ATOM     10  C   UNL     1      -9.611   0.778  -1.274  0.00  0.00    +0.140 A 
ATOM     11  O   UNL     1      -9.271   0.834   0.030  0.00  0.00    -0.451 OA
ATOM     12  C   UNL     1     -12.418   1.890  -3.542  0.00  0.00    +0.045 C 
ATOM     13 CL   UNL     1     -10.721   0.579  -5.648  0.00  0.00    -0.083 Cl
ENDROOT
BRANCH   1  18
ATOM     14  C   UNL     1      -7.005   0.694   6.128  0.00  0.00    +0.044 C 
ATOM     15  C   UNL     1      -7.301   0.589   4.654  0.00  0.00    -0.050 A 
ATOM     16  C   UNL     1      -6.338   0.956   3.730  0.00  0.00    +0.004 A 
ATOM     17  C   UNL     1      -6.601   0.863   2.380  0.00  0.00    +0.012 A 
ATOM     18  C   UNL     1      -7.844   0.397   1.944  0.00  0.00    +0.021 A 
ATOM     19  C   UNL     1      -8.814   0.033   2.882  0.00  0.00    +0.012 A 
ATOM     20  C   UNL     1      -8.534   0.126   4.230  0.00  0.00    +0.004 A 
ENDBRANCH   1  18
BRANCH   2  21
ATOM     21  O   UNL     1      -6.095  -0.863   0.218  0.00  0.00    -0.473 OA
BRANCH  21  22
ATOM     22  C   UNL     1      -6.173  -2.190   0.743  0.00  0.00    +0.256 C 
ATOM     23  C   UNL     1      -5.931  -3.198  -0.382  0.00  0.00    +0.062 C 
BRANCH  22  24
ATOM     24  C   UNL     1      -5.127  -2.369   1.812  0.00  0.00    +0.258 C 
ATOM     25  O   UNL     1      -4.328  -1.484   2.035  0.00  0.00    -0.271 OA
ATOM     26  N   UNL     1      -5.079  -3.514   2.522  0.00  0.00    -0.279 N 
ATOM     27  H   UNL     1      -5.671  -4.249   2.299  0.00  0.00    +0.155 HD
BRANCH  26  28
ATOM     28  C   UNL     1      -4.172  -3.643   3.583  0.00  0.00    +0.077 A 
ATOM     29  C   UNL     1      -2.980  -2.934   3.569  0.00  0.00    +0.047 A 
ATOM     30  C   UNL     1      -2.084  -3.067   4.614  0.00  0.00    +0.043 A 
ATOM     31  C   UNL     1      -2.377  -3.903   5.678  0.00  0.00    +0.024 A 
ATOM     32  C   UNL     1      -3.566  -4.608   5.700  0.00  0.00    +0.049 A 
ATOM     33  C   UNL     1      -4.468  -4.480   4.656  0.00  0.00    +0.141 A 
ATOM     34 CL   UNL     1      -0.590  -2.184   4.592  0.00  0.00    -0.083 Cl
BRANCH  33  35
ATOM     35  O   UNL     1      -5.638  -5.174   4.678  0.00  0.00    -0.493 OA
ATOM     36  C   UNL     1      -5.871  -6.017   5.807  0.00  0.00    +0.277 C 
ENDBRANCH  33  35
ENDBRANCH  26  28
ENDBRANCH  22  24
ENDBRANCH  21  22
ENDBRANCH   2  21
TORSDOF 6
