REMARK  Name = ZINC14029317
REMARK  13 active torsions:
REMARK  status: ('A' for Active; 'I' for Inactive)
REMARK    1  A    between atoms: C_1  and  C_2
REMARK    2  A    between atoms: C_2  and  C_3
REMARK    3  A    between atoms: C_2  and  C_4
REMARK    4  A    between atoms: C_2  and  C_5
REMARK    5  A    between atoms: C_8  and  C_11
REMARK    6  A    between atoms: N_13  and  C_14
REMARK    7  A    between atoms: C_17  and  C_20
REMARK    8  A    between atoms: N_22  and  N_23
REMARK    9  A    between atoms: N_23  and  C_24
REMARK   10  A    between atoms: C_24  and  N_26
REMARK   11  A    between atoms: C_27  and  C_29
REMARK   12  A    between atoms: C_29  and  C_30
REMARK   13  A    between atoms: C_30  and  C_31
REMARK                            x       y       z     vdW  Elec       q    Type
REMARK                         _______ _______ _______ _____ _____    ______ ____
ROOT
ATOM      1  C   UNL     1       4.704  -2.016  -6.037  0.00  0.00    +0.034 A 
ATOM      2  C   UNL     1       4.071  -2.808  -6.990  0.00  0.00    +0.024 A 
ATOM      3  C   UNL     1       4.782  -3.300  -8.061  0.00  0.00    +0.015 A 
ATOM      4  C   UNL     1       6.141  -3.002  -8.191  0.00  0.00    +0.038 A 
ATOM      5  C   UNL     1       6.774  -2.206  -7.232  0.00  0.00    +0.015 A 
ATOM      6  C   UNL     1       6.056  -1.713  -6.166  0.00  0.00    +0.024 A 
ENDROOT
BRANCH   1   9
ATOM      7  C   UNL     1       3.003  -2.263  -4.399  0.00  0.00    +0.248 C 
ATOM      8  O   UNL     1       2.694  -3.329  -4.895  0.00  0.00    -0.270 OA
ATOM      9  N   UNL     1       3.981  -1.520  -4.954  0.00  0.00    -0.282 N 
ATOM     10  H   UNL     1       4.181  -0.640  -4.599  0.00  0.00    +0.155 HD
BRANCH   7  14
ATOM     11  C   UNL     1       0.999  -0.881  -0.919  0.00  0.00    -0.042 A 
ATOM     12  C   UNL     1       0.645  -2.094  -1.481  0.00  0.00    +0.005 A 
ATOM     13  C   UNL     1       1.292  -2.549  -2.611  0.00  0.00    +0.013 A 
ATOM     14  C   UNL     1       2.305  -1.782  -3.188  0.00  0.00    +0.037 A 
ATOM     15  C   UNL     1       2.657  -0.558  -2.616  0.00  0.00    +0.013 A 
ATOM     16  C   UNL     1       1.999  -0.113  -1.488  0.00  0.00    +0.005 A 
BRANCH  11  18
ATOM     17  C   UNL     1      -0.395   0.945   0.015  0.00  0.00    +0.015 C 
ATOM     18  C   UNL     1       0.288  -0.390   0.316  0.00  0.00    -0.013 C 
ATOM     19  C   UNL     1       1.301  -0.201   1.447  0.00  0.00    +0.015 C 
ATOM     20  C   UNL     1      -0.764  -1.417   0.741  0.00  0.00    +0.015 C 
ENDBRANCH  11  18
ENDBRANCH   7  14
ENDBRANCH   1   9
BRANCH   4  21
ATOM     21  C   UNL     1       6.907  -3.528  -9.337  0.00  0.00    +0.260 C 
ATOM     22  O   UNL     1       6.356  -4.221 -10.170  0.00  0.00    -0.269 OA
ATOM     23  N   UNL     1       8.218  -3.241  -9.461  0.00  0.00    -0.231 N 
ATOM     24  H   UNL     1       8.658  -2.688  -8.796  0.00  0.00    +0.173 HD
BRANCH  23  25
ATOM     25  N   UNL     1       8.945  -3.740 -10.550  0.00  0.00    -0.245 N 
ATOM     26  H   UNL     1       8.505  -4.293 -11.214  0.00  0.00    +0.172 HD
BRANCH  25  27
ATOM     27  C   UNL     1      10.256  -3.452 -10.673  0.00  0.00    +0.153 C 
ATOM     28  S   UNL     1      11.144  -4.062 -12.004  0.00  0.00    -0.017 S 
BRANCH  27  29
ATOM     29  N   UNL     1      10.867  -2.684  -9.750  0.00  0.00    -0.267 N 
ATOM     30  C   UNL     1      12.178  -2.396  -9.874  0.00  0.00    +0.218 C 
ATOM     31  O   UNL     1      12.807  -2.829 -10.816  0.00  0.00    -0.275 OA
ATOM     32  H   UNL     1      10.364  -2.338  -8.996  0.00  0.00    +0.157 HD
BRANCH  30  33
ATOM     33  C   UNL     1      12.862  -1.538  -8.841  0.00  0.00    +0.096 C 
BRANCH  33  34
ATOM     34  C   UNL     1      14.336  -1.366  -9.216  0.00  0.00    +0.013 C 
BRANCH  34  35
ATOM     35  C   UNL     1      15.030  -0.494  -8.167  0.00  0.00    -0.011 C 
ATOM     36  C   UNL     1      14.436   0.916  -8.203  0.00  0.00    +0.003 C 
ATOM     37  C   UNL     1      15.130   1.788  -7.154  0.00  0.00    +0.000 C 
ATOM     38  C   UNL     1      16.628   1.857  -7.459  0.00  0.00    +0.000 C 
ATOM     39  C   UNL     1      17.222   0.447  -7.424  0.00  0.00    +0.000 C 
ATOM     40  C   UNL     1      16.527  -0.425  -8.472  0.00  0.00    +0.003 C 
ENDBRANCH  34  35
ENDBRANCH  33  34
ENDBRANCH  30  33
ENDBRANCH  27  29
ENDBRANCH  25  27
ENDBRANCH  23  25
ENDBRANCH   4  21
TORSDOF 10
