REMARK  Name = ZINC15707546
REMARK  7 active torsions:
REMARK  status: ('A' for Active; 'I' for Inactive)
REMARK    1  A    between atoms: C_6  and  N_7
REMARK    2  A    between atoms: N_7  and  C_8
REMARK    3  A    between atoms: C_8  and  N_10
REMARK    4  A    between atoms: N_10  and  C_11
REMARK    5  A    between atoms: C_20  and  C_23
REMARK    6  A    between atoms: C_23  and  C_24
REMARK    7  A    between atoms: C_24  and  C_25
REMARK                            x       y       z     vdW  Elec       q    Type
REMARK                         _______ _______ _______ _____ _____    ______ ____
ROOT
ATOM      1  C   UNL     1      -2.092  -4.487  -0.312  0.00  0.00    +0.054 C 
ATOM      2  C   UNL     1      -3.467  -5.019   0.171  0.00  0.00    +0.014 C 
ATOM      3  C   UNL     1      -4.056  -5.694  -1.069  0.00  0.00    +0.021 C 
ATOM      4  C   UNL     1      -5.540  -5.603  -1.214  0.00  0.00    +0.200 C 
ATOM      5  O   UNL     1      -6.254  -5.604  -0.234  0.00  0.00    -0.278 OA
ATOM      6  N   UNL     1      -6.074  -5.521  -2.448  0.00  0.00    -0.318 N 
ATOM      7  C   UNL     1      -5.301  -5.388  -3.677  0.00  0.00    +0.089 C 
ATOM      8  C   UNL     1      -3.799  -5.600  -3.442  0.00  0.00    -0.050 C 
ATOM      9  C   UNL     1      -2.039  -4.833  -1.827  0.00  0.00    -0.055 C 
ATOM     10  H   UNL     1      -7.040  -5.553  -2.525  0.00  0.00    +0.149 HD
ATOM     11  N   UNL     1      -3.488  -4.930  -2.138  0.00  0.00    +0.391 N 
ATOM     12  H   UNL     1      -3.892  -3.986  -2.154  0.00  0.00    -0.080 HD
ENDROOT
BRANCH   1  13
ATOM     13  N   UNL     1      -2.009  -3.038  -0.117  0.00  0.00    -0.325 N 
ATOM     14  H   UNL     1      -2.820  -2.511  -0.043  0.00  0.00    +0.148 HD
BRANCH  13  15
ATOM     15  C   UNL     1      -0.805  -2.436  -0.042  0.00  0.00    +0.135 C 
ATOM     16  S   UNL     1       0.627  -3.365  -0.174  0.00  0.00    -0.019 S 
BRANCH  15  17
ATOM     17  N   UNL     1      -0.728  -1.102   0.137  0.00  0.00    -0.297 N 
ATOM     18  H   UNL     1      -1.535  -0.587   0.295  0.00  0.00    +0.154 HD
BRANCH  17  24
ATOM     19  C   UNL     1       0.811   0.541   1.010  0.00  0.00    +0.025 A 
ATOM     20  C   UNL     1       2.039   1.173   0.968  0.00  0.00    +0.022 A 
ATOM     21  C   UNL     1       2.973   0.807   0.015  0.00  0.00    +0.041 A 
ATOM     22  C   UNL     1       2.681  -0.192  -0.897  0.00  0.00    +0.022 A 
ATOM     23  C   UNL     1       1.454  -0.826  -0.859  0.00  0.00    +0.025 A 
ATOM     24  C   UNL     1       0.515  -0.461   0.096  0.00  0.00    +0.033 A 
ATOM     25 CL   UNL     1       4.515   1.603  -0.036  0.00  0.00    -0.084 Cl
ENDBRANCH  17  24
ENDBRANCH  15  17
ENDBRANCH  13  15
ENDBRANCH   1  13
BRANCH   8  26
ATOM     26  C   UNL     1      -3.001  -4.991  -4.597  0.00  0.00    -0.005 C 
BRANCH  26  27
ATOM     27  C   UNL     1      -3.263  -5.790  -5.875  0.00  0.00    +0.094 C 
BRANCH  27  28
ATOM     28  C   UNL     1      -2.563  -5.128  -7.034  0.00  0.00    +0.216 C 
ATOM     29  O   UNL     1      -1.918  -4.117  -6.855  0.00  0.00    -0.276 OA
ATOM     30  N   UNL     1      -2.654  -5.660  -8.269  0.00  0.00    -0.301 N 
ATOM     31  C   UNL     1      -3.395  -6.879  -8.624  0.00  0.00    +0.108 C 
ATOM     32  C   UNL     1      -3.196  -7.112 -10.137  0.00  0.00    +0.020 C 
ATOM     33  C   UNL     1      -1.887  -6.334 -10.437  0.00  0.00    +0.020 C 
ATOM     34  C   UNL     1      -2.023  -5.118  -9.486  0.00  0.00    +0.108 C 
ENDBRANCH  27  28
ENDBRANCH  26  27
ENDBRANCH   8  26
TORSDOF 7
