REMARK  Name = ZINC63137899
REMARK  8 active torsions:
REMARK  status: ('A' for Active; 'I' for Inactive)
REMARK    1  A    between atoms: C_1  and  C_2
REMARK    2  A    between atoms: C_2  and  C_4
REMARK    3  A    between atoms: C_2  and  N_10
REMARK    4  A    between atoms: C_30  and  C_32
REMARK    5  A    between atoms: C_34  and  O_40
REMARK    6  A    between atoms: C_37  and  O_38
REMARK    7  A    between atoms: O_38  and  C_39
REMARK    8  A    between atoms: O_40  and  C_41
REMARK                            x       y       z     vdW  Elec       q    Type
REMARK                         _______ _______ _______ _____ _____    ______ ____
ROOT
ATOM      1  N   UNL     1      -1.781   0.208  -0.558  0.00  0.00    -0.284 N 
ATOM      2  C   UNL     1      -2.621   0.613   0.557  0.00  0.00    +0.204 C 
ATOM      3  C   UNL     1      -3.803  -0.283   0.728  0.00  0.00    +0.234 C 
ATOM      4  O   UNL     1      -4.571  -0.036   1.633  0.00  0.00    -0.274 OA
ATOM      5  N   UNL     1      -4.075  -1.339  -0.048  0.00  0.00    -0.279 N 
ATOM      6  C   UNL     1      -3.236  -1.725  -1.178  0.00  0.00    +0.167 C 
ATOM      7  C   UNL     1      -2.051  -0.833  -1.344  0.00  0.00    +0.237 C 
ATOM      8  O   UNL     1      -1.282  -1.073  -2.251  0.00  0.00    -0.274 OA
ATOM      9  C   UNL     1      -4.068  -1.722  -2.474  0.00  0.00    +0.065 C 
ATOM     10  C   UNL     1      -5.357  -2.439  -2.159  0.00  0.00    -0.034 C 
ATOM     11  C   UNL     1      -5.978  -3.441  -2.768  0.00  0.00    -0.001 A 
ATOM     12  C   UNL     1      -5.699  -4.146  -4.030  0.00  0.00    +0.010 A 
ATOM     13  C   UNL     1      -6.544  -5.161  -4.349  0.00  0.00    +0.001 A 
ATOM     14  C   UNL     1      -7.626  -5.542  -3.550  0.00  0.00    +0.002 A 
ATOM     15  C   UNL     1      -7.963  -4.944  -2.379  0.00  0.00    +0.026 A 
ATOM     16  C   UNL     1      -7.152  -3.856  -1.941  0.00  0.00    +0.043 A 
ATOM     17  N   UNL     1      -7.257  -3.099  -0.889  0.00  0.00    -0.375 N 
ATOM     18  C   UNL     1      -6.209  -2.081  -0.947  0.00  0.00    +0.131 C 
ATOM     19  C   UNL     1      -5.281  -2.137   0.270  0.00  0.00    +0.137 C 
ATOM     20  H   UNL     1      -7.918  -3.195  -0.185  0.00  0.00    +0.160 HD
ENDROOT
BRANCH  19  21
ATOM     21  C   UNL     1      -5.978  -1.553   1.472  0.00  0.00    +0.020 A 
ATOM     22  C   UNL     1      -7.020  -0.662   1.301  0.00  0.00    +0.054 A 
ATOM     23  C   UNL     1      -7.662  -0.125   2.406  0.00  0.00    +0.121 A 
ATOM     24  C   UNL     1      -7.258  -0.482   3.684  0.00  0.00    +0.049 A 
ATOM     25  C   UNL     1      -6.216  -1.373   3.856  0.00  0.00    +0.049 A 
ATOM     26  C   UNL     1      -5.577  -1.914   2.749  0.00  0.00    +0.125 A 
BRANCH  26  27
ATOM     27  O   UNL     1      -4.555  -2.795   2.918  0.00  0.00    -0.495 OA
ATOM     28  C   UNL     1      -4.195  -3.121   4.261  0.00  0.00    +0.277 C 
ENDBRANCH  26  27
BRANCH  23  29
ATOM     29  O   UNL     1      -8.688   0.751   2.238  0.00  0.00    -0.495 OA
ATOM     30  C   UNL     1      -9.303   1.265   3.421  0.00  0.00    +0.277 C 
ENDBRANCH  23  29
ENDBRANCH  19  21
BRANCH   1  32
ATOM     31  C   UNL     1      -0.951   2.467  -0.996  0.00  0.00    +0.033 C 
ATOM     32  C   UNL     1      -0.575   0.992  -0.836  0.00  0.00    +0.104 C 
BRANCH  32  33
ATOM     33  C   UNL     1       0.396   0.842   0.306  0.00  0.00    -0.027 A 
ATOM     34  C   UNL     1       1.614   0.220   0.101  0.00  0.00    +0.005 A 
ATOM     35  C   UNL     1       2.505   0.082   1.149  0.00  0.00    +0.000 A 
ATOM     36  C   UNL     1       2.178   0.566   2.402  0.00  0.00    +0.000 A 
ATOM     37  C   UNL     1       0.961   1.189   2.607  0.00  0.00    +0.000 A 
ATOM     38  C   UNL     1       0.072   1.330   1.558  0.00  0.00    +0.005 A 
ENDBRANCH  32  33
ENDBRANCH   1  32
TORSDOF 5
