REMARK  Name = ZINC39639222
REMARK  9 active torsions:
REMARK  status: ('A' for Active; 'I' for Inactive)
REMARK    1  A    between atoms: C_1  and  C_2
REMARK    2  A    between atoms: C_2  and  C_3
REMARK    3  A    between atoms: C_3  and  C_4
REMARK    4  A    between atoms: C_4  and  C_5
REMARK    5  A    between atoms: C_9  and  C_18
REMARK    6  A    between atoms: N_20  and  C_21
REMARK    7  A    between atoms: C_21  and  C_23
REMARK    8  A    between atoms: C_21  and  C_24
REMARK    9  A    between atoms: C_27  and  C_30
REMARK                            x       y       z     vdW  Elec       q    Type
REMARK                         _______ _______ _______ _____ _____    ______ ____
ROOT
ATOM      1  C   UNL     1      -2.514  -2.618  -0.108  0.00  0.00    +0.216 C 
ATOM      2  O   UNL     1      -3.376  -1.764  -0.133  0.00  0.00    -0.276 OA
ATOM      3  N   UNL     1      -2.857  -3.921  -0.069  0.00  0.00    -0.300 N 
ATOM      4  C   UNL     1      -1.956  -5.096  -0.029  0.00  0.00    +0.121 C 
ATOM      5  C   UNL     1      -2.641  -6.080   0.946  0.00  0.00    +0.100 C 
ATOM      6  C   UNL     1      -4.127  -5.686   0.921  0.00  0.00    -0.004 C 
ATOM      7  C   UNL     1      -4.221  -4.501  -0.051  0.00  0.00    +0.115 C 
ATOM      8  C   UNL     1      -4.583  -5.256   2.312  0.00  0.00    -0.010 C 
ATOM      9  C   UNL     1      -6.077  -4.923   2.274  0.00  0.00    -0.082 C 
ATOM     10  N   UNL     1      -6.832  -6.103   1.833  0.00  0.00    +0.379 N 
ATOM     11  C   UNL     1      -6.453  -6.454   0.459  0.00  0.00    -0.082 C 
ATOM     12  C   UNL     1      -4.975  -6.851   0.420  0.00  0.00    -0.010 C 
ATOM     13  H   UNL     1      -6.628  -6.879   2.445  0.00  0.00    -0.086 HD
ATOM     14  H   UNL     1      -7.820  -5.901   1.867  0.00  0.00    -0.086 HD
ENDROOT
BRANCH   5  15
ATOM     15  C   UNL     1      -2.077  -5.921   2.334  0.00  0.00    +0.219 C 
ATOM     16  O   UNL     1      -1.665  -4.841   2.702  0.00  0.00    -0.275 OA
ATOM     17  N   UNL     1      -2.029  -6.980   3.167  0.00  0.00    -0.308 N 
ATOM     18  H   UNL     1      -2.358  -7.843   2.873  0.00  0.00    +0.149 HD
BRANCH  17  19
ATOM     19  C   UNL     1      -1.481  -6.825   4.517  0.00  0.00    +0.100 C 
ATOM     20  C   UNL     1      -2.576  -6.320   5.458  0.00  0.00    +0.033 C 
BRANCH  19  21
ATOM     21  C   UNL     1      -0.972  -8.156   5.008  0.00  0.00    -0.027 A 
ATOM     22  C   UNL     1      -1.682  -9.311   4.736  0.00  0.00    +0.006 A 
ATOM     23  C   UNL     1      -1.215 -10.532   5.186  0.00  0.00    +0.004 A 
ATOM     24  C   UNL     1      -0.038 -10.598   5.907  0.00  0.00    -0.050 A 
ATOM     25  C   UNL     1       0.673  -9.444   6.178  0.00  0.00    +0.004 A 
ATOM     26  C   UNL     1       0.208  -8.224   5.724  0.00  0.00    +0.006 A 
ATOM     27  C   UNL     1       0.471 -11.929   6.399  0.00  0.00    +0.044 C 
ENDBRANCH  19  21
ENDBRANCH  17  19
ENDBRANCH   5  15
BRANCH   1  28
ATOM     28  C   UNL     1      -1.060  -2.221  -0.121  0.00  0.00    +0.096 C 
BRANCH  28  29
ATOM     29  C   UNL     1      -0.948  -0.696  -0.166  0.00  0.00    +0.009 C 
BRANCH  29  31
ATOM     30  C   UNL     1       0.640   1.232  -0.224  0.00  0.00    +0.004 C 
ATOM     31  C   UNL     1       0.528  -0.293  -0.179  0.00  0.00    -0.003 C 
ENDBRANCH  29  31
ENDBRANCH  28  29
ENDBRANCH   1  28
TORSDOF 6
