REMARK  Name = ZINC32052928
REMARK  8 active torsions:
REMARK  status: ('A' for Active; 'I' for Inactive)
REMARK    1  A    between atoms: C_3  and  C_10
REMARK    2  A    between atoms: C_5  and  N_7
REMARK    3  A    between atoms: C_10  and  C_12
REMARK    4  A    between atoms: C_10  and  N_14
REMARK    5  A    between atoms: C_12  and  N_13
REMARK    6  A    between atoms: N_17  and  C_20
REMARK    7  A    between atoms: C_20  and  C_21
REMARK    8  A    between atoms: C_21  and  O_22
REMARK                            x       y       z     vdW  Elec       q    Type
REMARK                         _______ _______ _______ _____ _____    ______ ____
ROOT
ATOM      1  C   UNL     1       0.657   5.976  -0.365  0.00  0.00    +0.070 C 
ENDROOT
BRANCH   1   4
ATOM      2  C   UNL     1       1.753   2.793   1.345  0.00  0.00    +0.003 A 
ATOM      3  C   UNL     1       1.040   3.936   1.034  0.00  0.00    +0.005 A 
ATOM      4  C   UNL     1       1.438   4.732  -0.023  0.00  0.00    -0.030 A 
ATOM      5  C   UNL     1       2.551   4.388  -0.767  0.00  0.00    +0.037 A 
ATOM      6  C   UNL     1       3.266   3.248  -0.454  0.00  0.00    +0.127 A 
ATOM      7  C   UNL     1       2.869   2.452   0.604  0.00  0.00    +0.033 A 
BRANCH   6   8
ATOM      8  N   UNL     1       4.458   2.880  -1.251  0.00  0.00    +0.056 N 
ATOM      9  O   UNL     1       5.088   1.875  -0.975  0.00  0.00    -0.126 OA
ATOM     10  O   UNL     1       4.808   3.581  -2.183  0.00  0.00    -0.126 OA
ENDBRANCH   6   8
ENDBRANCH   1   4
BRANCH   1  11
ATOM     11  N   UNL     1      -0.249   6.305   0.743  0.00  0.00    -0.295 NA
ATOM     12  C   UNL     1      -1.488   5.520   0.661  0.00  0.00    +0.100 C 
ATOM     13  C   UNL     1      -2.368   5.833   1.873  0.00  0.00    +0.100 C 
ATOM     14  N   UNL     1      -2.662   7.273   1.903  0.00  0.00    -0.298 NA
ATOM     15  C   UNL     1      -1.422   8.058   1.985  0.00  0.00    +0.100 C 
ATOM     16  C   UNL     1      -0.542   7.745   0.773  0.00  0.00    +0.100 C 
BRANCH  14  17
ATOM     17  C   UNL     1      -3.568   7.603   3.012  0.00  0.00    +0.112 C 
BRANCH  17  18
ATOM     18  C   UNL     1      -3.051   6.961   4.301  0.00  0.00    +0.171 C 
BRANCH  18  19
ATOM     19  O   UNL     1      -1.804   7.556   4.663  0.00  0.00    -0.394 OA
ATOM     20  H   UNL     1      -1.277   7.221   5.569  0.00  0.00    +0.209 HD
ENDBRANCH  18  19
ENDBRANCH  17  18
ENDBRANCH  14  17
ENDBRANCH   1  11
BRANCH   1  21
ATOM     21  C   UNL     1      -0.159   5.732  -1.636  0.00  0.00    -0.063 C 
BRANCH  21  22
ATOM     22  N   UNL     1      -0.938   6.936  -1.956  0.00  0.00    +0.379 N 
ATOM     23  H   UNL     1      -1.525   6.761  -2.870  0.00  0.00    -0.090 HD
ATOM     24  H   UNL     1      -0.255   7.783  -2.116  0.00  0.00    -0.090 HD
ATOM     25  H   UNL     1      -1.617   7.165  -1.122  0.00  0.00    -0.090 HD
ENDBRANCH  21  22
ENDBRANCH   1  21
TORSDOF 8
