REMARK  Name = ZINC09634934
REMARK  7 active torsions:
REMARK  status: ('A' for Active; 'I' for Inactive)
REMARK    1  A    between atoms: C_1  and  C_2
REMARK    2  A    between atoms: C_2  and  C_4
REMARK    3  A    between atoms: C_2  and  N_63
REMARK    4  A    between atoms: N_6  and  C_7
REMARK    5  A    between atoms: C_10  and  C_13
REMARK    6  A    between atoms: N_18  and  S_21
REMARK    7  A    between atoms: S_21  and  C_24
REMARK                            x       y       z     vdW  Elec       q    Type
REMARK                         _______ _______ _______ _____ _____    ______ ____
ROOT
ATOM      1  C   UNL     1       2.137   3.552   3.483  0.00  0.00    -0.060 C 
ATOM      2  C   UNL     1       2.027   4.179   2.089  0.00  0.00    +0.091 C 
ATOM      3  N   UNL     1       0.757   3.752   1.483  0.00  0.00    -0.180 NA
ATOM      4  C   UNL     1      -0.479   3.929   2.260  0.00  0.00    +0.091 C 
ATOM      5  C   UNL     1      -0.270   3.306   3.649  0.00  0.00    -0.060 C 
ATOM      6  N   UNL     1       0.933   3.911   4.262  0.00  0.00    +0.389 N 
ATOM      7  H   UNL     1       0.829   4.933   4.261  0.00  0.00    -0.081 HD
ENDROOT
BRANCH   3   8
ATOM      8  S   UNL     1       0.719   3.093  -0.036  0.00  0.00    +0.061 S 
ATOM      9  O   UNL     1       1.879   3.560  -0.710  0.00  0.00    -0.153 OA
ATOM     10  O   UNL     1      -0.593   3.308  -0.539  0.00  0.00    -0.153 OA
BRANCH   8  11
ATOM     11  C   UNL     1       0.909   1.351   0.146  0.00  0.00    +0.106 A 
ATOM     12  C   UNL     1       2.171   0.786   0.136  0.00  0.00    +0.029 A 
ATOM     13  C   UNL     1       2.312  -0.579   0.276  0.00  0.00    +0.006 A 
ATOM     14  C   UNL     1       1.195  -1.391   0.427  0.00  0.00    -0.044 A 
ATOM     15  C   UNL     1      -0.061  -0.829   0.442  0.00  0.00    -0.042 A 
ATOM     16  C   UNL     1      -0.200   0.546   0.300  0.00  0.00    +0.032 A 
ATOM     17  C   UNL     1      -1.314  -1.647   0.612  0.00  0.00    +0.035 C 
ATOM     18  C   UNL     1      -1.037  -3.121   0.323  0.00  0.00    +0.005 C 
ATOM     19  C   UNL     1       0.182  -3.554   1.147  0.00  0.00    +0.005 C 
ATOM     20  C   UNL     1       1.421  -2.874   0.567  0.00  0.00    +0.035 C 
ENDBRANCH   8  11
ENDBRANCH   3   8
BRANCH   6  22
ATOM     21  C   UNL     1       1.164   1.918   5.708  0.00  0.00    -0.004 C 
ATOM     22  C   UNL     1       1.077   3.445   5.657  0.00  0.00    +0.017 C 
BRANCH  22  23
ATOM     23  C   UNL     1      -0.118   3.907   6.450  0.00  0.00    +0.203 C 
ATOM     24  O   UNL     1      -1.000   4.537   5.907  0.00  0.00    -0.277 OA
ATOM     25  N   UNL     1      -0.206   3.619   7.764  0.00  0.00    -0.287 N 
ATOM     26  H   UNL     1       0.460   3.051   8.182  0.00  0.00    +0.155 HD
BRANCH  25  27
ATOM     27  C   UNL     1      -1.255   4.139   8.523  0.00  0.00    +0.033 A 
ATOM     28  C   UNL     1      -1.766   5.399   8.229  0.00  0.00    +0.024 A 
ATOM     29  C   UNL     1      -2.804   5.913   8.973  0.00  0.00    +0.015 A 
ATOM     30  C   UNL     1      -3.337   5.172  10.031  0.00  0.00    +0.037 A 
ATOM     31  C   UNL     1      -2.818   3.909  10.326  0.00  0.00    +0.015 A 
ATOM     32  C   UNL     1      -1.783   3.398   9.575  0.00  0.00    +0.024 A 
BRANCH  30  33
ATOM     33  C   UNL     1      -4.447   5.722  10.834  0.00  0.00    +0.242 C 
ATOM     34  O   UNL     1      -4.910   5.075  11.753  0.00  0.00    -0.270 OA
ATOM     35  N   UNL     1      -4.947   6.940  10.547  0.00  0.00    -0.325 N 
ATOM     36  H   UNL     1      -4.577   7.456   9.813  0.00  0.00    +0.145 HD
ATOM     37  H   UNL     1      -5.676   7.301  11.075  0.00  0.00    +0.145 HD
ENDBRANCH  30  33
ENDBRANCH  25  27
ENDBRANCH  22  23
ENDBRANCH   6  22
TORSDOF 6
