REMARK  Name = ZINC41514845
REMARK  7 active torsions:
REMARK  status: ('A' for Active; 'I' for Inactive)
REMARK    1  A    between atoms: C_1  and  C_2
REMARK    2  A    between atoms: C_2  and  N_3
REMARK    3  A    between atoms: N_6  and  C_9
REMARK    4  A    between atoms: C_9  and  C_10
REMARK    5  A    between atoms: C_11  and  O_30
REMARK    6  A    between atoms: C_13  and  C_29
REMARK    7  A    between atoms: C_18  and  C_19
REMARK                            x       y       z     vdW  Elec       q    Type
REMARK                         _______ _______ _______ _____ _____    ______ ____
ROOT
ATOM      1  C   UNL     1       1.453  -4.089   4.782  0.00  0.00    +0.051 A 
ATOM      2  C   UNL     1       0.376  -4.723   5.381  0.00  0.00    +0.125 A 
ATOM      3  C   UNL     1       0.292  -6.113   5.397  0.00  0.00    +0.050 A 
ATOM      4  C   UNL     1       1.275  -6.867   4.820  0.00  0.00    -0.033 A 
ATOM      5  C   UNL     1       2.364  -6.242   4.213  0.00  0.00    +0.071 A 
ATOM      6  C   UNL     1       2.457  -4.841   4.186  0.00  0.00    +0.148 A 
ATOM      7  O   UNL     1       3.587  -4.472   3.544  0.00  0.00    -0.451 OA
ATOM      8  C   UNL     1       4.293  -5.543   3.112  0.00  0.00    +0.176 C 
ATOM      9  C   UNL     1       5.470  -5.508   2.436  0.00  0.00    +0.062 C 
ATOM     10  C   UNL     1       3.561  -6.751   3.519  0.00  0.00    +0.232 C 
ATOM     11  O   UNL     1       3.868  -7.913   3.318  0.00  0.00    -0.283 OA
ATOM     12  C   UNL     1       1.182  -8.371   4.840  0.00  0.00    +0.045 C 
ENDROOT
BRANCH   9  13
ATOM     13  C   UNL     1       6.091  -4.219   2.109  0.00  0.00    +0.032 A 
ATOM     14  C   UNL     1       5.335  -3.206   1.500  0.00  0.00    +0.132 A 
ATOM     15  C   UNL     1       5.929  -1.996   1.196  0.00  0.00    +0.039 A 
ATOM     16  C   UNL     1       7.264  -1.783   1.491  0.00  0.00    +0.004 A 
ATOM     17  C   UNL     1       8.017  -2.777   2.091  0.00  0.00    +0.021 A 
ATOM     18  C   UNL     1       7.440  -3.990   2.408  0.00  0.00    +0.051 A 
ATOM     19 CL   UNL     1       8.386  -5.232   3.168  0.00  0.00    -0.083 Cl
ATOM     20  F   UNL     1       4.032  -3.413   1.211  0.00  0.00    -0.205 F 
ENDBRANCH   9  13
BRANCH   2  21
ATOM     21  O   UNL     1      -0.605  -3.983   5.958  0.00  0.00    -0.506 OA
ATOM     22  H   UNL     1      -1.327  -3.751   5.357  0.00  0.00    +0.292 HD
ENDBRANCH   2  21
BRANCH   1  23
ATOM     23  C   UNL     1       1.530  -2.584   4.772  0.00  0.00    +0.126 C 
BRANCH  23  27
ATOM     24  N   UNL     1       0.713  -0.491   1.192  0.00  0.00    +0.381 N 
ATOM     25  C   UNL     1      -0.039  -0.117   2.398  0.00  0.00    -0.063 C 
ATOM     26  C   UNL     1       0.710  -0.608   3.639  0.00  0.00    +0.066 C 
ATOM     27  N   UNL     1       0.864  -2.067   3.569  0.00  0.00    -0.301 NA
ATOM     28  C   UNL     1       1.594  -2.458   2.354  0.00  0.00    +0.066 C 
ATOM     29  C   UNL     1       0.837  -1.953   1.124  0.00  0.00    -0.063 C 
ATOM     30  H   UNL     1       1.632  -0.076   1.228  0.00  0.00    -0.082 HD
BRANCH  24  32
ATOM     31  C   UNL     1      -0.019   1.526   0.010  0.00  0.00    -0.017 C 
ATOM     32  C   UNL     1       0.002  -0.004   0.002  0.00  0.00    -0.082 C 
ENDBRANCH  24  32
ENDBRANCH  23  27
ENDBRANCH   1  23
TORSDOF 5
