REMARK  Name = ZINC13556010
REMARK  14 active torsions:
REMARK  status: ('A' for Active; 'I' for Inactive)
REMARK    1  A    between atoms: C_1  and  C_2
REMARK    2  A    between atoms: C_4  and  C_28
REMARK    3  A    between atoms: C_9  and  C_26
REMARK    4  A    between atoms: C_10  and  N_12
REMARK    5  A    between atoms: N_12  and  C_13
REMARK    6  A    between atoms: C_13  and  C_14
REMARK    7  A    between atoms: C_14  and  C_15
REMARK    8  A    between atoms: C_15  and  N_16
REMARK    9  A    between atoms: N_18  and  C_19
REMARK   10  A    between atoms: C_19  and  C_20
REMARK   11  A    between atoms: C_20  and  C_21
REMARK   12  A    between atoms: C_21  and  N_22
REMARK   13  A    between atoms: N_22  and  C_23
REMARK   14  A    between atoms: N_22  and  C_24
REMARK                            x       y       z     vdW  Elec       q    Type
REMARK                         _______ _______ _______ _____ _____    ______ ____
ROOT
ATOM      1  N   UNL     1       0.090  -6.209   0.950  0.00  0.00    -0.328 N 
ATOM      2  H   UNL     1       0.101  -6.740   1.762  0.00  0.00    +0.147 HD
ENDROOT
BRANCH   1  12
ATOM      3  C   UNL     1      -0.018   1.503   0.010  0.00  0.00    +0.044 C 
ATOM      4  C   UNL     1       0.002  -0.004   0.002  0.00  0.00    -0.050 A 
ATOM      5  C   UNL     1       0.006  -0.685  -1.213  0.00  0.00    +0.008 A 
ATOM      6  C   UNL     1       0.023  -2.046  -1.256  0.00  0.00    -0.024 A 
ATOM      7  C   UNL     1       0.039  -2.783  -0.059  0.00  0.00    +0.076 A 
ATOM      8  C   UNL     1       0.036  -2.088   1.176  0.00  0.00    +0.002 A 
ATOM      9  C   UNL     1       0.022  -0.683   1.182  0.00  0.00    +0.013 A 
ATOM     10  C   UNL     1       0.052  -2.819   2.377  0.00  0.00    +0.032 A 
ATOM     11  C   UNL     1       0.070  -4.205   2.298  0.00  0.00    +0.092 A 
ATOM     12  C   UNL     1       0.072  -4.829   1.028  0.00  0.00    +0.137 A 
ATOM     13  N   UNL     1       0.057  -4.121  -0.081  0.00  0.00    -0.231 NA
ATOM     14  C   UNL     1       0.026  -2.760  -2.583  0.00  0.00    +0.046 C 
BRANCH  11  15
ATOM     15  C   UNL     1       0.087  -4.997   3.492  0.00  0.00    +0.103 C 
ATOM     16  N   UNL     1       0.100  -5.625   4.438  0.00  0.00    -0.191 NA
ENDBRANCH  11  15
ENDBRANCH   1  12
BRANCH   1  17
ATOM     17  C   UNL     1       0.092  -6.869  -0.358  0.00  0.00    +0.104 C 
BRANCH  17  18
ATOM     18  C   UNL     1       0.114  -8.387  -0.163  0.00  0.00    +0.037 C 
BRANCH  18  19
ATOM     19  C   UNL     1       0.116  -9.076  -1.529  0.00  0.00    +0.105 C 
BRANCH  19  20
ATOM     20  N   UNL     1       0.137 -10.529  -1.342  0.00  0.00    -0.325 N 
ATOM     21  C   UNL     1       0.143 -11.357  -2.429  0.00  0.00    +0.139 C 
ATOM     22  N   UNL     1       0.162 -12.712  -2.255  0.00  0.00    -0.367 N 
ATOM     23  S   UNL     1       0.126 -10.717  -3.961  0.00  0.00    -0.016 SA
ATOM     24  H   UNL     1       0.147 -10.903  -0.447  0.00  0.00    +0.148 HD
ATOM     25  H   UNL     1       0.172 -13.086  -1.360  0.00  0.00    +0.161 HD
BRANCH  22  26
ATOM     26  C   UNL     1       0.168 -13.600  -3.420  0.00  0.00    +0.112 C 
BRANCH  26  27
ATOM     27  C   UNL     1       0.191 -15.057  -2.952  0.00  0.00    +0.002 C 
BRANCH  27  28
ATOM     28  C   UNL     1       0.197 -15.984  -4.168  0.00  0.00    -0.078 C 
BRANCH  28  29
ATOM     29  N   UNL     1       0.218 -17.382  -3.719  0.00  0.00    +0.376 N 
ATOM     30  C   UNL     1       0.104 -18.273  -4.881  0.00  0.00    -0.097 C 
ATOM     31  C   UNL     1       1.481 -17.652  -3.018  0.00  0.00    -0.097 C 
ATOM     32  H   UNL     1      -0.556 -17.546  -3.092  0.00  0.00    -0.083 HD
ENDBRANCH  28  29
ENDBRANCH  27  28
ENDBRANCH  26  27
ENDBRANCH  22  26
ENDBRANCH  19  20
ENDBRANCH  18  19
ENDBRANCH  17  18
ENDBRANCH   1  17
TORSDOF 10
