REMARK  Name = ZINC56947521
REMARK  10 active torsions:
REMARK  status: ('A' for Active; 'I' for Inactive)
REMARK    1  A    between atoms: C_1  and  C_2
REMARK    2  A    between atoms: C_5  and  C_29
REMARK    3  A    between atoms: N_8  and  C_10
REMARK    4  A    between atoms: C_10  and  C_11
REMARK    5  A    between atoms: C_11  and  C_13
REMARK    6  A    between atoms: C_11  and  N_14
REMARK    7  A    between atoms: N_17  and  C_18
REMARK    8  A    between atoms: N_17  and  C_19
REMARK    9  A    between atoms: C_19  and  C_20
REMARK   10  A    between atoms: C_24  and  C_26
REMARK                            x       y       z     vdW  Elec       q    Type
REMARK                         _______ _______ _______ _____ _____    ______ ____
ROOT
ATOM      1  N   UNL     1       2.811  -0.157   2.272  0.00  0.00    -0.298 N 
ATOM      2  C   UNL     1       3.852   0.578   1.833  0.00  0.00    +0.302 C 
ATOM      3  O   UNL     1       4.300   1.473   2.525  0.00  0.00    -0.253 OA
ATOM      4  N   UNL     1       4.398   0.322   0.627  0.00  0.00    -0.284 N 
ATOM      5  C   UNL     1       3.858  -0.755  -0.206  0.00  0.00    +0.134 C 
ATOM      6  H   UNL     1       2.454  -0.870   1.720  0.00  0.00    +0.150 HD
ENDROOT
BRANCH   1   7
ATOM      7  C   UNL     1       2.219   0.122   3.582  0.00  0.00    +0.055 C 
ATOM      8  C   UNL     1       2.982  -0.649   4.661  0.00  0.00    +0.026 C 
BRANCH   7   9
ATOM      9  C   UNL     1       0.753  -0.316   3.583  0.00  0.00    -0.057 C 
BRANCH   9  15
ATOM     10  C   UNL     1      -1.275   0.116  -0.093  0.00  0.00    +0.005 C 
ATOM     11  C   UNL     1      -2.038   0.445   1.192  0.00  0.00    -0.031 C 
ATOM     12  C   UNL     1      -2.095   1.964   1.379  0.00  0.00    +0.003 C 
ATOM     13  C   UNL     1      -0.670   2.500   1.550  0.00  0.00    -0.031 C 
ATOM     14  C   UNL     1      -0.004   1.794   2.732  0.00  0.00    -0.076 C 
ATOM     15  N   UNL     1       0.043   0.348   2.481  0.00  0.00    +0.381 N 
ATOM     16  C   UNL     1      -1.322  -0.186   2.388  0.00  0.00    -0.076 C 
ATOM     17  C   UNL     1      -0.720   4.006   1.814  0.00  0.00    +0.005 C 
ATOM     18  H   UNL     1       0.531   0.174   1.616  0.00  0.00    -0.082 HD
ENDBRANCH   9  15
ENDBRANCH   7   9
ENDBRANCH   1   7
BRANCH   4  19
ATOM     19  C   UNL     1       5.529   1.121   0.150  0.00  0.00    +0.144 C 
BRANCH  19  20
ATOM     20  C   UNL     1       6.819   0.477   0.590  0.00  0.00    -0.029 A 
ATOM     21  C   UNL     1       7.382   0.819   1.807  0.00  0.00    +0.005 A 
ATOM     22  C   UNL     1       8.565   0.232   2.218  0.00  0.00    +0.001 A 
ATOM     23  C   UNL     1       9.193  -0.698   1.415  0.00  0.00    +0.013 A 
ATOM     24  C   UNL     1       8.631  -1.047   0.186  0.00  0.00    +0.037 A 
ATOM     25  C   UNL     1       7.433  -0.456  -0.220  0.00  0.00    +0.018 A 
BRANCH  24  26
ATOM     26  C   UNL     1       9.298  -2.043  -0.679  0.00  0.00    +0.242 C 
ATOM     27  O   UNL     1       8.806  -2.345  -1.749  0.00  0.00    -0.270 OA
ATOM     28  N   UNL     1      10.451  -2.616  -0.282  0.00  0.00    -0.325 N 
ATOM     29  H   UNL     1      10.844  -2.375   0.572  0.00  0.00    +0.145 HD
ATOM     30  H   UNL     1      10.889  -3.269  -0.850  0.00  0.00    +0.145 HD
ENDBRANCH  24  26
ENDBRANCH  19  20
ENDBRANCH   4  19
TORSDOF 6
