REMARK  Name = ZINC22784387
REMARK  10 active torsions:
REMARK  status: ('A' for Active; 'I' for Inactive)
REMARK    1  A    between atoms: C_1  and  C_2
REMARK    2  A    between atoms: C_2  and  N_3
REMARK    3  A    between atoms: N_6  and  C_9
REMARK    4  A    between atoms: C_9  and  C_11
REMARK    5  A    between atoms: C_9  and  C_16
REMARK    6  A    between atoms: C_16  and  C_18
REMARK    7  A    between atoms: C_16  and  N_19
REMARK    8  A    between atoms: N_19  and  C_20
REMARK    9  A    between atoms: C_20  and  N_22
REMARK   10  A    between atoms: N_22  and  C_23
REMARK                            x       y       z     vdW  Elec       q    Type
REMARK                         _______ _______ _______ _____ _____    ______ ____
ROOT
ATOM      1  C   UNL     1       0.700   2.153   0.293  0.00  0.00    +0.113 C 
ENDROOT
BRANCH   1   5
ATOM      2  N   UNL     1       2.211   1.579   4.197  0.00  0.00    +0.381 N 
ATOM      3  C   UNL     1       0.876   1.045   3.889  0.00  0.00    -0.063 C 
ATOM      4  C   UNL     1       0.720   0.911   2.373  0.00  0.00    +0.066 C 
ATOM      5  N   UNL     1       0.916   2.225   1.745  0.00  0.00    -0.297 NA
ATOM      6  C   UNL     1       2.251   2.759   2.052  0.00  0.00    +0.066 C 
ATOM      7  C   UNL     1       2.407   2.893   3.569  0.00  0.00    -0.063 C 
ATOM      8  H   UNL     1       2.957   0.887   3.779  0.00  0.00    -0.082 HD
BRANCH   2  10
ATOM      9  C   UNL     1       3.897   1.969   5.929  0.00  0.00    -0.017 C 
ATOM     10  C   UNL     1       2.427   1.651   5.648  0.00  0.00    -0.082 C 
ENDBRANCH   2  10
ENDBRANCH   1   5
BRANCH   1  11
ATOM     11  C   UNL     1       0.974   3.500  -0.323  0.00  0.00    +0.009 A 
ATOM     12  C   UNL     1       1.652   3.797  -1.459  0.00  0.00    +0.013 A 
ATOM     13  C   UNL     1       1.779   5.121  -1.836  0.00  0.00    +0.008 A 
ATOM     14  C   UNL     1       1.222   6.083  -1.060  0.00  0.00    +0.045 A 
ATOM     15  S   UNL     1       0.483   5.119   0.248  0.00  0.00    -0.100 S 
ENDBRANCH   1  11
BRANCH   1  16
ATOM     16  C   UNL     1      -0.749   1.749   0.014  0.00  0.00    +0.091 C 
ATOM     17  C   UNL     1      -1.694   2.791   0.615  0.00  0.00    +0.030 C 
BRANCH  16  18
ATOM     18  N   UNL     1      -0.964   1.672  -1.433  0.00  0.00    -0.322 N 
ATOM     19  H   UNL     1      -0.329   2.257  -2.116  0.00  0.00    +0.148 HD
BRANCH  18  20
ATOM     20  C   UNL     1      -1.939   0.884  -1.929  0.00  0.00    +0.135 C 
ATOM     21  S   UNL     1      -2.927  -0.026  -0.868  0.00  0.00    -0.019 S 
BRANCH  20  22
ATOM     22  N   UNL     1      -2.136   0.814  -3.260  0.00  0.00    -0.297 N 
ATOM     23  H   UNL     1      -1.446   1.326  -3.947  0.00  0.00    +0.154 HD
BRANCH  22  24
ATOM     24  C   UNL     1      -3.219   0.088  -3.769  0.00  0.00    +0.033 A 
ATOM     25  C   UNL     1      -3.055  -0.709  -4.895  0.00  0.00    +0.024 A 
ATOM     26  C   UNL     1      -4.124  -1.428  -5.392  0.00  0.00    +0.017 A 
ATOM     27  C   UNL     1      -5.361  -1.346  -4.776  0.00  0.00    +0.018 A 
ATOM     28  C   UNL     1      -5.528  -0.549  -3.658  0.00  0.00    +0.017 A 
ATOM     29  C   UNL     1      -4.461   0.168  -3.154  0.00  0.00    +0.024 A 
ATOM     30 BR   UNL     1      -6.824  -2.326  -5.464  0.00  0.00    -0.050 Br
ENDBRANCH  22  24
ENDBRANCH  20  22
ENDBRANCH  18  20
ENDBRANCH  16  18
ENDBRANCH   1  16
TORSDOF 8
