REMARK  Name = ZINC49534729
REMARK  9 active torsions:
REMARK  status: ('A' for Active; 'I' for Inactive)
REMARK    1  A    between atoms: C_1  and  C_2
REMARK    2  A    between atoms: C_4  and  C_22
REMARK    3  A    between atoms: C_7  and  C_8
REMARK    4  A    between atoms: C_8  and  N_10
REMARK    5  A    between atoms: N_11  and  C_12
REMARK    6  A    between atoms: C_12  and  C_14
REMARK    7  A    between atoms: C_12  and  C_15
REMARK    8  A    between atoms: C_16  and  C_21
REMARK    9  A    between atoms: C_18  and  C_20
REMARK                            x       y       z     vdW  Elec       q    Type
REMARK                         _______ _______ _______ _____ _____    ______ ____
ROOT
ATOM      1  C   UNL     1      -0.082   1.499  -0.038  0.00  0.00    +0.044 C 
ATOM      2  C   UNL     1      -0.027  -0.006  -0.020  0.00  0.00    -0.036 A 
ATOM      3  C   UNL     1      -0.104  -0.733  -1.196  0.00  0.00    +0.025 A 
ATOM      4  C   UNL     1      -0.051  -2.114  -1.148  0.00  0.00    +0.015 A 
ATOM      5  N   UNL     1       0.073  -2.755  -0.002  0.00  0.00    -0.347 N 
ATOM      6  C   UNL     1       0.151  -2.110   1.152  0.00  0.00    +0.107 A 
ATOM      7  C   UNL     1       0.110  -0.705   1.185  0.00  0.00    +0.044 A 
ATOM      8  N   UNL     1       0.280  -2.823   2.330  0.00  0.00    -0.323 N 
ATOM      9  C   UNL     1      -0.135  -2.902  -2.430  0.00  0.00    +0.063 C 
ATOM     10  H   UNL     1       0.278  -2.357   3.181  0.00  0.00    +0.148 HD
ATOM     11  H   UNL     1       0.106  -3.724  -0.004  0.00  0.00    +0.167 HD
ENDROOT
BRANCH   7  12
ATOM     12  C   UNL     1       0.203   0.018   2.464  0.00  0.00    +0.080 C 
ATOM     13  S   UNL     1       1.719   0.591   3.016  0.00  0.00    -0.035 S 
BRANCH  12  14
ATOM     14  N   UNL     1      -0.905   0.229   3.201  0.00  0.00    -0.352 N 
ATOM     15  H   UNL     1      -1.774  -0.030   2.856  0.00  0.00    +0.143 HD
ATOM     16  H   UNL     1      -0.835   0.639   4.077  0.00  0.00    +0.143 HD
ENDBRANCH  12  14
ENDBRANCH   7  12
BRANCH   8  17
ATOM     17  C   UNL     1       0.419  -4.281   2.293  0.00  0.00    +0.107 C 
ATOM     18  C   UNL     1       1.890  -4.647   2.083  0.00  0.00    +0.033 C 
BRANCH  17  19
ATOM     19  C   UNL     1      -0.062  -4.865   3.597  0.00  0.00    +0.032 A 
ATOM     20  C   UNL     1      -0.859  -5.941   3.823  0.00  0.00    +0.051 A 
ATOM     21  N   UNL     1      -1.125  -6.233   5.080  0.00  0.00    -0.249 NA
ATOM     22  C   UNL     1      -0.642  -5.516   6.064  0.00  0.00    +0.076 A 
ATOM     23  S   UNL     1       0.263  -4.338   5.271  0.00  0.00    -0.075 S 
ATOM     24  C   UNL     1      -0.842  -5.704   7.546  0.00  0.00    +0.073 C 
ATOM     25  C   UNL     1      -1.413  -6.763   2.688  0.00  0.00    +0.066 C 
ENDBRANCH  17  19
ENDBRANCH   8  17
TORSDOF 4
