REMARK  Name = ZINC33369803
REMARK  13 active torsions:
REMARK  status: ('A' for Active; 'I' for Inactive)
REMARK    1  A    between atoms: C_1  and  C_2
REMARK    2  A    between atoms: C_2  and  C_3
REMARK    3  A    between atoms: C_2  and  C_4
REMARK    4  A    between atoms: C_2  and  C_5
REMARK    5  A    between atoms: C_5  and  C_6
REMARK    6  A    between atoms: C_6  and  C_7
REMARK    7  A    between atoms: C_6  and  C_8
REMARK    8  A    between atoms: C_6  and  N_9
REMARK    9  A    between atoms: N_9  and  C_10
REMARK   10  A    between atoms: C_11  and  C_20
REMARK   11  A    between atoms: C_23  and  O_28
REMARK   12  A    between atoms: C_24  and  O_26
REMARK   13  A    between atoms: O_26  and  C_27
REMARK                            x       y       z     vdW  Elec       q    Type
REMARK                         _______ _______ _______ _____ _____    ______ ____
ROOT
ATOM      1  C   UNL     1       2.784  -1.054  -0.744  0.00  0.00    +0.129 A 
ATOM      2  C   UNL     1       1.842  -2.051  -0.886  0.00  0.00    +0.087 A 
ATOM      3  N   UNL     1       0.666  -1.473  -1.193  0.00  0.00    -0.338 N 
ATOM      4  C   UNL     1       0.827  -0.161  -1.250  0.00  0.00    +0.117 A 
ATOM      5  N   UNL     1       2.143   0.132  -0.973  0.00  0.00    -0.288 N 
ATOM      6  C   UNL     1       2.577   1.431  -0.967  0.00  0.00    +0.109 A 
ATOM      7  C   UNL     1       1.723   2.441  -1.231  0.00  0.00    +0.035 A 
ATOM      8  C   UNL     1       0.372   2.172  -1.517  0.00  0.00    +0.020 A 
ATOM      9  C   UNL     1      -0.075   0.888  -1.527  0.00  0.00    +0.046 A 
ATOM     10 BR   UNL     1       2.344   4.226  -1.216  0.00  0.00    -0.049 Br
ATOM     11  H   UNL     1      -0.228  -2.095  -1.351  0.00  0.00    +0.167 HD
ENDROOT
BRANCH   2  12
ATOM     12  C   UNL     1       2.083  -3.505  -0.730  0.00  0.00    +0.005 A 
ATOM     13  C   UNL     1       3.299  -4.059  -1.127  0.00  0.00    +0.014 A 
ATOM     14  C   UNL     1       3.522  -5.413  -0.981  0.00  0.00    +0.050 A 
ATOM     15  C   UNL     1       2.539  -6.225  -0.438  0.00  0.00    +0.158 A 
ATOM     16  C   UNL     1       1.322  -5.679  -0.039  0.00  0.00    +0.162 A 
ATOM     17  C   UNL     1       1.095  -4.321  -0.178  0.00  0.00    +0.059 A 
BRANCH  16  18
ATOM     18  O   UNL     1       0.359  -6.478   0.494  0.00  0.00    -0.491 OA
ATOM     19  C   UNL     1      -0.865  -5.849   0.881  0.00  0.00    +0.277 C 
ENDBRANCH  16  18
BRANCH  15  20
ATOM     20  O   UNL     1       2.763  -7.559  -0.294  0.00  0.00    -0.503 OA
ATOM     21  H   UNL     1       1.984  -8.205   0.137  0.00  0.00    +0.292 HD
ENDBRANCH  15  20
ENDBRANCH   2  12
BRANCH   1  22
ATOM     22  N   UNL     1       4.133  -1.223  -0.427  0.00  0.00    -0.323 N 
ATOM     23  H   UNL     1       4.666  -2.140  -0.135  0.00  0.00    +0.148 HD
BRANCH  22  24
ATOM     24  C   UNL     1       4.860   0.050  -0.524  0.00  0.00    +0.028 C 
ATOM     25  C   UNL     1       4.562   0.705  -1.874  0.00  0.00    +0.031 C 
ATOM     26  C   UNL     1       4.412   0.980   0.605  0.00  0.00    +0.031 C 
BRANCH  24  27
ATOM     27  C   UNL     1       6.363  -0.211  -0.404  0.00  0.00    +0.031 C 
BRANCH  27  29
ATOM     28  C   UNL     1       6.921   1.730   1.066  0.00  0.00    +0.010 C 
ATOM     29  C   UNL     1       7.107   1.123  -0.326  0.00  0.00    -0.036 C 
ATOM     30  C   UNL     1       8.597   0.892  -0.587  0.00  0.00    +0.010 C 
ATOM     31  C   UNL     1       6.548   2.082  -1.380  0.00  0.00    +0.010 C 
ENDBRANCH  27  29
ENDBRANCH  24  27
ENDBRANCH  22  24
ENDBRANCH   1  22
TORSDOF 7
