REMARK  Name = ZINC24832698
REMARK  14 active torsions:
REMARK  status: ('A' for Active; 'I' for Inactive)
REMARK    1  A    between atoms: C_1  and  C_2
REMARK    2  A    between atoms: C_2  and  O_3
REMARK    3  A    between atoms: O_3  and  C_4
REMARK    4  A    between atoms: C_7  and  C_13
REMARK    5  A    between atoms: C_9  and  O_10
REMARK    6  A    between atoms: O_10  and  C_11
REMARK    7  A    between atoms: C_11  and  C_12
REMARK    8  A    between atoms: C_13  and  C_15
REMARK    9  A    between atoms: C_13  and  N_18
REMARK   10  A    between atoms: C_15  and  C_16
REMARK   11  A    between atoms: C_15  and  C_17
REMARK   12  A    between atoms: N_18  and  C_19
REMARK   13  A    between atoms: C_19  and  C_20
REMARK   14  A    between atoms: N_22  and  C_23
REMARK                            x       y       z     vdW  Elec       q    Type
REMARK                         _______ _______ _______ _____ _____    ______ ____
ROOT
ATOM      1  N   UNL     1      -3.282   4.442   6.088  0.00  0.00    +0.389 N 
ATOM      2  H   UNL     1      -3.586   3.977   7.037  0.00  0.00    -0.084 HD
ATOM      3  H   UNL     1      -2.234   4.768   6.158  0.00  0.00    -0.084 HD
ENDROOT
BRANCH   1   4
ATOM      4  C   UNL     1      -3.419   3.466   4.998  0.00  0.00    -0.038 C 
BRANCH   4   8
ATOM      5  C   UNL     1       0.113   1.062   4.793  0.00  0.00    +0.162 A 
ATOM      6  C   UNL     1      -0.418   1.415   6.023  0.00  0.00    +0.049 A 
ATOM      7  C   UNL     1      -1.560   2.192   6.087  0.00  0.00    +0.006 A 
ATOM      8  C   UNL     1      -2.175   2.619   4.924  0.00  0.00    -0.057 A 
ATOM      9  C   UNL     1      -1.647   2.275   3.693  0.00  0.00    +0.051 A 
ATOM     10  C   UNL     1      -0.506   1.492   3.623  0.00  0.00    +0.162 A 
BRANCH   5  11
ATOM     11  O   UNL     1       1.236   0.299   4.729  0.00  0.00    -0.489 OA
BRANCH  11  13
ATOM     12  C   UNL     1       3.063  -0.951   5.699  0.00  0.00    +0.048 C 
ATOM     13  C   UNL     1       1.817  -0.105   5.971  0.00  0.00    +0.226 C 
ENDBRANCH  11  13
ENDBRANCH   5  11
BRANCH  10  14
ATOM     14  O   UNL     1       0.011   1.148   2.413  0.00  0.00    -0.489 OA
BRANCH  14  15
ATOM     15  C   UNL     1      -0.677   1.624   1.254  0.00  0.00    +0.226 C 
ATOM     16  C   UNL     1       0.047   1.139  -0.004  0.00  0.00    +0.048 C 
ENDBRANCH  14  15
ENDBRANCH  10  14
ENDBRANCH   4   8
BRANCH   4  17
ATOM     17  C   UNL     1      -4.630   2.570   5.266  0.00  0.00    -0.027 C 
ATOM     18  C   UNL     1      -4.773   1.553   4.132  0.00  0.00    +0.006 C 
ATOM     19  C   UNL     1      -4.436   1.831   6.591  0.00  0.00    +0.006 C 
ENDBRANCH   4  17
ENDBRANCH   1   4
BRANCH   1  20
ATOM     20  C   UNL     1      -4.126   5.620   5.848  0.00  0.00    +0.016 C 
BRANCH  20  21
ATOM     21  C   UNL     1      -3.960   6.597   6.983  0.00  0.00    +0.200 C 
ATOM     22  O   UNL     1      -3.211   6.338   7.901  0.00  0.00    -0.278 OA
ATOM     23  N   UNL     1      -4.643   7.759   6.978  0.00  0.00    -0.286 N 
ATOM     24  H   UNL     1      -5.264   8.028   6.111  0.00  0.00    +0.155 HD
BRANCH  23  25
ATOM     25  C   UNL     1      -4.561   8.625   8.076  0.00  0.00    +0.056 A 
ATOM     26  C   UNL     1      -3.373   8.736   8.786  0.00  0.00    +0.074 A 
ATOM     27  C   UNL     1      -3.292   9.592   9.871  0.00  0.00    +0.168 A 
ATOM     28  C   UNL     1      -4.404  10.340  10.250  0.00  0.00    +0.168 A 
ATOM     29  C   UNL     1      -5.589  10.227   9.540  0.00  0.00    +0.071 A 
ATOM     30  C   UNL     1      -5.667   9.376   8.453  0.00  0.00    +0.066 A 
ATOM     31 CL   UNL     1      -7.150   9.243   7.561  0.00  0.00    -0.082 Cl
ATOM     32  O   UNL     1      -4.071  11.097  11.337  0.00  0.00    -0.453 OA
ATOM     33  C   UNL     1      -2.873  10.501  11.868  0.00  0.00    +0.466 C 
ATOM     34  O   UNL     1      -2.263   9.880  10.721  0.00  0.00    -0.453 OA
ENDBRANCH  23  25
ENDBRANCH  20  21
ENDBRANCH   1  20
TORSDOF 10
