REMARK  Name = ZINC09861461
REMARK  9 active torsions:
REMARK  status: ('A' for Active; 'I' for Inactive)
REMARK    1  A    between atoms: C_1  and  O_2
REMARK    2  A    between atoms: O_2  and  C_3
REMARK    3  A    between atoms: C_6  and  C_9
REMARK    4  A    between atoms: C_9  and  C_28
REMARK    5  A    between atoms: N_12  and  C_16
REMARK    6  A    between atoms: C_16  and  C_17
REMARK    7  A    between atoms: N_21  and  C_22
REMARK    8  A    between atoms: C_31  and  O_34
REMARK    9  A    between atoms: O_34  and  C_35
REMARK                            x       y       z     vdW  Elec       q    Type
REMARK                         _______ _______ _______ _____ _____    ______ ____
ROOT
ATOM      1  C   UNL     1       6.303   4.647  -0.877  0.00  0.00    +0.164 C 
ATOM      2  C   UNL     1       5.130   5.359  -0.233  0.00  0.00    +0.256 C 
ATOM      3  O   UNL     1       5.023   6.546  -0.015  0.00  0.00    -0.272 OA
ATOM      4  N   UNL     1       4.231   4.396   0.049  0.00  0.00    -0.216 N 
ATOM      5  C   UNL     1       4.670   3.187  -0.319  0.00  0.00    +0.310 C 
ATOM      6  O   UNL     1       4.036   2.161  -0.164  0.00  0.00    -0.252 OA
ATOM      7  N   UNL     1       5.890   3.234  -0.884  0.00  0.00    -0.278 N 
ATOM      8  H   UNL     1       6.399   2.482  -1.227  0.00  0.00    +0.152 HD
ENDROOT
BRANCH   1  12
ATOM      9  C   UNL     1       6.908   6.057  -4.866  0.00  0.00    +0.120 A 
ATOM     10  C   UNL     1       6.563   6.947  -3.860  0.00  0.00    +0.046 A 
ATOM     11  C   UNL     1       6.368   6.489  -2.571  0.00  0.00    +0.010 A 
ATOM     12  C   UNL     1       6.516   5.144  -2.284  0.00  0.00    -0.011 A 
ATOM     13  C   UNL     1       6.866   4.256  -3.284  0.00  0.00    +0.010 A 
ATOM     14  C   UNL     1       7.056   4.708  -4.576  0.00  0.00    +0.046 A 
BRANCH   9  16
ATOM     15  C   UNL     1       7.455   5.532  -7.120  0.00  0.00    +0.277 C 
ATOM     16  O   UNL     1       7.101   6.505  -6.135  0.00  0.00    -0.495 OA
ENDBRANCH   9  16
ENDBRANCH   1  12
BRANCH   1  17
ATOM     17  C   UNL     1       7.552   4.831  -0.054  0.00  0.00    -0.011 A 
ATOM     18  C   UNL     1       8.062   6.099   0.153  0.00  0.00    +0.010 A 
ATOM     19  C   UNL     1       9.203   6.270   0.912  0.00  0.00    +0.046 A 
ATOM     20  C   UNL     1       9.844   5.167   1.458  0.00  0.00    +0.120 A 
ATOM     21  C   UNL     1       9.334   3.895   1.244  0.00  0.00    +0.046 A 
ATOM     22  C   UNL     1       8.188   3.730   0.489  0.00  0.00    +0.010 A 
BRANCH  20  23
ATOM     23  O   UNL     1      10.971   5.333   2.200  0.00  0.00    -0.495 OA
ATOM     24  C   UNL     1      11.440   6.671   2.378  0.00  0.00    +0.277 C 
ENDBRANCH  20  23
ENDBRANCH   1  17
BRANCH   4  25
ATOM     25  C   UNL     1       2.934   4.641   0.686  0.00  0.00    +0.196 C 
BRANCH  25  26
ATOM     26  C   UNL     1       1.873   4.787  -0.373  0.00  0.00    +0.174 A 
ATOM     27  N   UNL     1       1.179   3.821  -0.914  0.00  0.00    -0.111 NA
ATOM     28  N   UNL     1       0.358   4.285  -1.785  0.00  0.00    -0.023 NA
ATOM     29  N   UNL     1       0.465   5.568  -1.859  0.00  0.00    -0.039 NA
ATOM     30  N   UNL     1       1.464   5.942  -0.942  0.00  0.00    -0.196 N 
BRANCH  30  31
ATOM     31  C   UNL     1       1.930   7.237  -0.673  0.00  0.00    +0.069 A 
ATOM     32  C   UNL     1       2.183   8.117  -1.716  0.00  0.00    +0.028 A 
ATOM     33  C   UNL     1       2.642   9.391  -1.448  0.00  0.00    +0.002 A 
ATOM     34  C   UNL     1       2.849   9.792  -0.140  0.00  0.00    +0.000 A 
ATOM     35  C   UNL     1       2.599   8.917   0.901  0.00  0.00    +0.002 A 
ATOM     36  C   UNL     1       2.140   7.641   0.639  0.00  0.00    +0.028 A 
ENDBRANCH  30  31
ENDBRANCH  25  26
ENDBRANCH   4  25
TORSDOF 7
