REMARK  Name = ZINC22802276
REMARK  11 active torsions:
REMARK  status: ('A' for Active; 'I' for Inactive)
REMARK    1  A    between atoms: C_1  and  N_2
REMARK    2  A    between atoms: N_5  and  S_8
REMARK    3  A    between atoms: S_8  and  C_11
REMARK    4  A    between atoms: C_14  and  N_20
REMARK    5  A    between atoms: C_15  and  N_17
REMARK    6  A    between atoms: N_20  and  C_21
REMARK    7  A    between atoms: C_21  and  C_22
REMARK    8  A    between atoms: C_22  and  C_23
REMARK    9  A    between atoms: C_23  and  C_24
REMARK   10  A    between atoms: C_25  and  C_31
REMARK   11  A    between atoms: C_26  and  N_30
REMARK                            x       y       z     vdW  Elec       q    Type
REMARK                         _______ _______ _______ _____ _____    ______ ____
ROOT
ATOM      1  C   UNL     1       2.384   0.011   0.031  0.00  0.00    +0.108 A 
ATOM      2  C   UNL     1       1.203  -0.656  -0.237  0.00  0.00    +0.030 A 
ATOM      3  C   UNL     1       0.010   0.037  -0.275  0.00  0.00    +0.027 A 
ATOM      4  C   UNL     1      -0.004   1.407  -0.043  0.00  0.00    +0.058 A 
ATOM      5  C   UNL     1       1.184   2.074   0.227  0.00  0.00    +0.149 A 
ATOM      6  C   UNL     1       2.375   1.374   0.263  0.00  0.00    +0.063 A 
ENDROOT
BRANCH   1   7
ATOM      7  S   UNL     1       3.905  -0.877   0.078  0.00  0.00    +0.061 S 
ATOM      8  O   UNL     1       4.794  -0.119   0.887  0.00  0.00    -0.153 OA
ATOM      9  O   UNL     1       3.577  -2.229   0.367  0.00  0.00    -0.153 OA
BRANCH   7  14
ATOM     10  C   UNL     1       4.393   0.217  -5.510  0.00  0.00    -0.096 C 
ATOM     11  N   UNL     1       4.731  -0.305  -4.179  0.00  0.00    +0.380 N 
ATOM     12  C   UNL     1       4.905   0.787  -3.213  0.00  0.00    -0.062 C 
ATOM     13  C   UNL     1       5.431   0.217  -1.891  0.00  0.00    +0.091 C 
ATOM     14  N   UNL     1       4.530  -0.860  -1.456  0.00  0.00    -0.180 NA
ATOM     15  C   UNL     1       4.203  -1.925  -2.416  0.00  0.00    +0.091 C 
ATOM     16  C   UNL     1       3.720  -1.267  -3.719  0.00  0.00    -0.062 C 
ATOM     17  H   UNL     1       5.690  -0.839  -4.257  0.00  0.00    -0.082 HD
ENDBRANCH   7  14
ENDBRANCH   1   7
BRANCH   5  18
ATOM     18  N   UNL     1       1.175   3.533   0.475  0.00  0.00    +0.058 N 
ATOM     19  O   UNL     1       2.083   4.228   0.056  0.00  0.00    -0.126 OA
ATOM     20  O   UNL     1       0.258   4.039   1.097  0.00  0.00    -0.126 OA
ENDBRANCH   5  18
BRANCH   4  21
ATOM     21  N   UNL     1      -1.208   2.112  -0.086  0.00  0.00    -0.342 N 
ATOM     22  H   UNL     1      -1.207   3.209   0.002  0.00  0.00    +0.146 HD
BRANCH  21  23
ATOM     23  C   UNL     1      -2.474   1.392  -0.248  0.00  0.00    +0.102 C 
BRANCH  23  24
ATOM     24  C   UNL     1      -3.631   2.392  -0.264  0.00  0.00    +0.025 C 
BRANCH  24  25
ATOM     25  C   UNL     1      -4.953   1.640  -0.434  0.00  0.00    +0.060 C 
BRANCH  25  26
ATOM     26  C   UNL     1      -6.093   2.625  -0.449  0.00  0.00    +0.082 A 
ATOM     27  C   UNL     1      -6.627   3.258  -1.596  0.00  0.00    +0.113 A 
ATOM     28  C   UNL     1      -7.661   4.082  -1.162  0.00  0.00    +0.129 A 
ATOM     29  N   UNL     1      -7.740   3.947   0.178  0.00  0.00    -0.263 N 
ATOM     30  H   UNL     1      -8.494   4.515   0.745  0.00  0.00    +0.190 HD
ATOM     31  N   UNL     1      -6.762   3.036   0.591  0.00  0.00    -0.176 NA
BRANCH  28  32
ATOM     32  N   UNL     1      -8.456   4.888  -1.954  0.00  0.00    -0.342 N 
ATOM     33  H   UNL     1      -9.248   5.500  -1.497  0.00  0.00    +0.144 HD
ATOM     34  H   UNL     1      -8.298   4.917  -3.042  0.00  0.00    +0.144 HD
ENDBRANCH  28  32
BRANCH  27  35
ATOM     35  C   UNL     1      -6.186   3.084  -2.947  0.00  0.00    +0.104 C 
ATOM     36  N   UNL     1      -5.837   2.946  -4.020  0.00  0.00    -0.191 NA
ENDBRANCH  27  35
ENDBRANCH  25  26
ENDBRANCH  24  25
ENDBRANCH  23  24
ENDBRANCH  21  23
ENDBRANCH   4  21
TORSDOF 10
