REMARK  Name = ZINC05937086
REMARK  8 active torsions:
REMARK  status: ('A' for Active; 'I' for Inactive)
REMARK    1  A    between atoms: C_1  and  C_2
REMARK    2  A    between atoms: C_5  and  N_9
REMARK    3  A    between atoms: N_9  and  C_10
REMARK    4  A    between atoms: C_10  and  N_12
REMARK    5  A    between atoms: N_12  and  C_13
REMARK    6  A    between atoms: C_13  and  C_14
REMARK    7  A    between atoms: C_14  and  C_16
REMARK    8  A    between atoms: C_14  and  N_46
REMARK                            x       y       z     vdW  Elec       q    Type
REMARK                         _______ _______ _______ _____ _____    ______ ____
ROOT
ATOM      1  N   UNL     1      -6.155   2.239  -1.128  0.00  0.00    -0.327 N 
ATOM      2  H   UNL     1      -6.869   2.391  -1.766  0.00  0.00    +0.148 HD
ENDROOT
BRANCH   1   3
ATOM      3  C   UNL     1      -5.125   1.431  -1.448  0.00  0.00    +0.134 C 
ATOM      4  S   UNL     1      -3.865   1.163  -0.321  0.00  0.00    -0.019 S 
BRANCH   3   5
ATOM      5  N   UNL     1      -5.088   0.833  -2.655  0.00  0.00    -0.297 N 
ATOM      6  H   UNL     1      -5.758   1.048  -3.324  0.00  0.00    +0.154 HD
BRANCH   5  11
ATOM      7  C   UNL     1      -1.014  -2.938  -3.827  0.00  0.00    +0.045 C 
ATOM      8  C   UNL     1      -2.096  -1.936  -3.516  0.00  0.00    -0.032 A 
ATOM      9  C   UNL     1      -2.704  -1.940  -2.274  0.00  0.00    +0.006 A 
ATOM     10  C   UNL     1      -3.700  -1.027  -1.988  0.00  0.00    +0.023 A 
ATOM     11  C   UNL     1      -4.084  -0.096  -2.945  0.00  0.00    +0.034 A 
ATOM     12  C   UNL     1      -3.473  -0.095  -4.192  0.00  0.00    +0.043 A 
ATOM     13  C   UNL     1      -2.481  -1.015  -4.475  0.00  0.00    +0.046 A 
ATOM     14 CL   UNL     1      -1.716  -1.014  -6.033  0.00  0.00    -0.083 Cl
ENDBRANCH   5  11
ENDBRANCH   3   5
ENDBRANCH   1   3
BRANCH   1  15
ATOM     15  C   UNL     1      -6.196   2.889   0.185  0.00  0.00    +0.095 C 
BRANCH  15  16
ATOM     16  C   UNL     1      -7.518   3.642   0.341  0.00  0.00    +0.016 C 
BRANCH  16  21
ATOM     17  C   UNL     1      -6.383   5.382   1.610  0.00  0.00    -0.078 C 
ATOM     18  C   UNL     1      -6.820   6.406   2.687  0.00  0.00    -0.020 C 
ATOM     19  C   UNL     1      -8.347   6.508   2.468  0.00  0.00    -0.020 C 
ATOM     20  C   UNL     1      -8.737   5.205   1.745  0.00  0.00    -0.078 C 
ATOM     21  N   UNL     1      -7.504   4.429   1.610  0.00  0.00    +0.387 N 
ATOM     22  H   UNL     1      -7.412   3.785   2.405  0.00  0.00    -0.081 HD
ENDBRANCH  16  21
BRANCH  16  23
ATOM     23  C   UNL     1      -8.658   2.656   0.367  0.00  0.00    +0.093 A 
ATOM     24  C   UNL     1      -9.465   2.358  -0.667  0.00  0.00    +0.043 A 
ATOM     25  C   UNL     1     -10.385   1.390  -0.203  0.00  0.00    +0.041 A 
ATOM     26  C   UNL     1     -10.090   1.160   1.089  0.00  0.00    +0.195 A 
ATOM     27  O   UNL     1      -9.043   1.929   1.429  0.00  0.00    -0.469 OA
ENDBRANCH  16  23
ENDBRANCH  15  16
ENDBRANCH   1  15
TORSDOF 7
