REMARK  Name = ZINC04730001
REMARK  8 active torsions:
REMARK  status: ('A' for Active; 'I' for Inactive)
REMARK    1  A    between atoms: C_1  and  C_2
REMARK    2  A    between atoms: C_2  and  C_3
REMARK    3  A    between atoms: C_2  and  C_4
REMARK    4  A    between atoms: C_6  and  C_18
REMARK    5  A    between atoms: C_9  and  C_11
REMARK    6  A    between atoms: C_22  and  O_25
REMARK    7  A    between atoms: C_23  and  O_24
REMARK    8  A    between atoms: O_25  and  C_26
REMARK                            x       y       z     vdW  Elec       q    Type
REMARK                         _______ _______ _______ _____ _____    ______ ____
ROOT
ATOM      1  C   UNL     1       1.423   1.615  -0.003  0.00  0.00    +0.053 C 
ATOM      2  C   UNL     1       3.536   1.475  -1.158  0.00  0.00    -0.028 C 
ATOM      3  C   UNL     1       4.170   0.628  -0.050  0.00  0.00    +0.044 C 
ATOM      4  C   UNL     1       3.323   0.709   1.190  0.00  0.00    +0.040 C 
ATOM      5  N   UNL     1       2.119   1.141   1.187  0.00  0.00    -0.303 NA
ATOM      6  N   UNL     1       2.098   1.148  -1.223  0.00  0.00    +0.399 N 
ATOM      7  H   UNL     1       1.681   1.608  -2.041  0.00  0.00    -0.082 HD
ATOM      8  H   UNL     1       1.984   0.131  -1.307  0.00  0.00    -0.082 HD
ENDROOT
BRANCH   4   9
ATOM      9  C   UNL     1       3.909   0.269   2.471  0.00  0.00    -0.004 A 
ATOM     10  C   UNL     1       5.218  -0.215   2.514  0.00  0.00    +0.011 A 
ATOM     11  C   UNL     1       5.762  -0.620   3.715  0.00  0.00    +0.020 A 
ATOM     12  C   UNL     1       5.008  -0.559   4.875  0.00  0.00    +0.041 A 
ATOM     13  C   UNL     1       3.707  -0.086   4.838  0.00  0.00    +0.020 A 
ATOM     14  C   UNL     1       3.154   0.328   3.644  0.00  0.00    +0.011 A 
ATOM     15 CL   UNL     1       5.697  -1.077   6.382  0.00  0.00    -0.084 Cl
ENDBRANCH   4   9
BRANCH   2  16
ATOM     16  C   UNL     1       4.187   1.156  -2.478  0.00  0.00    -0.016 A 
ATOM     17  C   UNL     1       3.563   0.301  -3.368  0.00  0.00    +0.006 A 
ATOM     18  C   UNL     1       4.158   0.006  -4.580  0.00  0.00    +0.004 A 
ATOM     19  C   UNL     1       5.380   0.564  -4.909  0.00  0.00    +0.049 A 
ATOM     20  C   UNL     1       6.010   1.421  -4.022  0.00  0.00    +0.161 A 
ATOM     21  C   UNL     1       5.409   1.723  -2.803  0.00  0.00    +0.160 A 
BRANCH  21  22
ATOM     22  O   UNL     1       6.021   2.568  -1.932  0.00  0.00    -0.503 OA
ATOM     23  H   UNL     1       6.615   2.128  -1.308  0.00  0.00    +0.292 HD
ENDBRANCH  21  22
BRANCH  20  24
ATOM     24  O   UNL     1       7.212   1.971  -4.343  0.00  0.00    -0.491 OA
ATOM     25  C   UNL     1       7.766   1.622  -5.613  0.00  0.00    +0.277 C 
ENDBRANCH  20  24
ENDBRANCH   2  16
BRANCH   1  27
ATOM     26  C   UNL     1      -0.753   1.593  -1.232  0.00  0.00    +0.007 C 
ATOM     27  C   UNL     1      -0.013   1.086   0.008  0.00  0.00    -0.010 C 
ATOM     28  C   UNL     1      -0.729   1.579   1.267  0.00  0.00    +0.007 C 
ENDBRANCH   1  27
TORSDOF 5
