REMARK  Name = ZINC16319501
REMARK  7 active torsions:
REMARK  status: ('A' for Active; 'I' for Inactive)
REMARK    1  A    between atoms: C_1  and  C_2
REMARK    2  A    between atoms: C_5  and  C_8
REMARK    3  A    between atoms: N_9  and  C_10
REMARK    4  A    between atoms: C_10  and  C_11
REMARK    5  A    between atoms: N_17  and  C_18
REMARK    6  A    between atoms: C_18  and  N_20
REMARK    7  A    between atoms: N_20  and  C_21
REMARK                            x       y       z     vdW  Elec       q    Type
REMARK                         _______ _______ _______ _____ _____    ______ ____
ROOT
ATOM      1  C   UNL     1      -0.783  -3.760  -0.897  0.00  0.00    +0.105 C 
ATOM      2  N   UNL     1      -1.195  -4.239   0.241  0.00  0.00    -0.368 N 
ATOM      3  N   UNL     1      -0.116  -4.579  -1.791  0.00  0.00    -0.283 N 
ATOM      4  H   UNL     1       0.538  -4.201  -2.399  0.00  0.00    +0.155 HD
ATOM      5  H   UNL     1      -0.864  -5.095   0.555  0.00  0.00    +0.161 HD
ENDROOT
BRANCH   1  10
ATOM      6  C   UNL     1      -1.739   1.762  -2.211  0.00  0.00    +0.044 C 
ATOM      7  C   UNL     1      -1.488   0.316  -1.867  0.00  0.00    -0.050 A 
ATOM      8  C   UNL     1      -1.768  -0.671  -2.795  0.00  0.00    +0.004 A 
ATOM      9  C   UNL     1      -1.541  -1.996  -2.486  0.00  0.00    +0.011 A 
ATOM     10  C   UNL     1      -1.028  -2.340  -1.235  0.00  0.00    +0.013 A 
ATOM     11  C   UNL     1      -0.747  -1.340  -0.304  0.00  0.00    +0.011 A 
ATOM     12  C   UNL     1      -0.973  -0.018  -0.627  0.00  0.00    +0.004 A 
ENDBRANCH   1  10
BRANCH   3  13
ATOM     13  C   UNL     1      -0.375  -5.901  -1.816  0.00  0.00    +0.140 C 
ATOM     14  S   UNL     1      -1.606  -6.551  -0.820  0.00  0.00    -0.018 S 
BRANCH  13  15
ATOM     15  N   UNL     1       0.335  -6.711  -2.626  0.00  0.00    -0.297 N 
ATOM     16  H   UNL     1       1.091  -6.360  -3.122  0.00  0.00    +0.154 HD
BRANCH  15  17
ATOM     17  C   UNL     1      -0.018  -8.059  -2.751  0.00  0.00    +0.033 A 
ATOM     18  C   UNL     1      -1.356  -8.426  -2.805  0.00  0.00    +0.025 A 
ATOM     19  C   UNL     1      -1.702  -9.757  -2.929  0.00  0.00    +0.022 A 
ATOM     20  C   UNL     1      -0.716 -10.726  -2.999  0.00  0.00    +0.041 A 
ATOM     21  C   UNL     1       0.618 -10.363  -2.945  0.00  0.00    +0.022 A 
ATOM     22  C   UNL     1       0.970  -9.033  -2.827  0.00  0.00    +0.025 A 
ATOM     23 CL   UNL     1      -1.154 -12.398  -3.154  0.00  0.00    -0.084 Cl
ENDBRANCH  15  17
ENDBRANCH  13  15
ENDBRANCH   3  13
BRANCH   2  24
ATOM     24  C   UNL     1      -2.158  -3.485   1.047  0.00  0.00    +0.149 C 
BRANCH  24  25
ATOM     25  C   UNL     1      -2.662  -4.354   2.170  0.00  0.00    -0.028 A 
ATOM     26  C   UNL     1      -3.780  -5.145   1.984  0.00  0.00    +0.005 A 
ATOM     27  C   UNL     1      -4.242  -5.942   3.014  0.00  0.00    +0.000 A 
ATOM     28  C   UNL     1      -3.586  -5.948   4.231  0.00  0.00    +0.000 A 
ATOM     29  C   UNL     1      -2.468  -5.158   4.417  0.00  0.00    +0.000 A 
ATOM     30  C   UNL     1      -2.003  -4.364   3.385  0.00  0.00    +0.005 A 
ENDBRANCH  24  25
ENDBRANCH   2  24
TORSDOF 6
