REMARK  Name = ZINC09330996
REMARK  8 active torsions:
REMARK  status: ('A' for Active; 'I' for Inactive)
REMARK    1  A    between atoms: C_1  and  C_2
REMARK    2  A    between atoms: C_2  and  O_4
REMARK    3  A    between atoms: O_4  and  C_5
REMARK    4  A    between atoms: C_8  and  N_11
REMARK    5  A    between atoms: C_26  and  C_32
REMARK    6  A    between atoms: N_34  and  C_35
REMARK    7  A    between atoms: C_38  and  O_41
REMARK    8  A    between atoms: O_41  and  C_42
REMARK                            x       y       z     vdW  Elec       q    Type
REMARK                         _______ _______ _______ _____ _____    ______ ____
ROOT
ATOM      1  N   UNL     1       3.564   2.167  -1.462  0.00  0.00    -0.210 N 
ATOM      2  C   UNL     1       3.498   0.795  -1.418  0.00  0.00    +0.232 C 
ATOM      3  O   UNL     1       4.400   0.002  -1.585  0.00  0.00    -0.274 OA
ATOM      4  C   UNL     1       2.104   0.508  -1.126  0.00  0.00    +0.113 C 
ATOM      5  C   UNL     1       1.225  -0.535  -0.692  0.00  0.00    +0.100 C 
ATOM      6  C   UNL     1       0.826  -1.710  -1.488  0.00  0.00    -0.021 A 
ATOM      7  C   UNL     1       1.618  -2.210  -2.501  0.00  0.00    +0.006 A 
ATOM      8  C   UNL     1       1.224  -3.327  -3.215  0.00  0.00    +0.000 A 
ATOM      9  C   UNL     1       0.028  -3.957  -2.922  0.00  0.00    +0.001 A 
ATOM     10  C   UNL     1      -0.781  -3.469  -1.918  0.00  0.00    +0.008 A 
ATOM     11  C   UNL     1      -0.396  -2.340  -1.194  0.00  0.00    -0.019 A 
ATOM     12  C   UNL     1      -1.270  -1.813  -0.129  0.00  0.00    +0.022 C 
ATOM     13  C   UNL     1      -1.030  -0.611   0.426  0.00  0.00    +0.054 C 
ATOM     14  C   UNL     1       0.257   1.569  -0.121  0.00  0.00    +0.156 C 
ATOM     15  C   UNL     1       1.779   1.689  -0.117  0.00  0.00    +0.118 C 
ATOM     16  C   UNL     1       2.478   2.764  -0.883  0.00  0.00    +0.232 C 
ATOM     17  O   UNL     1       2.151   3.928  -0.973  0.00  0.00    -0.274 OA
ATOM     18  N   UNL     1       0.306   0.100   0.202  0.00  0.00    -0.383 NA
ATOM     19  H   UNL     1       0.763   0.048   1.120  0.00  0.00    +0.127 HD
ENDROOT
BRANCH   1  23
ATOM     20  C   UNL     1       6.729   4.279  -3.171  0.00  0.00    +0.132 A 
ATOM     21  C   UNL     1       5.664   4.964  -2.605  0.00  0.00    +0.048 A 
ATOM     22  C   UNL     1       4.616   4.266  -2.039  0.00  0.00    +0.027 A 
ATOM     23  C   UNL     1       4.628   2.877  -2.037  0.00  0.00    +0.044 A 
ATOM     24  C   UNL     1       5.697   2.192  -2.599  0.00  0.00    +0.027 A 
ATOM     25  C   UNL     1       6.742   2.891  -3.169  0.00  0.00    +0.048 A 
BRANCH  20  26
ATOM     26  O   UNL     1       7.761   4.967  -3.728  0.00  0.00    -0.426 OA
BRANCH  26  28
ATOM     27  C   UNL     1       9.609   6.582  -3.459  0.00  0.00    +0.136 C 
ATOM     28  C   UNL     1       8.522   5.701  -2.900  0.00  0.00    +0.309 C 
ATOM     29  O   UNL     1       8.334   5.655  -1.708  0.00  0.00    -0.251 OA
ENDBRANCH  26  28
ENDBRANCH  20  26
ENDBRANCH   1  23
BRANCH  14  30
ATOM     30  C   UNL     1      -0.322   2.136  -1.391  0.00  0.00    +0.237 C 
ATOM     31  O   UNL     1      -0.558   1.405  -2.330  0.00  0.00    -0.273 OA
ATOM     32  N   UNL     1      -0.577   3.457  -1.485  0.00  0.00    -0.284 N 
ATOM     33  H   UNL     1      -0.332   4.051  -0.758  0.00  0.00    +0.155 HD
BRANCH  32  34
ATOM     34  C   UNL     1      -1.195   3.971  -2.632  0.00  0.00    +0.034 A 
ATOM     35  C   UNL     1      -0.912   3.425  -3.877  0.00  0.00    +0.027 A 
ATOM     36  C   UNL     1      -1.526   3.929  -5.007  0.00  0.00    +0.047 A 
ATOM     37  C   UNL     1      -2.416   4.988  -4.900  0.00  0.00    +0.120 A 
ATOM     38  C   UNL     1      -2.695   5.537  -3.657  0.00  0.00    +0.047 A 
ATOM     39  C   UNL     1      -2.086   5.030  -2.525  0.00  0.00    +0.027 A 
BRANCH  37  40
ATOM     40  O   UNL     1      -3.015   5.487  -6.013  0.00  0.00    -0.495 OA
ATOM     41  C   UNL     1      -2.682   4.874  -7.260  0.00  0.00    +0.277 C 
ENDBRANCH  37  40
ENDBRANCH  32  34
ENDBRANCH  14  30
TORSDOF 6
