REMARK  Name = ZINC13549468
REMARK  1 active torsions:
REMARK  status: ('A' for Active; 'I' for Inactive)
REMARK    1  A    between atoms: C_6  and  N_7
REMARK                            x       y       z     vdW  Elec       q    Type
REMARK                         _______ _______ _______ _____ _____    ______ ____
ROOT
ATOM      1  N   UNL     1       0.042  -2.763  -0.035  0.00  0.00    -0.328 N 
ATOM      2  C   UNL     1      -1.159  -2.100   0.080  0.00  0.00    +0.180 C 
ATOM      3  N   UNL     1      -1.186  -0.797   0.083  0.00  0.00    -0.371 N 
ATOM      4  N   UNL     1      -2.334  -2.814   0.193  0.00  0.00    -0.298 N 
ATOM      5  C   UNL     1      -2.318  -4.184   0.083  0.00  0.00    +0.212 A 
ATOM      6  N   UNL     1      -1.165  -4.813  -0.001  0.00  0.00    -0.175 NA
ATOM      7  C   UNL     1      -1.121  -6.148  -0.108  0.00  0.00    +0.278 A 
ATOM      8  O   UNL     1      -0.047  -6.723  -0.185  0.00  0.00    -0.265 OA
ATOM      9  C   UNL     1      -2.332  -6.890  -0.131  0.00  0.00    +0.038 A 
ATOM     10  C   UNL     1      -3.504  -6.228  -0.044  0.00  0.00    +0.027 A 
ATOM     11  N   UNL     1      -3.493  -4.866   0.070  0.00  0.00    -0.329 N 
ATOM     12  C   UNL     1      -4.660  -7.202  -0.087  0.00  0.00    +0.054 C 
ATOM     13  C   UNL     1      -4.060  -8.512  -0.644  0.00  0.00    +0.011 C 
ATOM     14  C   UNL     1      -2.575  -8.378  -0.243  0.00  0.00    +0.043 C 
ATOM     15  H   UNL     1       0.055  -3.727  -0.138  0.00  0.00    +0.169 HD
ATOM     16  H   UNL     1      -2.018  -0.330   0.253  0.00  0.00    +0.159 HD
ATOM     17  H   UNL     1      -0.373  -0.295  -0.085  0.00  0.00    +0.159 HD
ATOM     18  H   UNL     1      -3.171  -2.350   0.348  0.00  0.00    +0.172 HD
ATOM     19  H   UNL     1      -4.330  -4.382   0.138  0.00  0.00    +0.168 HD
ENDROOT
BRANCH   1  25
ATOM     20  C   UNL     1       2.290  -2.404  -0.841  0.00  0.00    +0.028 A 
ATOM     21  C   UNL     1       3.475  -1.695  -0.807  0.00  0.00    +0.040 A 
ATOM     22  C   UNL     1       3.619  -0.627   0.062  0.00  0.00    +0.124 A 
ATOM     23  C   UNL     1       2.577  -0.268   0.900  0.00  0.00    +0.040 A 
ATOM     24  C   UNL     1       1.390  -0.974   0.869  0.00  0.00    +0.028 A 
ATOM     25  C   UNL     1       1.243  -2.046  -0.002  0.00  0.00    +0.042 A 
ATOM     26  F   UNL     1       4.779   0.065   0.093  0.00  0.00    -0.205 F 
ENDBRANCH   1  25
TORSDOF 1
