REMARK  Name = ZINC16423900
REMARK  11 active torsions:
REMARK  status: ('A' for Active; 'I' for Inactive)
REMARK    1  A    between atoms: C_1  and  C_2
REMARK    2  A    between atoms: C_2  and  C_3
REMARK    3  A    between atoms: C_3  and  C_4
REMARK    4  A    between atoms: C_4  and  C_5
REMARK    5  A    between atoms: C_5  and  C_6
REMARK    6  A    between atoms: C_6  and  N_55
REMARK    7  A    between atoms: C_7  and  C_9
REMARK    8  A    between atoms: C_7  and  C_11
REMARK    9  A    between atoms: C_7  and  N_55
REMARK   10  A    between atoms: C_9  and  C_10
REMARK   11  A    between atoms: N_21  and  C_22
REMARK                            x       y       z     vdW  Elec       q    Type
REMARK                         _______ _______ _______ _____ _____    ______ ____
ROOT
ATOM      1  C   UNL     1       0.578   1.291   2.017  0.00  0.00    +0.103 A 
ATOM      2  N   UNL     1       0.776   0.120   2.543  0.00  0.00    -0.235 NA
ATOM      3  C   UNL     1       1.220  -0.021   3.817  0.00  0.00    +0.078 A 
ATOM      4  C   UNL     1       1.438  -1.279   4.381  0.00  0.00    +0.028 A 
ATOM      5  C   UNL     1       1.883  -1.377   5.680  0.00  0.00    +0.002 A 
ATOM      6  C   UNL     1       2.120  -0.237   6.438  0.00  0.00    +0.001 A 
ATOM      7  C   UNL     1       1.913   1.016   5.904  0.00  0.00    +0.015 A 
ATOM      8  C   UNL     1       1.462   1.136   4.591  0.00  0.00    +0.065 A 
ATOM      9  C   UNL     1       1.223   2.446   3.968  0.00  0.00    +0.266 A 
ATOM     10  O   UNL     1       1.411   3.481   4.580  0.00  0.00    -0.267 OA
ATOM     11  N   UNL     1       0.785   2.457   2.687  0.00  0.00    -0.266 N 
ENDROOT
BRANCH  11  12
ATOM     12  C   UNL     1       0.542   3.678   2.047  0.00  0.00    +0.051 A 
ATOM     13  C   UNL     1      -0.720   4.255   2.104  0.00  0.00    +0.027 A 
ATOM     14  C   UNL     1      -0.955   5.462   1.476  0.00  0.00    +0.017 A 
ATOM     15  C   UNL     1       0.062   6.092   0.781  0.00  0.00    +0.018 A 
ATOM     16  C   UNL     1       1.319   5.517   0.718  0.00  0.00    +0.017 A 
ATOM     17  C   UNL     1       1.561   4.313   1.349  0.00  0.00    +0.027 A 
ATOM     18 BR   UNL     1      -0.266   7.741  -0.084  0.00  0.00    -0.050 Br
ENDBRANCH  11  12
BRANCH   1  19
ATOM     19  C   UNL     1       0.089   1.362   0.593  0.00  0.00    -0.004 C 
BRANCH  19  20
ATOM     20  N   UNL     1      -0.856   0.258   0.342  0.00  0.00    +0.386 N 
ATOM     21  H   UNL     1      -0.846   0.024  -0.658  0.00  0.00    -0.085 HD
ATOM     22  H   UNL     1      -0.572  -0.563   0.889  0.00  0.00    -0.085 HD
BRANCH  20  23
ATOM     23  C   UNL     1      -2.222   0.654   0.734  0.00  0.00    -0.082 C 
BRANCH  23  24
ATOM     24  C   UNL     1      -3.195  -0.468   0.366  0.00  0.00    -0.019 C 
BRANCH  24  25
ATOM     25  C   UNL     1      -4.619  -0.051   0.739  0.00  0.00    -0.002 C 
BRANCH  25  26
ATOM     26  C   UNL     1      -5.592  -1.173   0.372  0.00  0.00    -0.000 C 
BRANCH  26  28
ATOM     27  C   UNL     1      -7.989  -1.878   0.377  0.00  0.00    +0.004 C 
ATOM     28  C   UNL     1      -7.016  -0.756   0.745  0.00  0.00    -0.003 C 
ENDBRANCH  26  28
ENDBRANCH  25  26
ENDBRANCH  24  25
ENDBRANCH  23  24
ENDBRANCH  20  23
ENDBRANCH  19  20
BRANCH  19  29
ATOM     29  C   UNL     1       1.278   1.232  -0.362  0.00  0.00    -0.012 C 
ATOM     30  C   UNL     1       0.795   1.403  -1.803  0.00  0.00    +0.002 C 
ENDBRANCH  19  29
ENDBRANCH   1  19
TORSDOF 9
