REMARK  Name = ZINC21262954
REMARK  14 active torsions:
REMARK  status: ('A' for Active; 'I' for Inactive)
REMARK    1  A    between atoms: C_1  and  C_2
REMARK    2  A    between atoms: C_2  and  O_3
REMARK    3  A    between atoms: O_3  and  C_4
REMARK    4  A    between atoms: C_7  and  C_10
REMARK    5  A    between atoms: C_10  and  N_11
REMARK    6  A    between atoms: N_11  and  C_12
REMARK    7  A    between atoms: N_11  and  C_18
REMARK    8  A    between atoms: C_12  and  C_13
REMARK    9  A    between atoms: C_18  and  N_20
REMARK   10  A    between atoms: N_20  and  C_21
REMARK   11  A    between atoms: C_23  and  C_29
REMARK   12  A    between atoms: C_23  and  C_30
REMARK   13  A    between atoms: C_25  and  C_27
REMARK   14  A    between atoms: C_25  and  C_28
REMARK                            x       y       z     vdW  Elec       q    Type
REMARK                         _______ _______ _______ _____ _____    ______ ____
ROOT
ATOM      1  N   UNL     1       1.218  -2.668  -1.405  0.00  0.00    -0.301 N 
ENDROOT
BRANCH   1   2
ATOM      2  C   UNL     1       0.047  -2.903  -2.030  0.00  0.00    +0.134 C 
ATOM      3  S   UNL     1      -1.431  -2.639  -1.207  0.00  0.00    -0.019 S 
BRANCH   2   4
ATOM      4  N   UNL     1       0.040  -3.346  -3.303  0.00  0.00    -0.324 N 
ATOM      5  H   UNL     1       0.990  -3.516  -3.831  0.00  0.00    +0.148 HD
BRANCH   4   6
ATOM      6  C   UNL     1      -1.235  -3.602  -3.984  0.00  0.00    +0.069 C 
ATOM      7  C   UNL     1      -1.696  -5.025  -3.670  0.00  0.00    +0.009 C 
ATOM      8  C   UNL     1      -3.012  -5.327  -4.384  0.00  0.00    -0.072 C 
ATOM      9  N   UNL     1      -2.984  -4.983  -5.790  0.00  0.00    +0.386 N 
ATOM     10  C   UNL     1      -2.340  -3.763  -6.230  0.00  0.00    -0.072 C 
ATOM     11  C   UNL     1      -1.033  -3.479  -5.494  0.00  0.00    +0.009 C 
ATOM     12  C   UNL     1      -3.280  -2.559  -6.090  0.00  0.00    -0.010 C 
ATOM     13  C   UNL     1      -2.005  -3.909  -7.731  0.00  0.00    -0.010 C 
ATOM     14  C   UNL     1      -4.162  -4.613  -3.662  0.00  0.00    -0.010 C 
ATOM     15  C   UNL     1      -3.270  -6.845  -4.263  0.00  0.00    -0.010 C 
ATOM     16  H   UNL     1      -2.462  -5.773  -6.350  0.00  0.00    -0.084 HD
ATOM     17  H   UNL     1      -4.013  -4.887  -6.165  0.00  0.00    -0.084 HD
ENDBRANCH   4   6
ENDBRANCH   2   4
ENDBRANCH   1   2
BRANCH   1  18
ATOM     18  C   UNL     1       1.226  -2.187  -0.021  0.00  0.00    +0.142 C 
BRANCH  18  22
ATOM     19  C   UNL     1       1.176   2.086   0.002  0.00  0.00    +0.121 A 
ATOM     20  C   UNL     1      -0.017   1.377   0.010  0.00  0.00    +0.046 A 
ATOM     21  C   UNL     1       0.002  -0.004   0.002  0.00  0.00    +0.009 A 
ATOM     22  C   UNL     1       1.208  -0.680  -0.013  0.00  0.00    -0.030 A 
ATOM     23  C   UNL     1       2.398   0.024  -0.021  0.00  0.00    +0.009 A 
ATOM     24  C   UNL     1       2.385   1.405  -0.013  0.00  0.00    +0.046 A 
BRANCH  19  25
ATOM     25  O   UNL     1       1.160   3.445   0.009  0.00  0.00    -0.492 OA
BRANCH  25  27
ATOM     26  C   UNL     1       2.208   5.623   0.010  0.00  0.00    +0.048 C 
ATOM     27  C   UNL     1       2.426   4.108   0.001  0.00  0.00    +0.225 C 
ENDBRANCH  25  27
ENDBRANCH  19  25
ENDBRANCH  18  22
ENDBRANCH   1  18
BRANCH   1  28
ATOM     28  C   UNL     1       2.482  -2.894  -2.109  0.00  0.00    +0.181 C 
BRANCH  28  29
ATOM     29  C   UNL     1       2.936  -4.314  -1.883  0.00  0.00    +0.122 A 
ATOM     30  C   UNL     1       2.623  -5.371  -2.653  0.00  0.00    +0.046 A 
ATOM     31  C   UNL     1       3.257  -6.497  -2.080  0.00  0.00    +0.041 A 
ATOM     32  C   UNL     1       3.920  -6.060  -0.994  0.00  0.00    +0.195 A 
ATOM     33  O   UNL     1       3.727  -4.736  -0.883  0.00  0.00    -0.466 OA
ENDBRANCH  28  29
ENDBRANCH   1  28
TORSDOF 9
