REMARK  Name = ZINC63744023
REMARK  5 active torsions:
REMARK  status: ('A' for Active; 'I' for Inactive)
REMARK    1  A    between atoms: C_6  and  C_10
REMARK    2  A    between atoms: C_10  and  S_11
REMARK    3  A    between atoms: S_11  and  C_12
REMARK    4  A    between atoms: C_15  and  C_19
REMARK    5  A    between atoms: N_17  and  N_18
REMARK                            x       y       z     vdW  Elec       q    Type
REMARK                         _______ _______ _______ _____ _____    ______ ____
ROOT
ATOM      1  C   UNL     1       3.438  -2.546  -4.290  0.00  0.00    +0.189 C 
ATOM      2  N   UNL     1       4.210  -3.527  -3.967  0.00  0.00    -0.161 NA
ATOM      3  N   UNL     1       4.516  -4.326  -5.075  0.00  0.00    -0.241 N 
ATOM      4  C   UNL     1       3.817  -3.721  -6.222  0.00  0.00    +0.223 C 
ATOM      5  N   UNL     1       3.123  -2.559  -5.641  0.00  0.00    -0.221 N 
ATOM      6  H   UNL     1       5.077  -5.118  -5.086  0.00  0.00    +0.171 HD
ENDROOT
BRANCH   4   7
ATOM      7  C   UNL     1       4.806  -3.284  -7.273  0.00  0.00    -0.005 A 
ATOM      8  C   UNL     1       5.848  -2.441  -6.934  0.00  0.00    +0.007 A 
ATOM      9  C   UNL     1       6.754  -2.040  -7.897  0.00  0.00    +0.002 A 
ATOM     10  C   UNL     1       6.619  -2.481  -9.200  0.00  0.00    +0.020 A 
ATOM     11  C   UNL     1       5.577  -3.324  -9.540  0.00  0.00    +0.041 A 
ATOM     12  C   UNL     1       4.673  -3.730  -8.574  0.00  0.00    +0.027 A 
ATOM     13 CL   UNL     1       5.406  -3.879 -11.176  0.00  0.00    -0.084 Cl
ENDBRANCH   4   7
BRANCH   5  14
ATOM     14  N   UNL     1       2.327  -1.668  -6.303  0.00  0.00    -0.250 NA
ATOM     15  H   UNL     1       1.907  -1.012  -5.661  0.00  0.00    +0.141 HD
ATOM     16  H   UNL     1       2.844  -1.188  -7.024  0.00  0.00    +0.141 HD
ENDBRANCH   5  14
BRANCH   1  17
ATOM     17  S   UNL     1       2.847  -1.338  -3.151  0.00  0.00    -0.084 S 
BRANCH  17  18
ATOM     18  C   UNL     1       3.581  -1.833  -1.567  0.00  0.00    +0.124 C 
BRANCH  18  24
ATOM     19  C   UNL     1      -0.065   2.391  -1.022  0.00  0.00    +0.002 A 
ATOM     20  C   UNL     1       1.077   3.175  -1.265  0.00  0.00    +0.002 A 
ATOM     21  C   UNL     1       2.326   2.670  -1.224  0.00  0.00    +0.027 A 
ATOM     22  C   UNL     1       2.524   1.248  -0.914  0.00  0.00    +0.060 A 
ATOM     23  N   UNL     1       3.588   0.504  -0.808  0.00  0.00    -0.363 N 
ATOM     24  C   UNL     1       3.144  -0.855  -0.475  0.00  0.00    +0.184 C 
ATOM     25  N   UNL     1       1.678  -0.805  -0.400  0.00  0.00    -0.363 N 
ATOM     26  C   UNL     1       1.315   0.419  -0.656  0.00  0.00    +0.060 A 
ATOM     27  C   UNL     1       0.004   1.077  -0.729  0.00  0.00    +0.027 A 
ATOM     28  H   UNL     1       4.505   0.795  -0.928  0.00  0.00    +0.162 HD
ATOM     29  H   UNL     1       1.088  -1.548  -0.198  0.00  0.00    +0.162 HD
ENDBRANCH  18  24
ENDBRANCH  17  18
ENDBRANCH   1  17
TORSDOF 5
