REMARK  Name = ZINC37063207
REMARK  9 active torsions:
REMARK  status: ('A' for Active; 'I' for Inactive)
REMARK    1  A    between atoms: C_1  and  N_2
REMARK    2  A    between atoms: N_2  and  C_3
REMARK    3  A    between atoms: N_2  and  C_4
REMARK    4  A    between atoms: C_4  and  C_5
REMARK    5  A    between atoms: C_5  and  C_6
REMARK    6  A    between atoms: C_6  and  N_7
REMARK    7  A    between atoms: N_7  and  S_8
REMARK    8  A    between atoms: S_8  and  C_11
REMARK    9  A    between atoms: C_12  and  N_19
REMARK                            x       y       z     vdW  Elec       q    Type
REMARK                         _______ _______ _______ _____ _____    ______ ____
ROOT
ATOM      1  S   UNL     1       6.061  -1.289  -3.860  0.00  0.00    +0.061 S 
ATOM      2  O   UNL     1       7.402  -0.821  -3.905  0.00  0.00    -0.153 OA
ATOM      3  O   UNL     1       5.737  -2.673  -3.865  0.00  0.00    -0.153 OA
ENDROOT
BRANCH   1   4
ATOM      4  C   UNL     1       5.231  -0.572  -5.238  0.00  0.00    +0.140 A 
ATOM      5  C   UNL     1       4.134  -1.213  -5.800  0.00  0.00    +0.053 A 
ATOM      6  C   UNL     1       3.481  -0.644  -6.886  0.00  0.00    +0.040 A 
ATOM      7  C   UNL     1       3.924   0.557  -7.405  0.00  0.00    +0.021 A 
ATOM      8  C   UNL     1       5.017   1.194  -6.844  0.00  0.00    +0.032 A 
ATOM      9  C   UNL     1       5.666   0.632  -5.758  0.00  0.00    +0.047 A 
ATOM     10 BR   UNL     1       7.154   1.510  -4.989  0.00  0.00    -0.048 Br
ATOM     11 BR   UNL     1       3.037   1.333  -8.883  0.00  0.00    -0.050 Br
BRANCH   5  12
ATOM     12  N   UNL     1       3.688  -2.428  -5.274  0.00  0.00    -0.356 N 
ATOM     13  H   UNL     1       3.874  -2.653  -4.348  0.00  0.00    +0.142 HD
ATOM     14  H   UNL     1       3.194  -3.047  -5.833  0.00  0.00    +0.142 HD
ENDBRANCH   5  12
ENDBRANCH   1   4
BRANCH   1  15
ATOM     15  N   UNL     1       5.383  -0.649  -2.492  0.00  0.00    -0.190 NA
ATOM     16  H   UNL     1       5.914  -0.089  -1.903  0.00  0.00    +0.148 HD
BRANCH  15  17
ATOM     17  C   UNL     1       3.981  -0.928  -2.170  0.00  0.00    +0.104 C 
BRANCH  17  18
ATOM     18  C   UNL     1       3.708  -0.552  -0.712  0.00  0.00    -0.002 C 
BRANCH  18  19
ATOM     19  C   UNL     1       2.244  -0.843  -0.376  0.00  0.00    -0.078 C 
BRANCH  19  21
ATOM     20  C   UNL     1       2.139   0.969   1.193  0.00  0.00    -0.097 C 
ATOM     21  N   UNL     1       1.982  -0.482   1.024  0.00  0.00    +0.376 N 
ATOM     22  C   UNL     1       0.612  -0.872   1.381  0.00  0.00    -0.097 C 
ATOM     23  H   UNL     1       2.636  -0.963   1.623  0.00  0.00    -0.083 HD
ENDBRANCH  19  21
ENDBRANCH  18  19
ENDBRANCH  17  18
ENDBRANCH  15  17
ENDBRANCH   1  15
TORSDOF 7
