REMARK  Name = ZINC01390123
REMARK  7 active torsions:
REMARK  status: ('A' for Active; 'I' for Inactive)
REMARK    1  A    between atoms: C_4  and  C_7
REMARK    2  A    between atoms: C_8  and  C_18
REMARK    3  A    between atoms: N_11  and  C_12
REMARK    4  A    between atoms: N_20  and  N_21
REMARK    5  A    between atoms: C_22  and  C_24
REMARK    6  A    between atoms: N_27  and  C_35
REMARK    7  A    between atoms: C_28  and  C_29
REMARK                            x       y       z     vdW  Elec       q    Type
REMARK                         _______ _______ _______ _____ _____    ______ ____
ROOT
ATOM      1  C   UNL     1       4.899   0.702  -1.821  0.00  0.00    +0.264 C 
ATOM      2  O   UNL     1       3.955   1.448  -2.000  0.00  0.00    -0.269 OA
ATOM      3  N   UNL     1       6.036   0.872  -2.524  0.00  0.00    -0.230 N 
ATOM      4  H   UNL     1       6.789   0.277  -2.381  0.00  0.00    +0.173 HD
ENDROOT
BRANCH   1   6
ATOM      5  C   UNL     1       3.695  -0.683  -0.037  0.00  0.00    +0.087 A 
ATOM      6  C   UNL     1       4.800  -0.386  -0.835  0.00  0.00    +0.084 A 
ATOM      7  C   UNL     1       5.803  -1.326  -0.519  0.00  0.00    +0.148 A 
ATOM      8  N   UNL     1       5.342  -2.130   0.399  0.00  0.00    -0.173 NA
ATOM      9  N   UNL     1       4.034  -1.756   0.726  0.00  0.00    -0.231 N 
BRANCH   5  13
ATOM     10  C   UNL     1      -0.017   1.379   0.010  0.00  0.00    +0.000 A 
ATOM     11  C   UNL     1       1.168   2.094   0.002  0.00  0.00    +0.001 A 
ATOM     12  C   UNL     1       2.377   1.430  -0.013  0.00  0.00    +0.010 A 
ATOM     13  C   UNL     1       2.404   0.034  -0.021  0.00  0.00    +0.001 A 
ATOM     14  C   UNL     1       1.204  -0.681  -0.013  0.00  0.00    +0.010 A 
ATOM     15  C   UNL     1       0.002  -0.004   0.002  0.00  0.00    +0.001 A 
ENDBRANCH   5  13
BRANCH   9  16
ATOM     16  C   UNL     1       3.215  -2.381   1.675  0.00  0.00    +0.066 A 
ATOM     17  C   UNL     1       2.325  -1.628   2.429  0.00  0.00    +0.028 A 
ATOM     18  C   UNL     1       1.518  -2.247   3.364  0.00  0.00    +0.002 A 
ATOM     19  C   UNL     1       1.596  -3.615   3.548  0.00  0.00    +0.000 A 
ATOM     20  C   UNL     1       2.481  -4.368   2.798  0.00  0.00    +0.002 A 
ATOM     21  C   UNL     1       3.287  -3.756   1.858  0.00  0.00    +0.028 A 
ENDBRANCH   9  16
ENDBRANCH   1   6
BRANCH   3  22
ATOM     22  N   UNL     1       6.131   1.908  -3.462  0.00  0.00    -0.230 N 
ATOM     23  C   UNL     1       7.268   2.078  -4.166  0.00  0.00    +0.264 C 
ATOM     24  O   UNL     1       8.212   1.331  -3.986  0.00  0.00    -0.269 OA
ATOM     25  H   UNL     1       5.378   2.503  -3.606  0.00  0.00    +0.173 HD
BRANCH  23  26
ATOM     26  C   UNL     1       7.368   3.166  -5.152  0.00  0.00    +0.084 A 
ATOM     27  C   UNL     1       6.366   4.109  -5.464  0.00  0.00    +0.148 A 
ATOM     28  N   UNL     1       6.826   4.912  -6.383  0.00  0.00    -0.173 NA
ATOM     29  N   UNL     1       8.134   4.537  -6.711  0.00  0.00    -0.231 N 
ATOM     30  C   UNL     1       8.473   3.463  -5.949  0.00  0.00    +0.087 A 
BRANCH  30  31
ATOM     31  C   UNL     1       9.764   2.746  -5.965  0.00  0.00    +0.001 A 
ATOM     32  C   UNL     1      10.371   2.423  -7.180  0.00  0.00    +0.010 A 
ATOM     33  C   UNL     1      11.577   1.753  -7.188  0.00  0.00    +0.001 A 
ATOM     34  C   UNL     1      12.184   1.401  -5.995  0.00  0.00    +0.000 A 
ATOM     35  C   UNL     1      11.588   1.718  -4.788  0.00  0.00    +0.001 A 
ATOM     36  C   UNL     1      10.385   2.394  -4.766  0.00  0.00    +0.010 A 
ENDBRANCH  30  31
BRANCH  29  37
ATOM     37  C   UNL     1       8.954   5.164  -7.657  0.00  0.00    +0.066 A 
ATOM     38  C   UNL     1      10.324   5.246  -7.445  0.00  0.00    +0.028 A 
ATOM     39  C   UNL     1      11.130   5.864  -8.381  0.00  0.00    +0.002 A 
ATOM     40  C   UNL     1      10.575   6.401  -9.527  0.00  0.00    +0.000 A 
ATOM     41  C   UNL     1       9.211   6.321  -9.742  0.00  0.00    +0.002 A 
ATOM     42  C   UNL     1       8.400   5.699  -8.813  0.00  0.00    +0.028 A 
ENDBRANCH  29  37
ENDBRANCH  23  26
ENDBRANCH   3  22
TORSDOF 7
