REMARK  Name = ZINC46097930
REMARK  6 active torsions:
REMARK  status: ('A' for Active; 'I' for Inactive)
REMARK    1  A    between atoms: C_1  and  C_2
REMARK    2  A    between atoms: N_6  and  N_7
REMARK    3  A    between atoms: C_11  and  S_14
REMARK    4  A    between atoms: S_14  and  N_17
REMARK    5  A    between atoms: C_19  and  C_21
REMARK    6  A    between atoms: C_19  and  C_22
REMARK                            x       y       z     vdW  Elec       q    Type
REMARK                         _______ _______ _______ _____ _____    ______ ____
ROOT
ATOM      1  N   UNL     1      -0.172  -2.175  -3.261  0.00  0.00    -0.221 N 
ATOM      2  C   UNL     1      -0.678  -2.990  -4.267  0.00  0.00    +0.138 A 
ATOM      3  C   UNL     1      -1.305  -2.416  -5.369  0.00  0.00    +0.047 A 
ATOM      4  C   UNL     1      -1.804  -3.239  -6.363  0.00  0.00    +0.033 A 
ATOM      5  C   UNL     1      -1.658  -4.613  -6.221  0.00  0.00    +0.123 A 
ATOM      6  C   UNL     1      -1.025  -5.114  -5.101  0.00  0.00    +0.141 A 
ATOM      7  N   UNL     1      -0.555  -4.305  -4.171  0.00  0.00    -0.237 NA
ATOM      8  H   UNL     1      -0.260  -1.211  -3.327  0.00  0.00    +0.176 HD
ENDROOT
BRANCH   1  13
ATOM      9  C   UNL     1      -0.043   1.517   0.022  0.00  0.00    +0.008 C 
ATOM     10  C   UNL     1      -0.014  -0.012   0.009  0.00  0.00    -0.008 C 
ATOM     11  C   UNL     1       0.707  -0.500  -1.252  0.00  0.00    +0.055 C 
ATOM     12  C   UNL     1       0.842  -2.005  -1.178  0.00  0.00    +0.038 C 
ATOM     13  N   UNL     1       0.466  -2.746  -2.152  0.00  0.00    -0.190 NA
ATOM     14  C   UNL     1       1.432  -2.611   0.076  0.00  0.00    +0.059 C 
ATOM     15  C   UNL     1       0.685  -2.047   1.288  0.00  0.00    -0.029 C 
ATOM     16  C   UNL     1       0.728  -0.519   1.247  0.00  0.00    +0.010 C 
ATOM     17  C   UNL     1      -0.771  -2.517   1.254  0.00  0.00    +0.011 C 
ATOM     18  C   UNL     1       1.351  -2.542   2.574  0.00  0.00    +0.011 C 
ENDBRANCH   1  13
BRANCH   5  19
ATOM     19  S   UNL     1      -2.276  -5.705  -7.458  0.00  0.00    +0.057 S 
ATOM     20  O   UNL     1      -2.495  -6.957  -6.821  0.00  0.00    -0.153 OA
ATOM     21  O   UNL     1      -3.309  -5.006  -8.139  0.00  0.00    -0.153 OA
BRANCH  19  22
ATOM     22  N   UNL     1      -1.059  -5.940  -8.556  0.00  0.00    -0.203 NA
ATOM     23  H   UNL     1      -0.203  -5.500  -8.433  0.00  0.00    +0.144 HD
ATOM     24  H   UNL     1      -1.202  -6.517  -9.323  0.00  0.00    +0.144 HD
ENDBRANCH  19  22
ENDBRANCH   5  19
TORSDOF 3
