REMARK  Name = ZINC08737924
REMARK  7 active torsions:
REMARK  status: ('A' for Active; 'I' for Inactive)
REMARK    1  A    between atoms: C_1  and  C_2
REMARK    2  A    between atoms: C_2  and  C_4
REMARK    3  A    between atoms: C_2  and  N_15
REMARK    4  A    between atoms: N_6  and  C_7
REMARK    5  A    between atoms: C_11  and  O_13
REMARK    6  A    between atoms: O_13  and  C_14
REMARK    7  A    between atoms: C_16  and  C_18
REMARK                            x       y       z     vdW  Elec       q    Type
REMARK                         _______ _______ _______ _____ _____    ______ ____
ROOT
ATOM      1  N   UNL     1       2.443   7.936   0.328  0.00  0.00    -0.306 N 
ATOM      2  C   UNL     1       2.691   9.118   0.926  0.00  0.00    +0.200 C 
ATOM      3  O   UNL     1       1.778   9.765   1.394  0.00  0.00    -0.278 OA
ATOM      4  H   UNL     1       3.173   7.419  -0.046  0.00  0.00    +0.149 HD
ENDROOT
BRANCH   2   5
ATOM      5  C   UNL     1       4.103   9.636   1.015  0.00  0.00    +0.021 C 
ATOM      6  C   UNL     1       4.833   8.945   2.167  0.00  0.00    +0.028 C 
ATOM      7  C   UNL     1       6.155   9.623   2.420  0.00  0.00    -0.047 A 
ATOM      8  C   UNL     1       7.111   8.950   3.166  0.00  0.00    +0.004 A 
ATOM      9  C   UNL     1       8.334   9.537   3.424  0.00  0.00    +0.000 A 
ATOM     10  C   UNL     1       8.607  10.802   2.936  0.00  0.00    +0.000 A 
ATOM     11  C   UNL     1       7.656  11.471   2.193  0.00  0.00    +0.002 A 
ATOM     12  C   UNL     1       6.427  10.883   1.931  0.00  0.00    -0.061 A 
ATOM     13  C   UNL     1       5.426  11.649   1.107  0.00  0.00    -0.045 C 
ATOM     14  N   UNL     1       4.079  11.087   1.277  0.00  0.00    +0.389 N 
ATOM     15  H   UNL     1       3.759  11.254   2.238  0.00  0.00    -0.084 HD
ATOM     16  H   UNL     1       3.435  11.541   0.618  0.00  0.00    -0.084 HD
ENDBRANCH   2   5
BRANCH   1  18
ATOM     17  C   UNL     1       0.383   8.033  -0.986  0.00  0.00    +0.038 C 
ATOM     18  C   UNL     1       1.070   7.433   0.242  0.00  0.00    +0.156 C 
BRANCH  18  19
ATOM     19  C   UNL     1       1.092   5.931   0.122  0.00  0.00    +0.237 C 
ATOM     20  O   UNL     1       2.151   5.339   0.109  0.00  0.00    -0.273 OA
ATOM     21  N   UNL     1      -0.064   5.245   0.028  0.00  0.00    -0.284 N 
ATOM     22  H   UNL     1      -0.907   5.721  -0.039  0.00  0.00    +0.155 HD
BRANCH  21  23
ATOM     23  C   UNL     1      -0.050   3.846   0.028  0.00  0.00    +0.037 A 
ATOM     24  C   UNL     1      -0.992   3.141  -0.712  0.00  0.00    +0.023 A 
ATOM     25  C   UNL     1      -0.977   1.760  -0.712  0.00  0.00    +0.005 A 
ATOM     26  C   UNL     1      -0.028   1.076   0.023  0.00  0.00    +0.046 A 
ATOM     27  C   UNL     1       0.912   1.774   0.767  0.00  0.00    +0.122 A 
ATOM     28  C   UNL     1       0.905   3.161   0.765  0.00  0.00    +0.069 A 
BRANCH  27  29
ATOM     29  O   UNL     1       1.842   1.101   1.494  0.00  0.00    -0.495 OA
ATOM     30  C   UNL     1       1.794  -0.327   1.445  0.00  0.00    +0.277 C 
ENDBRANCH  27  29
ENDBRANCH  21  23
ENDBRANCH  18  19
ENDBRANCH   1  18
TORSDOF 5
