REMARK  Name = ZINC34718648
REMARK  10 active torsions:
REMARK  status: ('A' for Active; 'I' for Inactive)
REMARK    1  A    between atoms: C_1  and  C_2
REMARK    2  A    between atoms: C_2  and  N_3
REMARK    3  A    between atoms: N_6  and  C_9
REMARK    4  A    between atoms: C_10  and  N_16
REMARK    5  A    between atoms: N_16  and  C_17
REMARK    6  A    between atoms: C_17  and  N_19
REMARK    7  A    between atoms: C_20  and  C_22
REMARK    8  A    between atoms: C_22  and  O_23
REMARK    9  A    between atoms: O_23  and  C_24
REMARK   10  A    between atoms: C_29  and  C_30
REMARK                            x       y       z     vdW  Elec       q    Type
REMARK                         _______ _______ _______ _____ _____    ______ ____
ROOT
ATOM      1  N   UNL     1      -6.245  -2.483  -0.211  0.00  0.00    -0.295 N 
ATOM      2  H   UNL     1      -5.703  -2.318   0.577  0.00  0.00    +0.154 HD
ENDROOT
BRANCH   1   4
ATOM      3  C   UNL     1      -4.450  -2.684  -1.825  0.00  0.00    +0.070 A 
ATOM      4  C   UNL     1      -5.682  -3.110  -1.330  0.00  0.00    +0.055 A 
ATOM      5  C   UNL     1      -6.348  -4.157  -1.949  0.00  0.00    +0.025 A 
ATOM      6  C   UNL     1      -5.791  -4.775  -3.053  0.00  0.00    +0.003 A 
ATOM      7  C   UNL     1      -4.570  -4.353  -3.544  0.00  0.00    +0.022 A 
ATOM      8  C   UNL     1      -3.900  -3.306  -2.937  0.00  0.00    +0.064 A 
ATOM      9 CL   UNL     1      -2.370  -2.774  -3.562  0.00  0.00    -0.082 Cl
BRANCH   3  13
ATOM     10  N   UNL     1      -1.796   0.278  -0.680  0.00  0.00    +0.382 N 
ATOM     11  C   UNL     1      -2.638   0.424  -1.874  0.00  0.00    -0.060 C 
ATOM     12  C   UNL     1      -3.998  -0.235  -1.621  0.00  0.00    +0.086 C 
ATOM     13  N   UNL     1      -3.772  -1.627  -1.204  0.00  0.00    -0.331 N 
ATOM     14  C   UNL     1      -2.813  -1.878  -0.117  0.00  0.00    +0.086 C 
ATOM     15  C   UNL     1      -1.509  -1.142  -0.441  0.00  0.00    -0.060 C 
ATOM     16  H   UNL     1      -2.279   0.661   0.119  0.00  0.00    -0.082 HD
BRANCH  10  18
ATOM     17  C   UNL     1      -0.821   2.501  -1.006  0.00  0.00    -0.017 C 
ATOM     18  C   UNL     1      -0.534   1.003  -0.881  0.00  0.00    -0.082 C 
ENDBRANCH  10  18
ENDBRANCH   3  13
ENDBRANCH   1   4
BRANCH   1  19
ATOM     19  C   UNL     1      -7.540  -2.109  -0.228  0.00  0.00    +0.141 C 
ATOM     20  S   UNL     1      -8.525  -2.498  -1.573  0.00  0.00    -0.018 S 
BRANCH  19  21
ATOM     21  N   UNL     1      -8.059  -1.429   0.813  0.00  0.00    -0.265 N 
ATOM     22  C   UNL     1      -9.353  -1.055   0.796  0.00  0.00    +0.256 C 
ATOM     23  O   UNL     1     -10.051  -1.330  -0.157  0.00  0.00    -0.272 OA
ATOM     24  H   UNL     1      -7.500  -1.208   1.575  0.00  0.00    +0.157 HD
BRANCH  22  25
ATOM     25  C   UNL     1      -9.934  -0.294   1.960  0.00  0.00    +0.325 C 
BRANCH  25  26
ATOM     26  O   UNL     1     -11.312  -0.014   1.707  0.00  0.00    -0.483 OA
BRANCH  26  27
ATOM     27  C   UNL     1     -11.988   0.671   2.666  0.00  0.00    +0.124 A 
ATOM     28  C   UNL     1     -11.338   1.071   3.825  0.00  0.00    +0.046 A 
ATOM     29  C   UNL     1     -12.027   1.768   4.797  0.00  0.00    +0.004 A 
ATOM     30  C   UNL     1     -13.366   2.067   4.618  0.00  0.00    +0.000 A 
ATOM     31  C   UNL     1     -14.016   1.669   3.465  0.00  0.00    +0.007 A 
ATOM     32  C   UNL     1     -13.329   0.977   2.486  0.00  0.00    -0.009 A 
ATOM     33  C   UNL     1     -14.038   0.548   1.227  0.00  0.00    +0.047 C 
ENDBRANCH  26  27
ENDBRANCH  25  26
ENDBRANCH  22  25
ENDBRANCH  19  21
ENDBRANCH   1  19
TORSDOF 8
