REMARK  Name = ZINC59045722
REMARK  8 active torsions:
REMARK  status: ('A' for Active; 'I' for Inactive)
REMARK    1  A    between atoms: C_1  and  C_2
REMARK    2  A    between atoms: C_4  and  C_24
REMARK    3  A    between atoms: C_7  and  C_9
REMARK    4  A    between atoms: C_9  and  S_10
REMARK    5  A    between atoms: S_10  and  C_11
REMARK    6  A    between atoms: C_14  and  C_17
REMARK    7  A    between atoms: N_15  and  N_16
REMARK    8  A    between atoms: C_22  and  O_23
REMARK                            x       y       z     vdW  Elec       q    Type
REMARK                         _______ _______ _______ _____ _____    ______ ____
ROOT
ATOM      1  C   UNL     1       0.010  -4.317   5.430  0.00  0.00    +0.209 A 
ATOM      2  N   UNL     1       0.145  -3.132   5.981  0.00  0.00    -0.121 NA
ATOM      3  N   UNL     1       0.199  -3.243   7.261  0.00  0.00    -0.127 NA
ATOM      4  C   UNL     1       0.103  -4.506   7.605  0.00  0.00    +0.185 A 
ATOM      5  N   UNL     1      -0.026  -5.233   6.444  0.00  0.00    -0.224 N 
ENDROOT
BRANCH   4   6
ATOM      6  C   UNL     1       0.125  -5.046   8.980  0.00  0.00    +0.062 A 
ATOM      7  C   UNL     1       0.928  -6.144   9.291  0.00  0.00    +0.015 A 
ATOM      8  C   UNL     1       0.944  -6.643  10.576  0.00  0.00    +0.001 A 
ATOM      9  C   UNL     1       0.166  -6.059  11.561  0.00  0.00    +0.004 A 
ATOM     10  C   UNL     1      -0.634  -4.971  11.266  0.00  0.00    +0.046 A 
ATOM     11  C   UNL     1      -0.656  -4.454   9.981  0.00  0.00    +0.128 A 
BRANCH  11  12
ATOM     12  O   UNL     1      -1.437  -3.381   9.691  0.00  0.00    -0.506 OA
ATOM     13  H   UNL     1      -2.331  -3.611   9.405  0.00  0.00    +0.292 HD
ENDBRANCH  11  12
ENDBRANCH   4   6
BRANCH   5  14
ATOM     14  N   UNL     1      -0.160  -6.587   6.328  0.00  0.00    -0.295 N 
ATOM     15  H   UNL     1       0.740  -7.042   6.336  0.00  0.00    +0.163 HD
ATOM     16  H   UNL     1      -0.758  -6.955   7.053  0.00  0.00    +0.163 HD
ENDBRANCH   5  14
BRANCH   1  17
ATOM     17  S   UNL     1      -0.108  -4.661   3.706  0.00  0.00    -0.075 S 
BRANCH  17  18
ATOM     18  C   UNL     1       0.008  -3.028   2.924  0.00  0.00    +0.178 C 
BRANCH  18  25
ATOM     19  C   UNL     1       0.294   1.504   0.014  0.00  0.00    +0.067 C 
ATOM     20  C   UNL     1       0.151   0.004   0.007  0.00  0.00    +0.061 A 
ATOM     21  C   UNL     1       0.018  -0.801  -1.133  0.00  0.00    +0.048 A 
ATOM     22  C   UNL     1      -0.084  -2.085  -0.727  0.00  0.00    +0.045 A 
ATOM     23  N   UNL     1      -0.017  -2.092   0.635  0.00  0.00    -0.204 N 
ATOM     24  N   UNL     1       0.136  -0.767   1.062  0.00  0.00    -0.169 NA
ATOM     25  C   UNL     1      -0.081  -3.180   1.428  0.00  0.00    +0.258 C 
ATOM     26  O   UNL     1      -0.209  -4.277   0.939  0.00  0.00    -0.270 OA
ATOM     27  C   UNL     1      -0.242  -3.291  -1.617  0.00  0.00    +0.066 C 
ENDBRANCH  18  25
ENDBRANCH  17  18
ENDBRANCH   1  17
TORSDOF 6
