REMARK  Name = ZINC49929734
REMARK  8 active torsions:
REMARK  status: ('A' for Active; 'I' for Inactive)
REMARK    1  A    between atoms: C_1  and  C_2
REMARK    2  A    between atoms: N_11  and  C_15
REMARK    3  A    between atoms: C_15  and  C_16
REMARK    4  A    between atoms: N_18  and  C_19
REMARK    5  A    between atoms: C_19  and  C_20
REMARK    6  A    between atoms: C_20  and  N_26
REMARK    7  A    between atoms: N_26  and  C_27
REMARK    8  A    between atoms: N_26  and  C_28
REMARK                            x       y       z     vdW  Elec       q    Type
REMARK                         _______ _______ _______ _____ _____    ______ ____
ROOT
ATOM      1  C   UNL     1       3.754   1.268   2.845  0.00  0.00    +0.213 C 
ENDROOT
BRANCH   1  11
ATOM      2  C   UNL     1       0.318   1.109   0.011  0.00  0.00    +0.010 C 
ATOM      3  C   UNL     1       0.415  -0.418   0.021  0.00  0.00    +0.018 C 
ATOM      4  C   UNL     1      -0.994  -1.018   0.029  0.00  0.00    +0.006 C 
ATOM      5  C   UNL     1      -0.896  -2.545   0.059  0.00  0.00    +0.000 C 
ATOM      6  C   UNL     1      -0.155  -2.986   1.323  0.00  0.00    +0.003 C 
ATOM      7  C   UNL     1       1.256  -2.393   1.319  0.00  0.00    +0.035 C 
ATOM      8  C   UNL     1       1.169  -0.872   1.265  0.00  0.00    +0.115 C 
ATOM      9  C   UNL     1       2.552  -0.263   1.296  0.00  0.00    +0.247 C 
ATOM     10  O   UNL     1       3.440  -0.417   0.485  0.00  0.00    -0.273 OA
ATOM     11  N   UNL     1       2.590   0.489   2.415  0.00  0.00    -0.215 N 
ATOM     12  C   UNL     1       1.432   0.436   3.084  0.00  0.00    +0.310 C 
ATOM     13  O   UNL     1       1.224   1.031   4.123  0.00  0.00    -0.252 OA
ATOM     14  N   UNL     1       0.523  -0.350   2.477  0.00  0.00    -0.285 N 
ATOM     15  H   UNL     1      -0.380  -0.536   2.779  0.00  0.00    +0.151 HD
ENDBRANCH   1  11
BRANCH   1  16
ATOM     16  C   UNL     1       3.678   2.653   2.257  0.00  0.00    +0.231 C 
ATOM     17  O   UNL     1       2.743   2.960   1.548  0.00  0.00    -0.274 OA
ATOM     18  N   UNL     1       4.649   3.551   2.518  0.00  0.00    -0.315 N 
ATOM     19  H   UNL     1       5.396   3.305   3.085  0.00  0.00    +0.149 HD
BRANCH  18  20
ATOM     20  C   UNL     1       4.574   4.897   1.946  0.00  0.00    +0.092 C 
BRANCH  20  21
ATOM     21  C   UNL     1       5.711   5.753   2.508  0.00  0.00    -0.050 C 
ATOM     22  C   UNL     1       5.558   7.193   2.012  0.00  0.00    -0.010 C 
ATOM     23  C   UNL     1       5.611   7.214   0.483  0.00  0.00    -0.001 C 
ATOM     24  C   UNL     1       6.954   6.652   0.011  0.00  0.00    -0.000 C 
ATOM     25  C   UNL     1       7.106   5.213   0.507  0.00  0.00    -0.001 C 
ATOM     26  C   UNL     1       7.053   5.191   2.036  0.00  0.00    -0.010 C 
BRANCH  21  27
ATOM     27  N   UNL     1       5.660   5.733   3.976  0.00  0.00    +0.381 N 
ATOM     28  C   UNL     1       6.730   6.583   4.515  0.00  0.00    -0.096 C 
ATOM     29  C   UNL     1       4.358   6.239   4.428  0.00  0.00    -0.096 C 
ATOM     30  H   UNL     1       5.785   4.787   4.303  0.00  0.00    -0.082 HD
ENDBRANCH  21  27
ENDBRANCH  20  21
ENDBRANCH  18  20
ENDBRANCH   1  16
TORSDOF 5
