REMARK  Name = ZINC67163412
REMARK  11 active torsions:
REMARK  status: ('A' for Active; 'I' for Inactive)
REMARK    1  A    between atoms: C_1  and  C_2
REMARK    2  A    between atoms: N_5  and  C_8
REMARK    3  A    between atoms: C_8  and  C_10
REMARK    4  A    between atoms: C_8  and  C_24
REMARK    5  A    between atoms: C_10  and  N_11
REMARK    6  A    between atoms: C_12  and  C_14
REMARK    7  A    between atoms: C_17  and  C_19
REMARK    8  A    between atoms: C_19  and  N_20
REMARK    9  A    between atoms: C_21  and  C_23
REMARK   10  A    between atoms: C_24  and  C_25
REMARK   11  A    between atoms: C_24  and  C_26
REMARK                            x       y       z     vdW  Elec       q    Type
REMARK                         _______ _______ _______ _____ _____    ______ ____
ROOT
ATOM      1  N   UNL     1      -2.941  -3.970   0.395  0.00  0.00    -0.312 N 
ATOM      2  C   UNL     1      -4.232  -4.330   0.251  0.00  0.00    +0.251 C 
ATOM      3  O   UNL     1      -4.770  -5.018   1.098  0.00  0.00    -0.270 OA
ATOM      4  H   UNL     1      -2.512  -3.421  -0.280  0.00  0.00    +0.149 HD
ENDROOT
BRANCH   2   5
ATOM      5  C   UNL     1      -4.988  -3.892  -0.926  0.00  0.00    +0.074 A 
ATOM      6  C   UNL     1      -6.310  -4.143  -1.259  0.00  0.00    +0.021 A 
ATOM      7  C   UNL     1      -6.743  -3.592  -2.442  0.00  0.00    +0.013 A 
ATOM      8  C   UNL     1      -5.876  -2.861  -3.184  0.00  0.00    +0.008 A 
ATOM      9  S   UNL     1      -4.449  -2.890  -2.299  0.00  0.00    -0.087 S 
BRANCH   8  10
ATOM     10  C   UNL     1      -6.136  -2.174  -4.500  0.00  0.00    +0.146 C 
BRANCH  10  11
ATOM     11  N   UNL     1      -6.606  -0.808  -4.253  0.00  0.00    -0.311 N 
ATOM     12  C   UNL     1      -6.903  -0.000  -5.290  0.00  0.00    +0.210 C 
ATOM     13  O   UNL     1      -6.781  -0.403  -6.428  0.00  0.00    -0.276 OA
ATOM     14  C   UNL     1      -7.388   1.404  -5.036  0.00  0.00    +0.109 C 
ATOM     15  H   UNL     1      -6.704  -0.486  -3.344  0.00  0.00    +0.149 HD
ENDBRANCH  10  11
ENDBRANCH   8  10
ENDBRANCH   2   5
BRANCH   1  16
ATOM     16  C   UNL     1      -2.186  -4.408   1.572  0.00  0.00    +0.089 C 
BRANCH  16  17
ATOM     17  C   UNL     1      -0.821  -3.716   1.588  0.00  0.00    -0.049 C 
BRANCH  17  22
ATOM     18  C   UNL     1      -2.659   1.585   2.609  0.00  0.00    +0.007 C 
ATOM     19  C   UNL     1      -2.606   0.085   2.311  0.00  0.00    -0.018 C 
ATOM     20  C   UNL     1      -1.886  -0.638   3.453  0.00  0.00    -0.016 C 
ATOM     21  C   UNL     1      -1.766  -2.125   3.112  0.00  0.00    -0.078 C 
ATOM     22  N   UNL     1      -1.001  -2.285   1.869  0.00  0.00    +0.383 N 
ATOM     23  C   UNL     1      -1.721  -1.656   0.756  0.00  0.00    -0.078 C 
ATOM     24  C   UNL     1      -1.839  -0.151   1.006  0.00  0.00    -0.016 C 
ATOM     25  H   UNL     1      -0.097  -1.849   1.974  0.00  0.00    -0.081 HD
ENDBRANCH  17  22
BRANCH  17  26
ATOM     26  C   UNL     1       0.056  -4.343   2.674  0.00  0.00    -0.029 C 
ATOM     27  C   UNL     1       0.342  -5.803   2.317  0.00  0.00    +0.005 C 
ATOM     28  C   UNL     1       1.374  -3.574   2.772  0.00  0.00    +0.005 C 
ENDBRANCH  17  26
ENDBRANCH  16  17
ENDBRANCH   1  16
TORSDOF 7
