REMARK  Name = ZINC45891034
REMARK  9 active torsions:
REMARK  status: ('A' for Active; 'I' for Inactive)
REMARK    1  A    between atoms: C_1  and  C_2
REMARK    2  A    between atoms: C_2  and  C_3
REMARK    3  A    between atoms: C_2  and  C_4
REMARK    4  A    between atoms: C_4  and  C_6
REMARK    5  A    between atoms: C_4  and  N_19
REMARK    6  A    between atoms: N_8  and  C_9
REMARK    7  A    between atoms: N_12  and  C_15
REMARK    8  A    between atoms: C_15  and  C_16
REMARK    9  A    between atoms: C_20  and  C_22
REMARK                            x       y       z     vdW  Elec       q    Type
REMARK                         _______ _______ _______ _____ _____    ______ ____
ROOT
ATOM      1  C   UNL     1      -1.433  -0.534   0.013  0.00  0.00    +0.161 C 
ENDROOT
BRANCH   1   2
ATOM      2  C   UNL     1      -1.413  -2.041   0.005  0.00  0.00    +0.234 C 
ATOM      3  O   UNL     1      -1.921  -2.659   0.916  0.00  0.00    -0.274 OA
ATOM      4  N   UNL     1      -0.830  -2.701  -1.015  0.00  0.00    -0.311 N 
ATOM      5  H   UNL     1      -0.423  -2.206  -1.744  0.00  0.00    +0.149 HD
BRANCH   4   6
ATOM      6  C   UNL     1      -0.810  -4.166  -1.024  0.00  0.00    +0.069 C 
ATOM      7  C   UNL     1       0.393  -4.666  -0.218  0.00  0.00    +0.003 C 
ATOM      8  C   UNL     1       0.453  -6.193  -0.297  0.00  0.00    -0.076 C 
ATOM      9  N   UNL     1       0.593  -6.609  -1.697  0.00  0.00    +0.385 N 
ATOM     10  C   UNL     1      -0.591  -6.195  -2.461  0.00  0.00    -0.076 C 
ATOM     11  C   UNL     1      -0.691  -4.668  -2.465  0.00  0.00    +0.003 C 
ATOM     12  H   UNL     1       1.415  -6.180  -2.094  0.00  0.00    -0.081 HD
BRANCH   9  13
ATOM     13  C   UNL     1       0.728  -8.071  -1.761  0.00  0.00    +0.018 C 
BRANCH  13  14
ATOM     14  C   UNL     1       0.995  -8.489  -3.184  0.00  0.00    +0.194 C 
ATOM     15  O   UNL     1       1.065  -7.652  -4.059  0.00  0.00    -0.278 OA
ATOM     16  N   UNL     1       1.155  -9.793  -3.485  0.00  0.00    -0.331 N 
ATOM     17  H   UNL     1       1.099 -10.462  -2.785  0.00  0.00    +0.145 HD
ATOM     18  H   UNL     1       1.326 -10.062  -4.401  0.00  0.00    +0.145 HD
ENDBRANCH  13  14
ENDBRANCH   9  13
ENDBRANCH   4   6
ENDBRANCH   1   2
BRANCH   1  19
ATOM     19  N   UNL     1      -2.119  -0.061   1.218  0.00  0.00    -0.303 N 
ATOM     20  C   UNL     1      -2.704   1.153   1.228  0.00  0.00    +0.220 C 
ATOM     21  O   UNL     1      -2.663   1.854   0.240  0.00  0.00    -0.275 OA
ATOM     22  H   UNL     1      -2.152  -0.622   2.009  0.00  0.00    +0.149 HD
BRANCH  20  23
ATOM     23  C   UNL     1      -3.409   1.639   2.468  0.00  0.00    +0.048 C 
ATOM     24  C   UNL     1      -2.416   1.698   3.631  0.00  0.00    +0.019 C 
ATOM     25  C   UNL     1      -3.132   2.191   4.889  0.00  0.00    -0.009 C 
ATOM     26  C   UNL     1      -3.704   3.587   4.636  0.00  0.00    +0.007 C 
ATOM     27  C   UNL     1      -4.698   3.529   3.474  0.00  0.00    -0.009 C 
ATOM     28  C   UNL     1      -3.981   3.035   2.216  0.00  0.00    +0.019 C 
ATOM     29  C   UNL     1      -5.835   2.567   3.824  0.00  0.00    +0.007 C 
ATOM     30  C   UNL     1      -5.263   1.171   4.077  0.00  0.00    -0.009 C 
ATOM     31  C   UNL     1      -4.270   1.229   5.239  0.00  0.00    +0.007 C 
ATOM     32  C   UNL     1      -4.547   0.677   2.818  0.00  0.00    +0.019 C 
ENDBRANCH  20  23
ENDBRANCH   1  19
BRANCH   1  34
ATOM     33  C   UNL     1      -0.019   1.526   0.010  0.00  0.00    +0.009 C 
ATOM     34  C   UNL     1       0.002  -0.004   0.002  0.00  0.00    +0.012 C 
ATOM     35  C   UNL     1       0.742  -0.511   1.242  0.00  0.00    +0.009 C 
ENDBRANCH   1  34
TORSDOF 7
