REMARK  Name = ZINC46810798
REMARK  5 active torsions:
REMARK  status: ('A' for Active; 'I' for Inactive)
REMARK    1  A    between atoms: C_1  and  C_2
REMARK    2  A    between atoms: C_2  and  C_3
REMARK    3  A    between atoms: C_2  and  N_4
REMARK    4  A    between atoms: C_10  and  C_13
REMARK    5  A    between atoms: N_22  and  C_25
REMARK                            x       y       z     vdW  Elec       q    Type
REMARK                         _______ _______ _______ _____ _____    ______ ____
ROOT
ATOM      1  C   UNL     1      -5.767  -4.337   1.906  0.00  0.00    +0.222 C 
ATOM      2  O   UNL     1      -5.900  -3.821   2.995  0.00  0.00    -0.275 OA
ATOM      3  N   UNL     1      -6.232  -5.583   1.689  0.00  0.00    -0.264 N 
ATOM      4  C   UNL     1      -6.865  -6.276   2.714  0.00  0.00    +0.165 A 
ATOM      5  N   UNL     1      -7.373  -7.490   2.688  0.00  0.00    -0.229 NA
ATOM      6  C   UNL     1      -7.954  -8.029   3.752  0.00  0.00    +0.056 A 
ATOM      7  C   UNL     1      -7.980  -7.234   4.856  0.00  0.00    +0.028 A 
ATOM      8  S   UNL     1      -7.162  -5.769   4.294  0.00  0.00    -0.055 S 
ATOM      9  C   UNL     1      -8.564  -7.565   6.186  0.00  0.00    +0.128 C 
ATOM     10  N   UNL     1      -9.422  -8.757   6.025  0.00  0.00    -0.300 NA
ATOM     11  C   UNL     1      -8.713  -9.812   5.288  0.00  0.00    +0.090 C 
ATOM     12  C   UNL     1      -8.563  -9.423   3.814  0.00  0.00    +0.071 C 
ATOM     13  C   UNL     1      -9.889  -9.248   7.328  0.00  0.00    +0.105 C 
ATOM     14  H   UNL     1      -6.125  -5.995   0.818  0.00  0.00    +0.157 HD
ENDROOT
BRANCH   1  21
ATOM     15  N   UNL     1      -1.372  -0.511   0.013  0.00  0.00    -0.297 N 
ATOM     16  C   UNL     1      -1.643  -1.734  -0.485  0.00  0.00    +0.302 C 
ATOM     17  O   UNL     1      -0.765  -2.379  -1.025  0.00  0.00    -0.253 OA
ATOM     18  N   UNL     1      -2.888  -2.242  -0.385  0.00  0.00    -0.286 N 
ATOM     19  C   UNL     1      -3.985  -1.431   0.160  0.00  0.00    +0.110 C 
ATOM     20  C   UNL     1      -4.652  -2.206   1.301  0.00  0.00    +0.032 C 
ATOM     21  C   UNL     1      -5.080  -3.585   0.794  0.00  0.00    +0.078 C 
ATOM     22  C   UNL     1      -3.848  -4.367   0.335  0.00  0.00    +0.032 C 
ATOM     23  C   UNL     1      -3.173  -3.615  -0.823  0.00  0.00    +0.110 C 
ATOM     24  H   UNL     1      -2.087   0.033   0.378  0.00  0.00    +0.150 HD
BRANCH  15  26
ATOM     25  C   UNL     1      -0.017   1.525   0.013  0.00  0.00    +0.027 C 
ATOM     26  C   UNL     1       0.003  -0.005   0.004  0.00  0.00    +0.068 C 
ATOM     27  C   UNL     1       0.741  -0.513   1.244  0.00  0.00    +0.027 C 
ENDBRANCH  15  26
ENDBRANCH   1  21
TORSDOF 2
