REMARK  Name = ZINC20827758
REMARK  11 active torsions:
REMARK  status: ('A' for Active; 'I' for Inactive)
REMARK    1  A    between atoms: C_1  and  C_2
REMARK    2  A    between atoms: C_2  and  C_3
REMARK    3  A    between atoms: C_2  and  N_4
REMARK    4  A    between atoms: C_6  and  C_9
REMARK    5  A    between atoms: N_10  and  N_11
REMARK    6  A    between atoms: C_15  and  S_18
REMARK    7  A    between atoms: N_16  and  N_17
REMARK    8  A    between atoms: S_18  and  C_19
REMARK    9  A    between atoms: C_19  and  C_20
REMARK   10  A    between atoms: N_22  and  C_23
REMARK   11  A    between atoms: C_24  and  C_32
REMARK                            x       y       z     vdW  Elec       q    Type
REMARK                         _______ _______ _______ _____ _____    ______ ____
ROOT
ATOM      1  N   UNL     1      -4.413  13.129  -7.407  0.00  0.00    -0.204 N 
ATOM      2  C   UNL     1      -4.028  12.227  -6.425  0.00  0.00    +0.254 A 
ATOM      3  N   UNL     1      -3.834  12.504  -5.158  0.00  0.00    -0.109 NA
ATOM      4  N   UNL     1      -3.461  11.320  -4.509  0.00  0.00    -0.119 NA
ATOM      5  C   UNL     1      -3.431  10.360  -5.402  0.00  0.00    +0.210 A 
ATOM      6  N   UNL     1      -3.784  10.895  -6.608  0.00  0.00    -0.211 N 
ATOM      7  H   UNL     1      -4.548  12.788  -8.444  0.00  0.00    +0.177 HD
ENDROOT
BRANCH   6   8
ATOM      8  N   UNL     1      -3.876  10.217  -7.791  0.00  0.00    -0.294 N 
ATOM      9  H   UNL     1      -3.657   9.139  -7.826  0.00  0.00    +0.163 HD
ATOM     10  H   UNL     1      -4.170  10.748  -8.708  0.00  0.00    +0.163 HD
ENDBRANCH   6   8
BRANCH   1  12
ATOM     11  C   UNL     1      -4.990  15.316  -7.996  0.00  0.00    +0.141 C 
ATOM     12  N   UNL     1      -4.630  14.473  -7.078  0.00  0.00    -0.187 NA
BRANCH  11  15
ATOM     13  N   UNL     1      -5.699  18.871  -7.797  0.00  0.00    -0.268 N 
ATOM     14  C   UNL     1      -5.602  17.734  -8.515  0.00  0.00    +0.118 A 
ATOM     15  C   UNL     1      -5.219  16.732  -7.649  0.00  0.00    +0.032 A 
ATOM     16  C   UNL     1      -5.092  17.311  -6.368  0.00  0.00    +0.143 A 
ATOM     17  N   UNL     1      -5.374  18.582  -6.467  0.00  0.00    -0.179 NA
BRANCH  13  19
ATOM     18  C   UNL     1      -4.846  20.885  -8.892  0.00  0.00    +0.032 C 
ATOM     19  C   UNL     1      -6.081  20.186  -8.320  0.00  0.00    +0.101 C 
ATOM     20  C   UNL     1      -7.125  20.011  -9.424  0.00  0.00    +0.032 C 
ENDBRANCH  13  19
ENDBRANCH  11  15
ENDBRANCH   1  12
BRANCH   5  21
ATOM     21  S   UNL     1      -3.017   8.675  -5.097  0.00  0.00    -0.075 S 
BRANCH  21  22
ATOM     22  C   UNL     1      -2.653   8.627  -3.320  0.00  0.00    +0.173 C 
BRANCH  22  23
ATOM     23  C   UNL     1      -2.279   7.222  -2.922  0.00  0.00    +0.228 C 
ATOM     24  O   UNL     1      -2.260   6.341  -3.755  0.00  0.00    -0.275 OA
ATOM     25  N   UNL     1      -1.965   6.946  -1.641  0.00  0.00    -0.278 N 
ATOM     26  H   UNL     1      -1.982   7.746  -0.886  0.00  0.00    +0.155 HD
BRANCH  25  27
ATOM     27  C   UNL     1      -1.621   5.653  -1.274  0.00  0.00    +0.090 A 
ATOM     28  C   UNL     1      -1.271   5.177  -0.019  0.00  0.00    +0.084 A 
ATOM     29  C   UNL     1      -0.951   3.765   0.100  0.00  0.00    -0.018 A 
ATOM     30  C   UNL     1      -1.032   3.059  -1.049  0.00  0.00    -0.004 A 
ATOM     31  S   UNL     1      -1.524   4.240  -2.273  0.00  0.00    -0.077 S 
ATOM     32  C   UNL     1      -0.761   1.597  -1.232  0.00  0.00    +0.043 C 
ATOM     33  C   UNL     1      -0.013   1.086   0.008  0.00  0.00    +0.005 C 
ATOM     34  C   UNL     1      -0.735   1.583   1.264  0.00  0.00    +0.005 C 
ATOM     35  C   UNL     1      -0.551   3.094   1.407  0.00  0.00    +0.037 C 
BRANCH  28  36
ATOM     36  C   UNL     1      -1.226   6.046   1.118  0.00  0.00    +0.102 C 
ATOM     37  N   UNL     1      -1.191   6.736   2.020  0.00  0.00    -0.191 NA
ENDBRANCH  28  36
ENDBRANCH  25  27
ENDBRANCH  22  23
ENDBRANCH  21  22
ENDBRANCH   5  21
TORSDOF 9
