REMARK  Name = ZINC21175104
REMARK  7 active torsions:
REMARK  status: ('A' for Active; 'I' for Inactive)
REMARK    1  A    between atoms: C_1  and  C_2
REMARK    2  A    between atoms: C_5  and  N_9
REMARK    3  A    between atoms: C_6  and  C_8
REMARK    4  A    between atoms: N_12  and  C_13
REMARK    5  A    between atoms: C_13  and  C_14
REMARK    6  A    between atoms: C_14  and  C_15
REMARK    7  A    between atoms: C_15  and  N_16
REMARK                            x       y       z     vdW  Elec       q    Type
REMARK                         _______ _______ _______ _____ _____    ______ ____
ROOT
ATOM      1  N   UNL     1       0.603  -2.012  -1.025  0.00  0.00    -0.269 N 
ATOM      2  C   UNL     1       0.582  -0.664  -1.020  0.00  0.00    +0.304 C 
ATOM      3  O   UNL     1       1.098  -0.044  -1.929  0.00  0.00    -0.253 OA
ATOM      4  N   UNL     1      -0.012  -0.004  -0.006  0.00  0.00    -0.299 N 
ATOM      5  H   UNL     1       0.219  -2.572  -0.160  0.00  0.00    +0.156 HD
ATOM      6  H   UNL     1      -0.480  -0.566   0.817  0.00  0.00    +0.150 HD
ENDROOT
BRANCH   1  11
ATOM      7  C   UNL     1       2.677  -4.795  -5.513  0.00  0.00    +0.044 C 
ATOM      8  C   UNL     1       2.126  -4.056  -4.321  0.00  0.00    -0.050 A 
ATOM      9  C   UNL     1       1.624  -2.777  -4.474  0.00  0.00    +0.005 A 
ATOM     10  C   UNL     1       1.119  -2.096  -3.384  0.00  0.00    +0.024 A 
ATOM     11  C   UNL     1       1.115  -2.699  -2.132  0.00  0.00    +0.038 A 
ATOM     12  C   UNL     1       1.623  -3.982  -1.981  0.00  0.00    -0.029 A 
ATOM     13  C   UNL     1       2.123  -4.659  -3.077  0.00  0.00    +0.008 A 
ATOM     14  C   UNL     1       1.626  -4.637  -0.624  0.00  0.00    +0.045 C 
ENDBRANCH   1  11
BRANCH   4  15
ATOM     15  C   UNL     1      -0.036   1.460   0.001  0.00  0.00    +0.104 C 
BRANCH  15  16
ATOM     16  C   UNL     1      -0.765   1.953   1.252  0.00  0.00    +0.000 C 
BRANCH  16  17
ATOM     17  C   UNL     1      -0.790   3.483   1.259  0.00  0.00    -0.077 C 
BRANCH  17  18
ATOM     18  N   UNL     1      -1.490   3.956   2.461  0.00  0.00    +0.383 N 
ATOM     19  C   UNL     1      -1.329   5.410   2.626  0.00  0.00    -0.074 C 
ATOM     20  C   UNL     1      -2.355   5.897   3.650  0.00  0.00    +0.017 C 
ATOM     21  C   UNL     1      -2.288   5.046   4.891  0.00  0.00    -0.048 A 
ATOM     22  C   UNL     1      -2.871   5.526   6.055  0.00  0.00    +0.004 A 
ATOM     23  C   UNL     1      -2.836   4.775   7.213  0.00  0.00    +0.000 A 
ATOM     24  C   UNL     1      -2.216   3.540   7.214  0.00  0.00    +0.000 A 
ATOM     25  C   UNL     1      -1.633   3.062   6.057  0.00  0.00    +0.002 A 
ATOM     26  C   UNL     1      -1.667   3.815   4.892  0.00  0.00    -0.061 A 
ATOM     27  C   UNL     1      -1.014   3.254   3.657  0.00  0.00    -0.043 C 
ATOM     28  H   UNL     1      -2.559   3.734   2.333  0.00  0.00    -0.081 HD
ENDBRANCH  17  18
ENDBRANCH  16  17
ENDBRANCH  15  16
ENDBRANCH   4  15
TORSDOF 5
