REMARK  Name = ZINC39760383
REMARK  6 active torsions:
REMARK  status: ('A' for Active; 'I' for Inactive)
REMARK    1  A    between atoms: C_1  and  N_2
REMARK    2  A    between atoms: C_6  and  C_8
REMARK    3  A    between atoms: C_8  and  S_9
REMARK    4  A    between atoms: S_9  and  C_10
REMARK    5  A    between atoms: C_14  and  C_19
REMARK    6  A    between atoms: N_15  and  C_16
REMARK                            x       y       z     vdW  Elec       q    Type
REMARK                         _______ _______ _______ _____ _____    ______ ____
ROOT
ATOM      1  C   UNL     1      -3.810  -6.731   0.027  0.00  0.00    +0.237 C 
ATOM      2  N   UNL     1      -3.109  -7.303  -1.134  0.00  0.00    -0.237 N 
ATOM      3  N   UNL     1      -1.877  -7.774  -0.662  0.00  0.00    -0.169 NA
ATOM      4  C   UNL     1      -1.748  -7.561   0.621  0.00  0.00    +0.147 C 
ATOM      5  N   UNL     1      -2.879  -6.926   1.150  0.00  0.00    -0.282 N 
ATOM      6  H   UNL     1      -3.435  -7.346  -2.046  0.00  0.00    +0.171 HD
ENDROOT
BRANCH   4   7
ATOM      7  C   UNL     1      -0.621  -7.925   1.373  0.00  0.00    +0.022 C 
ATOM      8  C   UNL     1       0.573  -8.467   0.896  0.00  0.00    +0.006 A 
ATOM      9  C   UNL     1       1.014  -8.806  -0.401  0.00  0.00    +0.010 A 
ATOM     10  C   UNL     1       2.255  -9.330  -0.574  0.00  0.00    +0.001 A 
ATOM     11  C   UNL     1       3.116  -9.545   0.505  0.00  0.00    +0.002 A 
ATOM     12  C   UNL     1       2.757  -9.243   1.777  0.00  0.00    +0.026 A 
ATOM     13  C   UNL     1       1.476  -8.692   2.037  0.00  0.00    +0.043 A 
ATOM     14  N   UNL     1       0.898  -8.319   3.162  0.00  0.00    -0.380 N 
ATOM     15  C   UNL     1      -0.443  -7.804   2.871  0.00  0.00    +0.152 C 
ATOM     16  H   UNL     1       1.300  -8.373   4.043  0.00  0.00    +0.160 HD
ENDBRANCH   4   7
BRANCH   5  17
ATOM     17  C   UNL     1      -3.093  -6.533   2.545  0.00  0.00    +0.078 C 
ATOM     18  C   UNL     1      -4.453  -5.933   2.908  0.00  0.00    +0.024 C 
ATOM     19  C   UNL     1      -3.214  -5.038   2.846  0.00  0.00    +0.024 C 
ENDBRANCH   5  17
BRANCH   1  20
ATOM     20  S   UNL     1      -4.130  -4.965  -0.232  0.00  0.00    -0.109 S 
BRANCH  20  21
ATOM     21  C   UNL     1      -2.486  -4.261  -0.536  0.00  0.00    +0.168 C 
BRANCH  21  27
ATOM     22  C   UNL     1      -0.641   1.467  -1.702  0.00  0.00    +0.129 C 
ATOM     23  N   UNL     1      -0.520   0.025  -1.475  0.00  0.00    -0.302 N 
ATOM     24  C   UNL     1      -1.621  -0.713  -1.227  0.00  0.00    +0.306 C 
ATOM     25  O   UNL     1      -2.713  -0.181  -1.192  0.00  0.00    -0.252 OA
ATOM     26  N   UNL     1      -1.510  -2.040  -1.018  0.00  0.00    -0.240 N 
ATOM     27  C   UNL     1      -2.610  -2.777  -0.770  0.00  0.00    +0.230 C 
ATOM     28  O   UNL     1      -3.700  -2.247  -0.735  0.00  0.00    -0.274 OA
ATOM     29  H   UNL     1       0.352  -0.400  -1.502  0.00  0.00    +0.150 HD
ATOM     30  H   UNL     1      -0.638  -2.464  -1.045  0.00  0.00    +0.159 HD
ENDBRANCH  21  27
ENDBRANCH  20  21
ENDBRANCH   1  20
TORSDOF 5
