REMARK  Name = ZINC53045220
REMARK  5 active torsions:
REMARK  status: ('A' for Active; 'I' for Inactive)
REMARK    1  A    between atoms: C_5  and  N_8
REMARK    2  A    between atoms: C_6  and  N_7
REMARK    3  A    between atoms: N_8  and  C_9
REMARK    4  A    between atoms: C_9  and  C_14
REMARK    5  A    between atoms: C_14  and  O_15
REMARK                            x       y       z     vdW  Elec       q    Type
REMARK                         _______ _______ _______ _____ _____    ______ ____
ROOT
ATOM      1  C   UNL     1       0.333   1.553   0.307  0.00  0.00    +0.030 A 
ATOM      2  C   UNL     1       1.574   2.160   0.364  0.00  0.00    -0.024 A 
ATOM      3  C   UNL     1       2.729   1.391   0.316  0.00  0.00    +0.038 A 
ATOM      4  C   UNL     1       2.640   0.010   0.209  0.00  0.00    +0.048 A 
ATOM      5  C   UNL     1       1.398  -0.601   0.152  0.00  0.00    +0.050 A 
ATOM      6  C   UNL     1       0.239   0.175   0.200  0.00  0.00    +0.046 A 
ATOM      7  N   UNL     1       3.984   2.011   0.374  0.00  0.00    -0.285 N 
ATOM      8  C   UNL     1       4.102   3.267   0.843  0.00  0.00    +0.218 C 
ATOM      9  O   UNL     1       5.194   3.795   0.875  0.00  0.00    -0.275 OA
ATOM     10  C   UNL     1       2.896   4.024   1.328  0.00  0.00    +0.101 C 
ATOM     11  C   UNL     1       1.677   3.659   0.480  0.00  0.00    +0.046 C 
ATOM     12  H   UNL     1       4.772   1.532   0.075  0.00  0.00    +0.155 HD
ENDROOT
BRANCH   6  13
ATOM     13  N   UNL     1      -1.020  -0.440   0.141  0.00  0.00    -0.357 N 
ATOM     14  H   UNL     1      -1.825   0.100   0.175  0.00  0.00    +0.142 HD
ATOM     15  H   UNL     1      -1.086  -1.405   0.067  0.00  0.00    +0.142 HD
ENDBRANCH   6  13
BRANCH   5  16
ATOM     16  N   UNL     1       1.305  -1.994   0.044  0.00  0.00    -0.335 N 
ATOM     17  H   UNL     1       0.439  -2.428   0.097  0.00  0.00    +0.147 HD
BRANCH  16  18
ATOM     18  C   UNL     1       2.516  -2.796  -0.147  0.00  0.00    +0.055 C 
ATOM     19  C   UNL     1       2.167  -4.304  -0.184  0.00  0.00    +0.028 C 
ATOM     20  C   UNL     1       2.037  -4.662   1.317  0.00  0.00    +0.002 C 
ATOM     21  C   UNL     1       3.151  -3.841   1.999  0.00  0.00    +0.002 C 
ATOM     22  C   UNL     1       3.455  -2.654   1.068  0.00  0.00    +0.028 C 
BRANCH  18  23
ATOM     23  C   UNL     1       3.235  -2.378  -1.432  0.00  0.00    +0.181 C 
BRANCH  23  24
ATOM     24  O   UNL     1       2.327  -2.454  -2.533  0.00  0.00    -0.393 OA
ATOM     25  H   UNL     1       2.716  -2.203  -3.381  0.00  0.00    +0.209 HD
ENDBRANCH  23  24
ENDBRANCH  18  23
ENDBRANCH  16  18
ENDBRANCH   5  16
TORSDOF 5
