REMARK  Name = ZINC39939550
REMARK  6 active torsions:
REMARK  status: ('A' for Active; 'I' for Inactive)
REMARK    1  A    between atoms: C_1  and  C_2
REMARK    2  A    between atoms: C_14  and  C_16
REMARK    3  A    between atoms: C_16  and  S_17
REMARK    4  A    between atoms: S_17  and  C_18
REMARK    5  A    between atoms: C_22  and  C_27
REMARK    6  A    between atoms: N_23  and  C_24
REMARK                            x       y       z     vdW  Elec       q    Type
REMARK                         _______ _______ _______ _____ _____    ______ ____
ROOT
ATOM      1  C   UNL     1      -1.666  -5.221   5.482  0.00  0.00    +0.237 C 
ATOM      2  N   UNL     1      -0.480  -4.424   5.838  0.00  0.00    -0.237 N 
ATOM      3  N   UNL     1       0.622  -5.279   5.725  0.00  0.00    -0.169 NA
ATOM      4  C   UNL     1       0.257  -6.477   5.352  0.00  0.00    +0.147 C 
ATOM      5  N   UNL     1      -1.130  -6.557   5.175  0.00  0.00    -0.282 N 
ATOM      6  H   UNL     1      -0.466  -3.489   6.098  0.00  0.00    +0.171 HD
ENDROOT
BRANCH   4   7
ATOM      7  C   UNL     1       1.142  -7.548   5.155  0.00  0.00    +0.022 C 
ATOM      8  C   UNL     1       2.514  -7.566   5.408  0.00  0.00    +0.006 A 
ATOM      9  C   UNL     1       3.404  -6.593   5.908  0.00  0.00    +0.010 A 
ATOM     10  C   UNL     1       4.720  -6.894   6.055  0.00  0.00    +0.001 A 
ATOM     11  C   UNL     1       5.223  -8.154   5.721  0.00  0.00    +0.002 A 
ATOM     12  C   UNL     1       4.425  -9.137   5.235  0.00  0.00    +0.026 A 
ATOM     13  C   UNL     1       3.039  -8.896   5.055  0.00  0.00    +0.043 A 
ATOM     14  N   UNL     1       2.070  -9.670   4.608  0.00  0.00    -0.380 N 
ATOM     15  C   UNL     1       0.807  -8.927   4.629  0.00  0.00    +0.152 C 
ATOM     16  H   UNL     1       2.175 -10.589   4.315  0.00  0.00    +0.160 HD
ENDBRANCH   4   7
BRANCH   5  17
ATOM     17  C   UNL     1      -1.897  -7.735   4.763  0.00  0.00    +0.078 C 
ATOM     18  C   UNL     1      -3.402  -7.559   4.550  0.00  0.00    +0.024 C 
ATOM     19  C   UNL     1      -2.886  -8.322   5.772  0.00  0.00    +0.024 C 
ENDBRANCH   5  17
BRANCH   1  20
ATOM     20  S   UNL     1      -2.491  -4.518   4.028  0.00  0.00    -0.109 S 
BRANCH  20  21
ATOM     21  C   UNL     1      -1.196  -4.494   2.758  0.00  0.00    +0.168 C 
BRANCH  21  34
ATOM     22  C   UNL     1       0.107   0.231  -1.331  0.00  0.00    +0.019 C 
ATOM     23  C   UNL     1       0.106  -1.268  -1.024  0.00  0.00    +0.050 C 
ATOM     24  C   UNL     1      -1.329  -1.760  -0.921  0.00  0.00    +0.033 C 
ATOM     25  C   UNL     1      -1.497  -3.256  -0.864  0.00  0.00    +0.115 C 
ATOM     26  N   UNL     1      -0.969  -3.809   0.392  0.00  0.00    -0.270 N 
ATOM     27  C   UNL     1       0.373  -4.213   0.430  0.00  0.00    +0.050 A 
ATOM     28  C   UNL     1       0.684  -5.568   0.455  0.00  0.00    +0.024 A 
ATOM     29  C   UNL     1       2.007  -5.968   0.444  0.00  0.00    +0.002 A 
ATOM     30  C   UNL     1       3.027  -5.035   0.405  0.00  0.00    +0.001 A 
ATOM     31  C   UNL     1       2.727  -3.682   0.399  0.00  0.00    +0.016 A 
ATOM     32  C   UNL     1       1.404  -3.285   0.434  0.00  0.00    +0.030 A 
ATOM     33  S   UNL     1       0.977  -1.563   0.544  0.00  0.00    -0.120 S 
ATOM     34  C   UNL     1      -1.756  -3.924   1.480  0.00  0.00    +0.230 C 
ATOM     35  O   UNL     1      -2.915  -3.569   1.431  0.00  0.00    -0.274 OA
ENDBRANCH  21  34
ENDBRANCH  20  21
ENDBRANCH   1  20
TORSDOF 5
