REMARK  Name = ZINC20465477
REMARK  10 active torsions:
REMARK  status: ('A' for Active; 'I' for Inactive)
REMARK    1  A    between atoms: C_3  and  C_35
REMARK    2  A    between atoms: C_5  and  N_7
REMARK    3  A    between atoms: N_10  and  C_13
REMARK    4  A    between atoms: C_15  and  C_25
REMARK    5  A    between atoms: C_18  and  C_23
REMARK    6  A    between atoms: C_20  and  O_22
REMARK    7  A    between atoms: C_23  and  O_24
REMARK    8  A    between atoms: C_25  and  N_26
REMARK    9  A    between atoms: N_26  and  C_27
REMARK   10  A    between atoms: C_27  and  C_28
REMARK                            x       y       z     vdW  Elec       q    Type
REMARK                         _______ _______ _______ _____ _____    ______ ____
ROOT
ATOM      1  C   UNL     1       5.928  -0.870  -2.993  0.00  0.00    +0.115 C 
ATOM      2  C   UNL     1       4.425  -0.535  -2.928  0.00  0.00    +0.122 C 
ATOM      3  O   UNL     1       4.259   0.798  -3.438  0.00  0.00    -0.369 OA
ATOM      4  C   UNL     1       5.354   1.041  -4.347  0.00  0.00    +0.174 C 
ATOM      5  C   UNL     1       6.567   0.390  -3.635  0.00  0.00    +0.165 C 
ENDROOT
BRANCH   1   9
ATOM      6  N   UNL     1       8.061  -2.395   0.319  0.00  0.00    -0.327 N 
ATOM      7  C   UNL     1       6.603  -2.576   0.297  0.00  0.00    +0.120 C 
ATOM      8  C   UNL     1       6.094  -2.418  -1.138  0.00  0.00    +0.104 C 
ATOM      9  N   UNL     1       6.465  -1.089  -1.643  0.00  0.00    -0.292 NA
ATOM     10  C   UNL     1       7.923  -0.908  -1.621  0.00  0.00    +0.104 C 
ATOM     11  C   UNL     1       8.432  -1.066  -0.186  0.00  0.00    +0.120 C 
BRANCH   6  16
ATOM     12  C   UNL     1       8.224  -3.138   3.915  0.00  0.00    +0.002 A 
ATOM     13  C   UNL     1       9.582  -3.014   4.146  0.00  0.00    +0.012 A 
ATOM     14  C   UNL     1      10.436  -2.686   3.109  0.00  0.00    +0.057 A 
ATOM     15  C   UNL     1       9.935  -2.480   1.838  0.00  0.00    +0.035 A 
ATOM     16  C   UNL     1       8.571  -2.603   1.603  0.00  0.00    +0.030 A 
ATOM     17  C   UNL     1       7.716  -2.928   2.648  0.00  0.00    +0.023 A 
BRANCH  14  18
ATOM     18  C   UNL     1      11.915  -2.552   3.365  0.00  0.00    +0.417 C 
ATOM     19  F   UNL     1      12.210  -1.230   3.716  0.00  0.00    -0.166 F 
ATOM     20  F   UNL     1      12.286  -3.406   4.409  0.00  0.00    -0.166 F 
ATOM     21  F   UNL     1      12.622  -2.896   2.208  0.00  0.00    -0.166 F 
ENDBRANCH  14  18
ENDBRANCH   6  16
ENDBRANCH   1   9
BRANCH   5  22
ATOM     22  O   UNL     1       7.099   1.260  -2.634  0.00  0.00    -0.388 OA
ATOM     23  H   UNL     1       7.587   2.201  -2.928  0.00  0.00    +0.210 HD
ENDBRANCH   5  22
BRANCH   4  24
ATOM     24  C   UNL     1       5.577   2.543  -4.532  0.00  0.00    +0.190 C 
BRANCH  24  25
ATOM     25  O   UNL     1       4.451   3.113  -5.203  0.00  0.00    -0.392 OA
ATOM     26  H   UNL     1       4.431   4.190  -5.425  0.00  0.00    +0.210 HD
ENDBRANCH  24  25
ENDBRANCH   4  24
BRANCH   2  27
ATOM     27  C   UNL     1       3.939  -0.602  -1.479  0.00  0.00    -0.049 C 
BRANCH  27  28
ATOM     28  N   UNL     1       2.588  -0.033  -1.389  0.00  0.00    +0.383 N 
ATOM     29  H   UNL     1       2.609   1.016  -1.720  0.00  0.00    -0.085 HD
ATOM     30  H   UNL     1       1.905  -0.607  -2.031  0.00  0.00    -0.085 HD
BRANCH  28  31
ATOM     31  C   UNL     1       2.088  -0.080  -0.008  0.00  0.00    -0.047 C 
BRANCH  31  32
ATOM     32  C   UNL     1       0.703   0.511   0.045  0.00  0.00    -0.064 A 
ATOM     33  C   UNL     1      -0.402  -0.300  -0.138  0.00  0.00    +0.004 A 
ATOM     34  C   UNL     1      -1.672   0.242  -0.096  0.00  0.00    +0.038 A 
ATOM     35  C   UNL     1      -1.839   1.596   0.141  0.00  0.00    +0.123 A 
ATOM     36  C   UNL     1      -0.732   2.407   0.325  0.00  0.00    +0.038 A 
ATOM     37  C   UNL     1       0.538   1.864   0.276  0.00  0.00    +0.004 A 
ATOM     38  F   UNL     1      -3.081   2.126   0.189  0.00  0.00    -0.205 F 
ENDBRANCH  31  32
ENDBRANCH  28  31
ENDBRANCH  27  28
ENDBRANCH   2  27
TORSDOF 10
