REMARK  Name = ZINC63820704
REMARK  6 active torsions:
REMARK  status: ('A' for Active; 'I' for Inactive)
REMARK    1  A    between atoms: C_4  and  N_7
REMARK    2  A    between atoms: C_10  and  C_15
REMARK    3  A    between atoms: C_15  and  O_16
REMARK    4  A    between atoms: O_16  and  C_17
REMARK    5  A    between atoms: C_17  and  C_19
REMARK    6  A    between atoms: C_19  and  C_20
REMARK                            x       y       z     vdW  Elec       q    Type
REMARK                         _______ _______ _______ _____ _____    ______ ____
ROOT
ATOM      1  N   UNL     1       3.621  -0.650  -0.037  0.00  0.00    -0.284 N 
ATOM      2  C   UNL     1       3.645  -2.028   0.059  0.00  0.00    +0.224 A 
ATOM      3  N   UNL     1       4.808  -2.670   0.150  0.00  0.00    -0.196 NA
ATOM      4  C   UNL     1       4.831  -3.987   0.242  0.00  0.00    +0.173 A 
ATOM      5  N   UNL     1       3.702  -4.674   0.245  0.00  0.00    -0.196 NA
ATOM      6  C   UNL     1       2.535  -4.039   0.155  0.00  0.00    +0.217 A 
ATOM      7  N   UNL     1       2.507  -2.714   0.068  0.00  0.00    -0.181 NA
ATOM      8  N   UNL     1       1.356  -4.757   0.158  0.00  0.00    -0.327 N 
ATOM      9  H   UNL     1       4.451  -0.155  -0.124  0.00  0.00    +0.155 HD
ATOM     10  H   UNL     1       1.378  -5.724   0.226  0.00  0.00    +0.145 HD
ATOM     11  H   UNL     1       0.507  -4.293   0.093  0.00  0.00    +0.145 HD
ENDROOT
BRANCH   1  15
ATOM     12  C   UNL     1      -0.014   1.382   0.044  0.00  0.00    +0.000 A 
ATOM     13  C   UNL     1       0.143   0.219   0.777  0.00  0.00    +0.002 A 
ATOM     14  C   UNL     1       1.347  -0.457   0.752  0.00  0.00    +0.023 A 
ATOM     15  C   UNL     1       2.400   0.032  -0.010  0.00  0.00    +0.034 A 
ATOM     16  C   UNL     1       2.239   1.199  -0.745  0.00  0.00    +0.023 A 
ATOM     17  C   UNL     1       1.032   1.871  -0.716  0.00  0.00    +0.002 A 
ENDBRANCH   1  15
BRANCH   4  18
ATOM     18  C   UNL     1       6.150  -4.710   0.344  0.00  0.00    +0.308 C 
BRANCH  18  19
ATOM     19  O   UNL     1       6.514  -4.845   1.719  0.00  0.00    -0.456 OA
BRANCH  19  20
ATOM     20  C   UNL     1       7.672  -5.471   1.984  0.00  0.00    +0.312 C 
ATOM     21  O   UNL     1       8.353  -5.890   1.079  0.00  0.00    -0.250 OA
BRANCH  20  22
ATOM     22  C   UNL     1       8.121  -5.651   3.411  0.00  0.00    +0.153 C 
BRANCH  22  23
ATOM     23  C   UNL     1       9.441  -6.378   3.434  0.00  0.00    -0.031 C 
ATOM     24  C   UNL     1      10.674  -5.824   3.501  0.00  0.00    -0.001 A 
ATOM     25  C   UNL     1      11.136  -4.433   3.569  0.00  0.00    +0.010 A 
ATOM     26  C   UNL     1      12.465  -4.185   3.627  0.00  0.00    +0.001 A 
ATOM     27  C   UNL     1      13.408  -5.222   3.625  0.00  0.00    +0.002 A 
ATOM     28  C   UNL     1      13.060  -6.525   3.564  0.00  0.00    +0.026 A 
ATOM     29  C   UNL     1      11.690  -6.900   3.500  0.00  0.00    +0.043 A 
ATOM     30  N   UNL     1      11.109  -8.074   3.435  0.00  0.00    -0.380 N 
ATOM     31  C   UNL     1       9.656  -7.874   3.394  0.00  0.00    +0.145 C 
ATOM     32  H   UNL     1      11.563  -8.930   3.421  0.00  0.00    +0.160 HD
ENDBRANCH  22  23
ENDBRANCH  20  22
ENDBRANCH  19  20
ENDBRANCH  18  19
ENDBRANCH   4  18
TORSDOF 6
