REMARK  Name = ZINC63686711
REMARK  7 active torsions:
REMARK  status: ('A' for Active; 'I' for Inactive)
REMARK    1  A    between atoms: C_7  and  C_10
REMARK    2  A    between atoms: C_10  and  C_11
REMARK    3  A    between atoms: C_11  and  N_12
REMARK    4  A    between atoms: C_13  and  C_15
REMARK    5  A    between atoms: C_15  and  C_16
REMARK    6  A    between atoms: C_20  and  N_23
REMARK    7  A    between atoms: N_26  and  C_27
REMARK                            x       y       z     vdW  Elec       q    Type
REMARK                         _______ _______ _______ _____ _____    ______ ____
ROOT
ATOM      1  C   UNL     1      -1.975  -7.017  -4.060  0.00  0.00    +0.075 C 
ATOM      2  C   UNL     1      -3.046  -8.149  -4.064  0.00  0.00    +0.091 C 
ATOM      3  S   UNL     1      -2.663  -8.914  -5.700  0.00  0.00    -0.121 S 
ATOM      4  C   UNL     1      -0.950  -8.272  -5.903  0.00  0.00    +0.203 C 
ATOM      5  N   UNL     1      -0.722  -7.555  -4.622  0.00  0.00    -0.286 NA
ATOM      6  H   UNL     1      -0.034  -6.826  -4.735  0.00  0.00    +0.125 HD
ENDROOT
BRANCH   4   7
ATOM      7  N   UNL     1       0.003  -9.374  -6.062  0.00  0.00    -0.275 N 
ATOM      8  C   UNL     1       0.089 -10.025  -7.239  0.00  0.00    +0.306 C 
ATOM      9  O   UNL     1      -0.623  -9.699  -8.168  0.00  0.00    -0.252 OA
ATOM     10  N   UNL     1       0.966 -11.039  -7.385  0.00  0.00    -0.269 N 
ATOM     11  H   UNL     1       0.571  -9.635  -5.321  0.00  0.00    +0.153 HD
ATOM     12  H   UNL     1       1.580 -11.256  -6.667  0.00  0.00    +0.156 HD
BRANCH  10  13
ATOM     13  C   UNL     1       0.989 -11.778  -8.573  0.00  0.00    +0.036 A 
ATOM     14  C   UNL     1       1.260 -13.140  -8.541  0.00  0.00    +0.023 A 
ATOM     15  C   UNL     1       1.281 -13.867  -9.714  0.00  0.00    +0.003 A 
ATOM     16  C   UNL     1       1.034 -13.241 -10.922  0.00  0.00    +0.020 A 
ATOM     17  C   UNL     1       0.764 -11.884 -10.959  0.00  0.00    +0.043 A 
ATOM     18  C   UNL     1       0.735 -11.152  -9.786  0.00  0.00    +0.043 A 
ATOM     19 CL   UNL     1       0.455 -11.102 -12.478  0.00  0.00    -0.083 Cl
ENDBRANCH  10  13
ENDBRANCH   4   7
BRANCH   1  20
ATOM     20  C   UNL     1      -1.733  -6.542  -2.625  0.00  0.00    +0.115 C 
BRANCH  20  22
ATOM     21  N   UNL     1      -0.437  -4.775  -1.479  0.00  0.00    -0.315 N 
ATOM     22  C   UNL     1      -0.795  -5.363  -2.638  0.00  0.00    +0.215 C 
ATOM     23  O   UNL     1      -0.362  -4.944  -3.690  0.00  0.00    -0.276 OA
ATOM     24  H   UNL     1      -0.783  -5.110  -0.637  0.00  0.00    +0.149 HD
BRANCH  21  25
ATOM     25  C   UNL     1       0.476  -3.629  -1.491  0.00  0.00    +0.108 C 
BRANCH  25  26
ATOM     26  C   UNL     1       0.717  -3.154  -0.057  0.00  0.00    +0.052 C 
BRANCH  26  33
ATOM     27  C   UNL     1       0.001   1.378  -0.039  0.00  0.00    +0.001 A 
ATOM     28  C   UNL     1       1.181   2.134  -0.056  0.00  0.00    +0.002 A 
ATOM     29  C   UNL     1       2.408   1.570  -0.075  0.00  0.00    +0.026 A 
ATOM     30  C   UNL     1       2.549   0.155  -0.079  0.00  0.00    +0.043 A 
ATOM     31  N   UNL     1       3.608  -0.617  -0.097  0.00  0.00    -0.380 N 
ATOM     32  C   UNL     1       3.167  -2.017  -0.093  0.00  0.00    +0.144 C 
ATOM     33  C   UNL     1       1.656  -1.975  -0.069  0.00  0.00    -0.040 C 
ATOM     34  C   UNL     1       1.317  -0.666  -0.061  0.00  0.00    -0.001 A 
ATOM     35  C   UNL     1       0.022   0.026  -0.040  0.00  0.00    +0.010 A 
ATOM     36  H   UNL     1       4.529  -0.314  -0.112  0.00  0.00    +0.160 HD
ENDBRANCH  26  33
ENDBRANCH  25  26
ENDBRANCH  21  25
ENDBRANCH  20  22
ENDBRANCH   1  20
TORSDOF 7
