REMARK  Name = ZINC10068177
REMARK  9 active torsions:
REMARK  status: ('A' for Active; 'I' for Inactive)
REMARK    1  A    between atoms: C_1  and  N_58
REMARK    2  A    between atoms: C_2  and  N_58
REMARK    3  A    between atoms: C_3  and  C_4
REMARK    4  A    between atoms: C_3  and  N_58
REMARK    5  A    between atoms: C_4  and  C_5
REMARK    6  A    between atoms: C_5  and  N_6
REMARK    7  A    between atoms: C_19  and  C_21
REMARK    8  A    between atoms: C_30  and  O_31
REMARK    9  A    between atoms: O_31  and  C_32
REMARK                            x       y       z     vdW  Elec       q    Type
REMARK                         _______ _______ _______ _____ _____    ______ ____
ROOT
ATOM      1  N   UNL     1      -1.797  -5.834   1.056  0.00  0.00    -0.246 N 
ATOM      2  C   UNL     1      -1.287  -4.621   0.626  0.00  0.00    +0.168 A 
ATOM      3  N   UNL     1      -1.731  -3.409   0.865  0.00  0.00    -0.224 NA
ATOM      4  C   UNL     1      -1.127  -2.303   0.375  0.00  0.00    +0.084 A 
ATOM      5  C   UNL     1      -1.503  -0.952   0.558  0.00  0.00    +0.078 A 
ATOM      6  C   UNL     1      -0.777   0.068  -0.012  0.00  0.00    +0.168 A 
ATOM      7  C   UNL     1       0.353  -0.203  -0.788  0.00  0.00    +0.167 A 
ATOM      8  C   UNL     1       0.746  -1.516  -0.986  0.00  0.00    +0.066 A 
ATOM      9  C   UNL     1       0.020  -2.534  -0.416  0.00  0.00    +0.044 A 
ATOM     10  S   UNL     1       0.145  -4.306  -0.397  0.00  0.00    -0.052 S 
ATOM     11  O   UNL     1       0.880   0.976  -1.226  0.00  0.00    -0.453 OA
ATOM     12  C   UNL     1       0.307   1.990  -0.378  0.00  0.00    +0.466 C 
ATOM     13  O   UNL     1      -0.952   1.424   0.030  0.00  0.00    -0.453 OA
ATOM     14  C   UNL     1      -1.192  -6.984   0.700  0.00  0.00    +0.256 C 
ATOM     15  O   UNL     1      -0.180  -6.955   0.027  0.00  0.00    -0.269 OA
ENDROOT
BRANCH  14  16
ATOM     16  C   UNL     1      -1.757  -8.278   1.127  0.00  0.00    +0.079 A 
ATOM     17  C   UNL     1      -3.117  -8.389   1.369  0.00  0.00    +0.025 A 
ATOM     18  C   UNL     1      -3.649  -9.623   1.770  0.00  0.00    -0.017 A 
ATOM     19  C   UNL     1      -5.026  -9.773   2.020  0.00  0.00    +0.008 A 
ATOM     20  C   UNL     1      -5.512 -10.981   2.412  0.00  0.00    +0.001 A 
ATOM     21  C   UNL     1      -4.665 -12.077   2.572  0.00  0.00    +0.001 A 
ATOM     22  C   UNL     1      -3.329 -11.971   2.339  0.00  0.00    +0.008 A 
ATOM     23  C   UNL     1      -2.788 -10.739   1.932  0.00  0.00    -0.014 A 
ATOM     24  C   UNL     1      -1.412 -10.599   1.685  0.00  0.00    +0.055 A 
ATOM     25  C   UNL     1      -0.909  -9.394   1.291  0.00  0.00    +0.133 A 
BRANCH  25  26
ATOM     26  O   UNL     1       0.421  -9.267   1.054  0.00  0.00    -0.494 OA
ATOM     27  C   UNL     1       1.227 -10.432   1.238  0.00  0.00    +0.277 C 
ENDBRANCH  25  26
ENDBRANCH  14  16
BRANCH   1  28
ATOM     28  C   UNL     1      -2.995  -5.867   1.899  0.00  0.00    +0.114 C 
BRANCH  28  29
ATOM     29  C   UNL     1      -4.217  -5.478   1.064  0.00  0.00    +0.001 C 
BRANCH  29  30
ATOM     30  C   UNL     1      -5.468  -5.513   1.944  0.00  0.00    -0.078 C 
BRANCH  30  33
ATOM     31  C   UNL     1      -6.914  -6.146   0.107  0.00  0.00    -0.097 C 
ATOM     32  C   UNL     1      -7.818  -4.931   1.996  0.00  0.00    -0.097 C 
ATOM     33  N   UNL     1      -6.635  -5.114   1.129  0.00  0.00    +0.376 N 
ATOM     34  H   UNL     1      -6.426  -4.226   0.658  0.00  0.00    -0.083 HD
ENDBRANCH  30  33
ENDBRANCH  29  30
ENDBRANCH  28  29
ENDBRANCH   1  28
TORSDOF 6
