REMARK  Name = ZINC37715267
REMARK  7 active torsions:
REMARK  status: ('A' for Active; 'I' for Inactive)
REMARK    1  A    between atoms: C_2  and  C_13
REMARK    2  A    between atoms: C_13  and  N_14
REMARK    3  A    between atoms: N_14  and  C_15
REMARK    4  A    between atoms: C_15  and  C_16
REMARK    5  A    between atoms: C_16  and  C_17
REMARK    6  A    between atoms: C_17  and  C_18
REMARK    7  A    between atoms: C_18  and  N_19
REMARK                            x       y       z     vdW  Elec       q    Type
REMARK                         _______ _______ _______ _____ _____    ______ ____
ROOT
ATOM      1  C   UNL     1      -0.017   1.380   0.010  0.00  0.00    +0.051 A 
ATOM      2  C   UNL     1       1.175   2.083   0.002  0.00  0.00    -0.060 A 
ATOM      3  C   UNL     1       2.381   1.407  -0.013  0.00  0.00    +0.021 A 
ATOM      4  C   UNL     1       2.404   0.023  -0.022  0.00  0.00    +0.063 A 
ATOM      5  C   UNL     1       1.212  -0.683  -0.014  0.00  0.00    +0.176 A 
ATOM      6  C   UNL     1       0.002  -0.004   0.002  0.00  0.00    +0.163 A 
ATOM      7  O   UNL     1      -1.167  -0.709   0.010  0.00  0.00    -0.488 OA
ATOM      8  C   UNL     1      -1.468  -1.433  -1.184  0.00  0.00    +0.232 C 
ATOM      9  C   UNL     1      -0.780  -2.789  -1.181  0.00  0.00    +0.082 C 
ATOM     10  C   UNL     1       0.736  -2.670  -1.212  0.00  0.00    +0.232 C 
ATOM     11  O   UNL     1       1.220  -2.048  -0.021  0.00  0.00    -0.487 OA
ATOM     12 BR   UNL     1       4.054  -0.900  -0.044  0.00  0.00    -0.046 Br
ENDROOT
BRANCH   2  13
ATOM     13  C   UNL     1       1.159   3.590   0.010  0.00  0.00    -0.047 C 
BRANCH  13  14
ATOM     14  N   UNL     1       1.167   4.072   1.398  0.00  0.00    +0.382 N 
ATOM     15  H   UNL     1       0.351   3.724   1.879  0.00  0.00    -0.085 HD
ATOM     16  H   UNL     1       1.999   3.742   1.864  0.00  0.00    -0.085 HD
BRANCH  14  17
ATOM     17  C   UNL     1       1.151   5.541   1.405  0.00  0.00    -0.082 C 
BRANCH  17  18
ATOM     18  C   UNL     1       1.159   6.043   2.851  0.00  0.00    -0.021 C 
BRANCH  18  19
ATOM     19  C   UNL     1       1.143   7.573   2.859  0.00  0.00    -0.021 C 
BRANCH  19  20
ATOM     20  C   UNL     1       1.151   8.076   4.304  0.00  0.00    -0.087 C 
BRANCH  20  21
ATOM     21  N   UNL     1       1.135   9.544   4.312  0.00  0.00    +0.378 N 
ATOM     22  H   UNL     1       1.951   9.892   3.830  0.00  0.00    -0.090 HD
ATOM     23  H   UNL     1       0.303   9.874   3.846  0.00  0.00    -0.090 HD
ATOM     24  H   UNL     1       1.140   9.876   5.265  0.00  0.00    -0.090 HD
ENDBRANCH  20  21
ENDBRANCH  19  20
ENDBRANCH  18  19
ENDBRANCH  17  18
ENDBRANCH  14  17
ENDBRANCH  13  14
ENDBRANCH   2  13
TORSDOF 7
