REMARK  Name = ZINC39696200
REMARK  12 active torsions:
REMARK  status: ('A' for Active; 'I' for Inactive)
REMARK    1  A    between atoms: C_1  and  C_2
REMARK    2  A    between atoms: C_2  and  C_3
REMARK    3  A    between atoms: C_6  and  C_9
REMARK    4  A    between atoms: C_9  and  C_11
REMARK    5  A    between atoms: C_9  and  N_12
REMARK    6  A    between atoms: C_13  and  C_15
REMARK    7  A    between atoms: C_26  and  C_28
REMARK    8  A    between atoms: C_30  and  C_37
REMARK    9  A    between atoms: N_32  and  C_33
REMARK   10  A    between atoms: C_33  and  C_34
REMARK   11  A    between atoms: C_33  and  C_35
REMARK   12  A    between atoms: C_33  and  C_36
REMARK                            x       y       z     vdW  Elec       q    Type
REMARK                         _______ _______ _______ _____ _____    ______ ____
ROOT
ATOM      1  C   UNL     1       2.271  -4.913   6.849  0.00  0.00    +0.100 C 
ATOM      2  C   UNL     1       1.478  -5.756   5.825  0.00  0.00    +0.121 C 
ATOM      3  N   UNL     1       2.247  -7.016   5.701  0.00  0.00    -0.295 N 
ATOM      4  C   UNL     1       2.693  -7.314   7.083  0.00  0.00    +0.115 C 
ATOM      5  C   UNL     1       3.064  -5.939   7.675  0.00  0.00    -0.004 C 
ATOM      6  C   UNL     1       2.654  -5.867   9.143  0.00  0.00    -0.010 C 
ATOM      7  C   UNL     1       3.497  -6.855   9.953  0.00  0.00    -0.082 C 
ATOM      8  N   UNL     1       4.920  -6.524   9.805  0.00  0.00    +0.379 N 
ATOM      9  C   UNL     1       5.329  -6.686   8.405  0.00  0.00    -0.082 C 
ATOM     10  C   UNL     1       4.563  -5.691   7.529  0.00  0.00    -0.010 C 
ATOM     11  C   UNL     1       2.487  -7.731   4.584  0.00  0.00    +0.265 C 
ATOM     12  O   UNL     1       3.150  -8.749   4.644  0.00  0.00    -0.268 OA
ATOM     13  H   UNL     1       5.072  -5.568  10.090  0.00  0.00    -0.086 HD
ATOM     14  H   UNL     1       5.469  -7.137  10.388  0.00  0.00    -0.086 HD
ENDROOT
BRANCH  11  15
ATOM     15  C   UNL     1       1.947  -7.280   3.292  0.00  0.00    +0.124 A 
ATOM     16  C   UNL     1       1.013  -6.279   3.085  0.00  0.00    +0.057 A 
ATOM     17  C   UNL     1       0.827  -6.226   1.702  0.00  0.00    +0.061 A 
ATOM     18  N   UNL     1       1.600  -7.132   1.158  0.00  0.00    -0.175 NA
ATOM     19  N   UNL     1       2.271  -7.761   2.055  0.00  0.00    -0.254 N 
ATOM     20  C   UNL     1      -0.099  -5.293   0.966  0.00  0.00    +0.067 C 
BRANCH  19  21
ATOM     21  C   UNL     1       3.235  -8.832   1.791  0.00  0.00    +0.056 C 
ATOM     22  C   UNL     1       2.729 -10.136   2.412  0.00  0.00    +0.036 C 
ATOM     23  C   UNL     1       3.394  -9.015   0.281  0.00  0.00    +0.036 C 
ATOM     24  C   UNL     1       4.587  -8.466   2.407  0.00  0.00    +0.036 C 
ENDBRANCH  19  21
ENDBRANCH  11  15
BRANCH   1  26
ATOM     25  N   UNL     1       3.682  -2.883   6.775  0.00  0.00    -0.308 N 
ATOM     26  C   UNL     1       3.210  -3.973   6.138  0.00  0.00    +0.219 C 
ATOM     27  O   UNL     1       3.542  -4.197   4.993  0.00  0.00    -0.275 OA
ATOM     28  H   UNL     1       3.362  -2.664   7.664  0.00  0.00    +0.149 HD
BRANCH  25  29
ATOM     29  C   UNL     1       4.678  -2.028   6.124  0.00  0.00    +0.100 C 
ATOM     30  C   UNL     1       6.077  -2.597   6.371  0.00  0.00    +0.033 C 
BRANCH  29  34
ATOM     31  C   UNL     1       4.438   1.919   7.739  0.00  0.00    -0.048 A 
ATOM     32  C   UNL     1       4.643   1.738   6.384  0.00  0.00    +0.004 A 
ATOM     33  C   UNL     1       4.720   0.461   5.862  0.00  0.00    +0.006 A 
ATOM     34  C   UNL     1       4.594  -0.635   6.694  0.00  0.00    -0.027 A 
ATOM     35  C   UNL     1       4.391  -0.454   8.049  0.00  0.00    +0.006 A 
ATOM     36  C   UNL     1       4.317   0.823   8.572  0.00  0.00    +0.004 A 
BRANCH  31  38
ATOM     37  C   UNL     1       5.752   3.785   8.710  0.00  0.00    +0.009 C 
ATOM     38  C   UNL     1       4.353   3.312   8.309  0.00  0.00    +0.032 C 
ENDBRANCH  31  38
ENDBRANCH  29  34
ENDBRANCH  25  29
ENDBRANCH   1  26
TORSDOF 6
