REMARK  Name = ZINC43260340
REMARK  9 active torsions:
REMARK  status: ('A' for Active; 'I' for Inactive)
REMARK    1  A    between atoms: C_1  and  C_2
REMARK    2  A    between atoms: C_2  and  C_3
REMARK    3  A    between atoms: C_7  and  C_24
REMARK    4  A    between atoms: N_10  and  C_11
REMARK    5  A    between atoms: C_11  and  C_13
REMARK    6  A    between atoms: C_11  and  C_19
REMARK    7  A    between atoms: C_19  and  C_21
REMARK    8  A    between atoms: C_19  and  N_23
REMARK    9  A    between atoms: C_21  and  C_22
REMARK                            x       y       z     vdW  Elec       q    Type
REMARK                         _______ _______ _______ _____ _____    ______ ____
ROOT
ATOM      1  C   UNL     1       2.186   1.456  -0.980  0.00  0.00    +0.080 C 
ENDROOT
BRANCH   1   7
ATOM      2  C   UNL     1       1.756  -0.033  -2.841  0.00  0.00    +0.083 C 
ATOM      3  C   UNL     1       1.249  -1.429  -3.213  0.00  0.00    +0.179 C 
ATOM      4  O   UNL     1       2.066  -2.414  -2.575  0.00  0.00    -0.374 OA
ATOM      5  C   UNL     1       2.090  -2.306  -1.149  0.00  0.00    +0.129 C 
ATOM      6  C   UNL     1       2.605  -0.919  -0.756  0.00  0.00    +0.116 C 
ATOM      7  N   UNL     1       1.758   0.109  -1.377  0.00  0.00    -0.289 NA
ATOM      8  C   UNL     1       0.675  -2.501  -0.598  0.00  0.00    +0.039 C 
BRANCH   2  10
ATOM      9  C   UNL     1       0.885   0.918  -4.981  0.00  0.00    +0.005 C 
ATOM     10  C   UNL     1       0.838   1.025  -3.455  0.00  0.00    +0.018 C 
ENDBRANCH   2  10
ENDBRANCH   1   7
BRANCH   1  11
ATOM     11  C   UNL     1       1.525   1.830   0.322  0.00  0.00    +0.006 A 
ATOM     12  C   UNL     1       1.058   3.036   0.727  0.00  0.00    +0.014 A 
ATOM     13  C   UNL     1       0.482   3.146   1.979  0.00  0.00    +0.023 A 
ATOM     14  C   UNL     1       0.401   2.043   2.764  0.00  0.00    +0.055 A 
ATOM     15  S   UNL     1       1.146   0.796   1.727  0.00  0.00    -0.085 S 
ATOM     16 BR   UNL     1      -0.321   1.871   4.503  0.00  0.00    -0.043 Br
ENDBRANCH   1  11
BRANCH   1  17
ATOM     17  C   UNL     1       3.706   1.478  -0.804  0.00  0.00    -0.053 C 
BRANCH  17  18
ATOM     18  N   UNL     1       4.120   2.788  -0.285  0.00  0.00    +0.381 N 
ATOM     19  H   UNL     1       3.676   2.952   0.606  0.00  0.00    -0.090 HD
ATOM     20  H   UNL     1       5.122   2.802  -0.170  0.00  0.00    -0.090 HD
ATOM     21  H   UNL     1       3.846   3.510  -0.935  0.00  0.00    -0.090 HD
ENDBRANCH  17  18
BRANCH  17  22
ATOM     22  C   UNL     1       4.378   1.229  -2.156  0.00  0.00    -0.018 C 
ATOM     23  C   UNL     1       5.898   1.306  -1.991  0.00  0.00    +0.002 C 
ENDBRANCH  17  22
ENDBRANCH   1  17
TORSDOF 6
