REMARK  Name = ZINC64044158
REMARK  4 active torsions:
REMARK  status: ('A' for Active; 'I' for Inactive)
REMARK    1  A    between atoms: C_8  and  C_23
REMARK    2  A    between atoms: C_16  and  C_18
REMARK    3  A    between atoms: C_18  and  N_19
REMARK    4  A    between atoms: C_27  and  C_29
REMARK                            x       y       z     vdW  Elec       q    Type
REMARK                         _______ _______ _______ _____ _____    ______ ____
ROOT
ATOM      1  C   UNL     1       0.438   1.540   0.061  0.00  0.00    +0.001 A 
ATOM      2  C   UNL     1       1.694   2.161   0.033  0.00  0.00    +0.002 A 
ATOM      3  C   UNL     1       2.850   1.464  -0.004  0.00  0.00    +0.026 A 
ATOM      4  C   UNL     1       2.835   0.043  -0.017  0.00  0.00    +0.043 A 
ATOM      5  N   UNL     1       3.806  -0.840  -0.071  0.00  0.00    -0.375 N 
ATOM      6  C   UNL     1       3.224  -2.177   0.021  0.00  0.00    +0.131 C 
ATOM      7  C   UNL     1       3.604  -3.049  -1.181  0.00  0.00    +0.133 C 
ATOM      8  N   UNL     1       2.679  -4.192  -1.219  0.00  0.00    -0.291 N 
ATOM      9  C   UNL     1       1.234  -3.979  -1.351  0.00  0.00    +0.113 C 
ATOM     10  C   UNL     1       0.739  -3.104  -0.185  0.00  0.00    +0.052 C 
ATOM     11  C   UNL     1       1.720  -1.965  -0.022  0.00  0.00    -0.035 C 
ATOM     12  C   UNL     1       1.518  -0.640   0.006  0.00  0.00    -0.001 A 
ATOM     13  C   UNL     1       0.310   0.194   0.049  0.00  0.00    +0.010 A 
ATOM     14  C   UNL     1       3.164  -5.447  -1.132  0.00  0.00    +0.233 C 
ATOM     15  O   UNL     1       4.344  -5.628  -0.920  0.00  0.00    -0.274 OA
ATOM     16  H   UNL     1       4.751  -0.638  -0.157  0.00  0.00    +0.160 HD
ENDROOT
BRANCH   7  17
ATOM     17  C   UNL     1       5.020  -3.542  -1.026  0.00  0.00    -0.024 A 
ATOM     18  C   UNL     1       5.763  -3.872  -2.144  0.00  0.00    +0.005 A 
ATOM     19  C   UNL     1       7.062  -4.324  -2.002  0.00  0.00    +0.001 A 
ATOM     20  C   UNL     1       7.617  -4.447  -0.741  0.00  0.00    +0.012 A 
ATOM     21  C   UNL     1       6.874  -4.117   0.376  0.00  0.00    +0.055 A 
ATOM     22  C   UNL     1       5.577  -3.660   0.234  0.00  0.00    +0.018 A 
BRANCH  21  23
ATOM     23  C   UNL     1       7.479  -4.250   1.750  0.00  0.00    +0.417 C 
ATOM     24  F   UNL     1       8.791  -4.724   1.638  0.00  0.00    -0.166 F 
ATOM     25  F   UNL     1       7.486  -3.002   2.380  0.00  0.00    -0.166 F 
ATOM     26  F   UNL     1       6.722  -5.151   2.507  0.00  0.00    -0.166 F 
ENDBRANCH  21  23
ENDBRANCH   7  17
BRANCH  14  27
ATOM     27  C   UNL     1       2.239  -6.625  -1.299  0.00  0.00    +0.201 C 
BRANCH  27  28
ATOM     28  N   UNL     1       3.002  -7.868  -1.163  0.00  0.00    -0.291 N 
ATOM     29  C   UNL     1       2.379  -9.058  -1.275  0.00  0.00    +0.297 C 
ATOM     30  O   UNL     1       1.183  -9.099  -1.490  0.00  0.00    -0.253 OA
ATOM     31  N   UNL     1       3.081 -10.201  -1.149  0.00  0.00    -0.313 N 
ATOM     32  H   UNL     1       3.956  -7.835  -0.991  0.00  0.00    +0.151 HD
ATOM     33  H   UNL     1       4.035 -10.168  -0.978  0.00  0.00    +0.146 HD
ATOM     34  H   UNL     1       2.632 -11.057  -1.230  0.00  0.00    +0.146 HD
ENDBRANCH  27  28
ENDBRANCH  14  27
TORSDOF 4
