REMARK  Name = ZINC63374791
REMARK  10 active torsions:
REMARK  status: ('A' for Active; 'I' for Inactive)
REMARK    1  A    between atoms: C_1  and  C_2
REMARK    2  A    between atoms: C_13  and  C_34
REMARK    3  A    between atoms: N_20  and  C_23
REMARK    4  A    between atoms: C_23  and  C_24
REMARK    5  A    between atoms: C_27  and  O_32
REMARK    6  A    between atoms: C_28  and  O_30
REMARK    7  A    between atoms: O_30  and  C_31
REMARK    8  A    between atoms: O_32  and  C_33
REMARK    9  A    between atoms: C_39  and  O_40
REMARK   10  A    between atoms: O_40  and  C_41
REMARK                            x       y       z     vdW  Elec       q    Type
REMARK                         _______ _______ _______ _____ _____    ______ ____
ROOT
ATOM      1  C   UNL     1       0.249   1.565   0.878  0.00  0.00    +0.044 C 
ATOM      2  C   UNL     1       0.177   0.049   0.684  0.00  0.00    +0.135 C 
ATOM      3  C   UNL     1       0.378  -0.172  -0.781  0.00  0.00    +0.139 C 
ATOM      4  C   UNL     1       1.405  -1.271  -0.994  0.00  0.00    -0.027 C 
ATOM      5  C   UNL     1       0.870  -2.130  -1.849  0.00  0.00    -0.000 A 
ATOM      6  C   UNL     1       1.405  -3.339  -2.495  0.00  0.00    +0.010 A 
ATOM      7  C   UNL     1       0.557  -4.000  -3.327  0.00  0.00    +0.001 A 
ATOM      8  C   UNL     1      -0.754  -3.585  -3.578  0.00  0.00    +0.002 A 
ATOM      9  C   UNL     1      -1.327  -2.483  -3.032  0.00  0.00    +0.026 A 
ATOM     10  C   UNL     1      -0.533  -1.702  -2.144  0.00  0.00    +0.043 A 
ATOM     11  N   UNL     1      -0.813  -0.623  -1.500  0.00  0.00    -0.375 N 
ATOM     12  C   UNL     1       2.705  -1.279  -0.227  0.00  0.00    +0.068 C 
ATOM     13  C   UNL     1       2.324  -1.321   1.255  0.00  0.00    +0.121 C 
ATOM     14  N   UNL     1       1.178  -0.495   1.584  0.00  0.00    -0.283 N 
ATOM     15  C   UNL     1       0.969  -0.221   2.915  0.00  0.00    +0.234 C 
ATOM     16  O   UNL     1       1.783  -0.524   3.762  0.00  0.00    -0.274 OA
ATOM     17  C   UNL     1      -0.326   0.477   3.273  0.00  0.00    +0.204 C 
ATOM     18  N   UNL     1      -1.423  -0.137   2.502  0.00  0.00    -0.287 N 
ATOM     19  C   UNL     1      -1.195  -0.339   1.169  0.00  0.00    +0.242 C 
ATOM     20  O   UNL     1      -2.040  -0.796   0.428  0.00  0.00    -0.273 OA
ATOM     21  H   UNL     1      -1.678  -0.183  -1.499  0.00  0.00    +0.160 HD
ENDROOT
BRANCH  12  22
ATOM     22  C   UNL     1       3.490  -0.028  -0.527  0.00  0.00    +0.003 A 
ATOM     23  C   UNL     1       2.889   1.211  -0.410  0.00  0.00    +0.008 A 
ATOM     24  C   UNL     1       3.610   2.358  -0.686  0.00  0.00    +0.001 A 
ATOM     25  C   UNL     1       4.933   2.269  -1.078  0.00  0.00    +0.004 A 
ATOM     26  C   UNL     1       5.538   1.034  -1.196  0.00  0.00    +0.046 A 
ATOM     27  C   UNL     1       4.819  -0.119  -0.915  0.00  0.00    +0.124 A 
BRANCH  27  28
ATOM     28  O   UNL     1       5.414  -1.336  -1.025  0.00  0.00    -0.495 OA
ATOM     29  C   UNL     1       6.784  -1.354  -1.429  0.00  0.00    +0.277 C 
ENDBRANCH  27  28
ENDBRANCH  12  22
BRANCH  18  30
ATOM     30  C   UNL     1      -2.690  -0.513   3.133  0.00  0.00    +0.143 C 
BRANCH  30  31
ATOM     31  C   UNL     1      -3.648   0.648   3.065  0.00  0.00    -0.026 A 
ATOM     32  C   UNL     1      -3.676   1.580   4.086  0.00  0.00    +0.009 A 
ATOM     33  C   UNL     1      -4.553   2.647   4.028  0.00  0.00    +0.050 A 
ATOM     34  C   UNL     1      -5.407   2.784   2.945  0.00  0.00    +0.162 A 
ATOM     35  C   UNL     1      -5.379   1.847   1.917  0.00  0.00    +0.162 A 
ATOM     36  C   UNL     1      -4.494   0.782   1.979  0.00  0.00    +0.054 A 
BRANCH  35  37
ATOM     37  O   UNL     1      -6.215   1.977   0.853  0.00  0.00    -0.491 OA
ATOM     38  C   UNL     1      -6.130   0.977  -0.165  0.00  0.00    +0.277 C 
ENDBRANCH  35  37
BRANCH  34  39
ATOM     39  O   UNL     1      -6.271   3.833   2.887  0.00  0.00    -0.491 OA
ATOM     40  C   UNL     1      -6.245   4.756   3.978  0.00  0.00    +0.277 C 
ENDBRANCH  34  39
ENDBRANCH  30  31
ENDBRANCH  18  30
TORSDOF 6
