REMARK  Name = ZINC62330901
REMARK  7 active torsions:
REMARK  status: ('A' for Active; 'I' for Inactive)
REMARK    1  A    between atoms: C_1  and  N_2
REMARK    2  A    between atoms: C_6  and  C_7
REMARK    3  A    between atoms: C_7  and  N_8
REMARK    4  A    between atoms: N_8  and  C_9
REMARK    5  A    between atoms: C_10  and  C_12
REMARK    6  A    between atoms: C_16  and  N_18
REMARK    7  A    between atoms: N_18  and  N_19
REMARK                            x       y       z     vdW  Elec       q    Type
REMARK                         _______ _______ _______ _____ _____    ______ ____
ROOT
ATOM      1  N   UNL     1       1.454  -0.094   2.947  0.00  0.00    -0.292 N 
ATOM      2  C   UNL     1       2.177   1.172   2.800  0.00  0.00    +0.133 C 
ATOM      3  C   UNL     1       1.991  -1.096   3.670  0.00  0.00    +0.267 C 
ATOM      4  O   UNL     1       1.442  -2.180   3.709  0.00  0.00    -0.268 OA
ENDROOT
BRANCH   3   5
ATOM      5  C   UNL     1       3.251  -0.878   4.418  0.00  0.00    +0.146 A 
ATOM      6  C   UNL     1       3.864  -1.948   5.064  0.00  0.00    +0.072 A 
ATOM      7  C   UNL     1       5.046  -1.731   5.762  0.00  0.00    +0.026 A 
ATOM      8  C   UNL     1       5.572  -0.453   5.790  0.00  0.00    +0.046 A 
ATOM      9  C   UNL     1       4.907   0.574   5.121  0.00  0.00    +0.133 A 
ATOM     10  N   UNL     1       3.788   0.337   4.462  0.00  0.00    -0.225 NA
ATOM     11 CL   UNL     1       3.161  -3.534   4.998  0.00  0.00    -0.081 Cl
BRANCH   9  12
ATOM     12  N   UNL     1       5.430   1.862   5.146  0.00  0.00    -0.268 N 
ATOM     13  H   UNL     1       6.254   2.042   5.626  0.00  0.00    +0.167 HD
BRANCH  12  14
ATOM     14  N   UNL     1       4.785   2.874   4.494  0.00  0.00    -0.255 NA
ATOM     15  H   UNL     1       3.831   2.959   4.812  0.00  0.00    +0.140 HD
ATOM     16  H   UNL     1       5.281   3.746   4.600  0.00  0.00    +0.140 HD
ENDBRANCH  12  14
ENDBRANCH   9  12
ENDBRANCH   3   5
BRANCH   1  17
ATOM     17  C   UNL     1       0.148  -0.270   2.309  0.00  0.00    +0.180 C 
BRANCH  17  23
ATOM     18  C   UNL     1       0.731   1.348  -0.269  0.00  0.00    +0.150 C 
ATOM     19  N   UNL     1       0.591  -0.108  -0.190  0.00  0.00    -0.338 N 
ATOM     20  C   UNL     1       0.699  -0.992  -1.230  0.00  0.00    +0.104 A 
ATOM     21  C   UNL     1       0.502  -2.222  -0.718  0.00  0.00    +0.101 A 
ATOM     22  N   UNL     1       0.281  -2.093   0.598  0.00  0.00    -0.348 N 
ATOM     23  C   UNL     1       0.337  -0.830   0.922  0.00  0.00    +0.104 A 
ATOM     24  H   UNL     1       0.109  -2.823   1.213  0.00  0.00    +0.166 HD
ENDBRANCH  17  23
ENDBRANCH   1  17
TORSDOF 5
