REMARK  Name = ZINC37536985
REMARK  6 active torsions:
REMARK  status: ('A' for Active; 'I' for Inactive)
REMARK    1  A    between atoms: C_1  and  C_2
REMARK    2  A    between atoms: C_2  and  N_3
REMARK    3  A    between atoms: N_3  and  C_4
REMARK    4  A    between atoms: N_7  and  C_10
REMARK    5  A    between atoms: C_10  and  C_12
REMARK    6  A    between atoms: C_10  and  C_13
REMARK                            x       y       z     vdW  Elec       q    Type
REMARK                         _______ _______ _______ _____ _____    ______ ____
ROOT
ATOM      1  C   UNL     1      -1.987  -1.847  -0.117  0.00  0.00    -0.069 C 
ATOM      2  C   UNL     1      -1.319  -2.282  -1.424  0.00  0.00    -0.000 C 
ATOM      3  C   UNL     1      -1.116  -3.799  -1.407  0.00  0.00    +0.083 C 
ATOM      4  N   UNL     1      -2.416  -4.466  -1.254  0.00  0.00    -0.292 NA
ATOM      5  C   UNL     1      -3.054  -4.100   0.017  0.00  0.00    +0.083 C 
ATOM      6  C   UNL     1      -3.315  -2.592   0.042  0.00  0.00    -0.000 C 
ENDROOT
BRANCH   1   7
ATOM      7  N   UNL     1      -2.237  -0.399  -0.152  0.00  0.00    +0.381 N 
ATOM      8  H   UNL     1      -2.755  -0.127   0.670  0.00  0.00    -0.086 HD
ATOM      9  H   UNL     1      -2.772  -0.171  -0.977  0.00  0.00    -0.086 HD
BRANCH   7  11
ATOM     10  C   UNL     1      -1.217   1.826  -0.221  0.00  0.00    -0.017 C 
ATOM     11  C   UNL     1      -0.956   0.319  -0.184  0.00  0.00    -0.086 C 
ENDBRANCH   7  11
ENDBRANCH   1   7
BRANCH   4  12
ATOM     12  C   UNL     1      -2.276  -5.924  -1.372  0.00  0.00    +0.140 C 
ATOM     13  C   UNL     1      -1.114  -6.397  -0.497  0.00  0.00    +0.034 C 
BRANCH  12  14
ATOM     14  C   UNL     1      -2.004  -6.288  -2.808  0.00  0.00    +0.237 C 
ATOM     15  O   UNL     1      -1.670  -5.431  -3.598  0.00  0.00    -0.274 OA
ATOM     16  N   UNL     1      -2.132  -7.566  -3.215  0.00  0.00    -0.239 N 
ATOM     17  C   UNL     1      -1.889  -7.892  -4.500  0.00  0.00    +0.303 C 
ATOM     18  O   UNL     1      -1.554  -7.033  -5.292  0.00  0.00    -0.253 OA
ATOM     19  N   UNL     1      -2.016  -9.171  -4.907  0.00  0.00    -0.313 N 
ATOM     20  H   UNL     1      -2.399  -8.252  -2.583  0.00  0.00    +0.159 HD
ATOM     21  H   UNL     1      -2.283  -9.856  -4.275  0.00  0.00    +0.146 HD
ATOM     22  H   UNL     1      -1.841  -9.405  -5.832  0.00  0.00    +0.146 HD
ENDBRANCH  12  14
ENDBRANCH   4  12
TORSDOF 4
