REMARK  Name = ZINC59719610
REMARK  12 active torsions:
REMARK  status: ('A' for Active; 'I' for Inactive)
REMARK    1  A    between atoms: C_1  and  C_2
REMARK    2  A    between atoms: C_2  and  C_3
REMARK    3  A    between atoms: C_3  and  C_5
REMARK    4  A    between atoms: C_3  and  C_6
REMARK    5  A    between atoms: C_13  and  C_15
REMARK    6  A    between atoms: C_17  and  N_22
REMARK    7  A    between atoms: C_23  and  C_25
REMARK    8  A    between atoms: C_25  and  O_26
REMARK    9  A    between atoms: O_26  and  C_27
REMARK   10  A    between atoms: C_28  and  C_37
REMARK   11  A    between atoms: C_30  and  C_36
REMARK   12  A    between atoms: C_32  and  N_33
REMARK                            x       y       z     vdW  Elec       q    Type
REMARK                         _______ _______ _______ _____ _____    ______ ____
ROOT
ATOM      1  C   UNL     1      -2.445  -7.333  -2.700  0.00  0.00    +0.057 A 
ATOM      2  C   UNL     1      -2.073  -8.587  -2.217  0.00  0.00    +0.038 A 
ATOM      3  C   UNL     1      -2.579  -9.732  -2.811  0.00  0.00    +0.034 A 
ATOM      4  C   UNL     1      -3.454  -9.630  -3.886  0.00  0.00    +0.025 A 
ATOM      5  C   UNL     1      -3.824  -8.388  -4.366  0.00  0.00    +0.022 A 
ATOM      6  C   UNL     1      -3.330  -7.240  -3.777  0.00  0.00    +0.053 A 
ATOM      7 CL   UNL     1      -3.804  -5.682  -4.380  0.00  0.00    -0.083 Cl
ENDROOT
BRANCH   1  15
ATOM      8  C   UNL     1      -0.665  -2.021  -0.631  0.00  0.00    -0.042 A 
ATOM      9  C   UNL     1       0.062  -2.790   0.266  0.00  0.00    +0.007 A 
ATOM     10  C   UNL     1       0.001  -4.168   0.217  0.00  0.00    +0.049 A 
ATOM     11  C   UNL     1      -0.791  -4.791  -0.735  0.00  0.00    +0.156 A 
ATOM     12  C   UNL     1      -1.528  -4.016  -1.645  0.00  0.00    +0.110 A 
ATOM     13  C   UNL     1      -1.461  -2.622  -1.580  0.00  0.00    +0.035 A 
ATOM     14  N   UNL     1      -2.198  -4.886  -2.445  0.00  0.00    -0.209 NA
ATOM     15  C   UNL     1      -1.910  -6.107  -2.072  0.00  0.00    +0.230 A 
ATOM     16  O   UNL     1      -1.054  -6.083  -1.033  0.00  0.00    -0.435 OA
BRANCH   8  17
ATOM     17  C   UNL     1      -0.586  -0.518  -0.563  0.00  0.00    +0.016 C 
ATOM     18  C   UNL     1      -1.062  -0.044   0.812  0.00  0.00    +0.012 C 
BRANCH  17  20
ATOM     19  C   UNL     1       0.921   1.456  -0.839  0.00  0.00    +0.004 C 
ATOM     20  C   UNL     1       0.861  -0.072  -0.784  0.00  0.00    +0.004 C 
ENDBRANCH  17  20
ENDBRANCH   8  17
ENDBRANCH   1  15
BRANCH   3  21
ATOM     21  N   UNL     1      -2.208 -10.993  -2.329  0.00  0.00    -0.283 N 
ATOM     22  C   UNL     1      -1.966 -11.168  -1.014  0.00  0.00    +0.255 C 
ATOM     23  O   UNL     1      -2.162 -10.258  -0.236  0.00  0.00    -0.272 OA
ATOM     24  H   UNL     1      -2.125 -11.741  -2.940  0.00  0.00    +0.155 HD
BRANCH  22  25
ATOM     25  C   UNL     1      -1.453 -12.492  -0.512  0.00  0.00    +0.325 C 
BRANCH  25  26
ATOM     26  O   UNL     1      -1.277 -12.428   0.905  0.00  0.00    -0.480 OA
BRANCH  26  27
ATOM     27  C   UNL     1      -0.816 -13.549   1.520  0.00  0.00    +0.154 A 
ATOM     28  C   UNL     1      -1.708 -14.503   1.987  0.00  0.00    -0.006 A 
ATOM     29  C   UNL     1      -1.237 -15.641   2.612  0.00  0.00    +0.010 A 
ATOM     30  C   UNL     1       0.123 -15.830   2.772  0.00  0.00    -0.048 A 
ATOM     31  C   UNL     1       1.015 -14.881   2.308  0.00  0.00    +0.039 A 
ATOM     32  C   UNL     1       0.549 -13.744   1.678  0.00  0.00    +0.168 A 
ATOM     33  C   UNL     1       0.634 -17.073   3.454  0.00  0.00    +0.044 C 
ATOM     34  C   UNL     1      -3.191 -14.297   1.813  0.00  0.00    +0.047 C 
BRANCH  32  35
ATOM     35  N   UNL     1       1.504 -12.731   1.176  0.00  0.00    +0.060 N 
ATOM     36  O   UNL     1       2.693 -12.901   1.313  0.00  0.00    -0.126 OA
ATOM     37  O   UNL     1       1.096 -11.733   0.628  0.00  0.00    -0.126 OA
ENDBRANCH  32  35
ENDBRANCH  26  27
ENDBRANCH  25  26
ENDBRANCH  22  25
ENDBRANCH   3  21
TORSDOF 8
