REMARK  Name = ZINC32654933
REMARK  8 active torsions:
REMARK  status: ('A' for Active; 'I' for Inactive)
REMARK    1  A    between atoms: C_1  and  C_2
REMARK    2  A    between atoms: C_2  and  N_3
REMARK    3  A    between atoms: N_3  and  C_4
REMARK    4  A    between atoms: N_3  and  C_20
REMARK    5  A    between atoms: C_4  and  C_5
REMARK    6  A    between atoms: N_11  and  C_12
REMARK    7  A    between atoms: C_17  and  C_18
REMARK    8  A    between atoms: C_20  and  C_21
REMARK                            x       y       z     vdW  Elec       q    Type
REMARK                         _______ _______ _______ _____ _____    ______ ____
ROOT
ATOM      1  C   UNL     1       5.365   3.873   0.096  0.00  0.00    +0.120 A 
ATOM      2  N   UNL     1       5.042   2.602  -0.066  0.00  0.00    -0.202 NA
ATOM      3  C   UNL     1       3.774   2.257  -0.279  0.00  0.00    +0.217 A 
ATOM      4  N   UNL     1       2.833   3.193  -0.330  0.00  0.00    -0.181 NA
ATOM      5  C   UNL     1       3.161   4.470  -0.168  0.00  0.00    +0.224 A 
ATOM      6  N   UNL     1       4.432   4.808   0.041  0.00  0.00    -0.201 NA
ATOM      7  N   UNL     1       2.186   5.447  -0.220  0.00  0.00    -0.283 N 
ATOM      8  N   UNL     1       3.438   0.930  -0.448  0.00  0.00    -0.327 N 
ATOM      9  H   UNL     1       2.439   6.491   0.020  0.00  0.00    +0.155 HD
ATOM     10  H   UNL     1       2.390   0.646  -0.624  0.00  0.00    +0.145 HD
ATOM     11  H   UNL     1       4.218   0.155  -0.406  0.00  0.00    +0.145 HD
ENDROOT
BRANCH   7  12
ATOM     12  C   UNL     1       0.877   5.110  -0.579  0.00  0.00    +0.036 A 
ATOM     13  C   UNL     1       0.638   3.996  -1.373  0.00  0.00    +0.023 A 
ATOM     14  C   UNL     1      -0.656   3.666  -1.725  0.00  0.00    +0.002 A 
ATOM     15  C   UNL     1      -1.713   4.446  -1.292  0.00  0.00    +0.000 A 
ATOM     16  C   UNL     1      -1.478   5.552  -0.496  0.00  0.00    +0.005 A 
ATOM     17  C   UNL     1      -0.187   5.888  -0.140  0.00  0.00    -0.029 A 
ATOM     18  C   UNL     1       0.068   7.097   0.722  0.00  0.00    +0.045 C 
ENDBRANCH   7  12
BRANCH   1  19
ATOM     19  C   UNL     1       6.801   4.259   0.337  0.00  0.00    -0.001 C 
BRANCH  19  20
ATOM     20  N   UNL     1       7.427   4.639  -0.936  0.00  0.00    +0.387 N 
ATOM     21  H   UNL     1       6.741   5.322  -1.459  0.00  0.00    -0.081 HD
BRANCH  20  23
ATOM     22  C   UNL     1       8.648   2.525  -1.135  0.00  0.00    -0.017 C 
ATOM     23  C   UNL     1       7.634   3.464  -1.793  0.00  0.00    -0.081 C 
ENDBRANCH  20  23
BRANCH  20  24
ATOM     24  C   UNL     1       8.690   5.354  -0.710  0.00  0.00    -0.030 C 
BRANCH  24  25
ATOM     25  C   UNL     1       9.109   6.069  -1.996  0.00  0.00    +0.195 C 
ATOM     26  C   UNL     1      10.345   6.939  -1.725  0.00  0.00    +0.271 C 
ATOM     27  O   UNL     1      10.717   7.582  -2.949  0.00  0.00    -0.485 OA
ATOM     28  C   UNL     1      10.756   6.800  -4.063  0.00  0.00    +0.162 A 
ATOM     29  C   UNL     1      11.438   7.248  -5.184  0.00  0.00    +0.049 A 
ATOM     30  C   UNL     1      11.484   6.467  -6.324  0.00  0.00    +0.004 A 
ATOM     31  C   UNL     1      10.851   5.239  -6.349  0.00  0.00    +0.004 A 
ATOM     32  C   UNL     1      10.171   4.786  -5.234  0.00  0.00    +0.049 A 
ATOM     33  C   UNL     1      10.122   5.564  -4.087  0.00  0.00    +0.162 A 
ATOM     34  O   UNL     1       9.451   5.104  -2.996  0.00  0.00    -0.484 OA
ENDBRANCH  24  25
ENDBRANCH  20  24
ENDBRANCH  19  20
ENDBRANCH   1  19
TORSDOF 6
