REMARK  Name = ZINC39960788
REMARK  10 active torsions:
REMARK  status: ('A' for Active; 'I' for Inactive)
REMARK    1  A    between atoms: C_1  and  C_2
REMARK    2  A    between atoms: C_2  and  C_3
REMARK    3  A    between atoms: C_3  and  C_4
REMARK    4  A    between atoms: C_3  and  C_6
REMARK    5  A    between atoms: C_4  and  C_5
REMARK    6  A    between atoms: C_8  and  C_18
REMARK    7  A    between atoms: C_10  and  C_12
REMARK    8  A    between atoms: C_27  and  C_29
REMARK    9  A    between atoms: C_29  and  N_30
REMARK   10  A    between atoms: N_30  and  C_31
REMARK                            x       y       z     vdW  Elec       q    Type
REMARK                         _______ _______ _______ _____ _____    ______ ____
ROOT
ATOM      1  C   UNL     1      -0.861  -4.628  -0.114  0.00  0.00    +0.024 C 
ATOM      2  C   UNL     1      -1.370  -4.003   1.187  0.00  0.00    -0.069 C 
ATOM      3  N   UNL     1      -2.600  -3.249   0.934  0.00  0.00    +0.381 N 
ATOM      4  C   UNL     1      -3.653  -4.134   0.431  0.00  0.00    -0.078 C 
ATOM      5  C   UNL     1      -3.220  -4.764  -0.895  0.00  0.00    -0.015 C 
ATOM      6  C   UNL     1      -1.818  -4.254  -1.254  0.00  0.00    -0.007 C 
ATOM      7  C   UNL     1      -1.875  -2.724  -1.356  0.00  0.00    -0.013 C 
ATOM      8  C   UNL     1      -2.350  -2.157  -0.010  0.00  0.00    -0.086 C 
ATOM      9  H   UNL     1      -2.916  -2.852   1.806  0.00  0.00    -0.082 HD
ENDROOT
BRANCH   1  12
ATOM     10  C   UNL     1       2.263  -3.594  -1.964  0.00  0.00    +0.048 A 
ATOM     11  C   UNL     1       0.988  -4.085  -1.726  0.00  0.00    +0.047 A 
ATOM     12  C   UNL     1       0.518  -4.104  -0.421  0.00  0.00    +0.047 A 
ATOM     13  N   UNL     1       1.295  -3.657   0.551  0.00  0.00    -0.232 NA
ATOM     14  C   UNL     1       2.509  -3.194   0.289  0.00  0.00    +0.160 A 
ATOM     15  N   UNL     1       2.990  -3.167  -0.947  0.00  0.00    -0.232 NA
BRANCH  14  16
ATOM     16  C   UNL     1       3.353  -2.701   1.405  0.00  0.00    +0.022 A 
ATOM     17  C   UNL     1       2.886  -2.724   2.722  0.00  0.00    +0.031 A 
ATOM     18  C   UNL     1       3.703  -2.255   3.731  0.00  0.00    +0.111 A 
ATOM     19  N   UNL     1       4.909  -1.791   3.465  0.00  0.00    -0.263 NA
ATOM     20  C   UNL     1       5.387  -1.751   2.237  0.00  0.00    +0.111 A 
ATOM     21  C   UNL     1       4.638  -2.205   1.169  0.00  0.00    +0.031 A 
ENDBRANCH  14  16
BRANCH  10  22
ATOM     22  C   UNL     1       2.815  -3.554  -3.366  0.00  0.00    +0.037 C 
BRANCH  22  24
ATOM     23  C   UNL     1       4.095  -4.839  -5.085  0.00  0.00    +0.004 C 
ATOM     24  C   UNL     1       3.407  -4.920  -3.720  0.00  0.00    +0.006 C 
ENDBRANCH  22  24
BRANCH  22  25
ATOM     25  C   UNL     1       1.691  -3.215  -4.347  0.00  0.00    +0.006 C 
ATOM     26  C   UNL     1       1.189  -1.795  -4.076  0.00  0.00    +0.004 C 
ENDBRANCH  22  25
ENDBRANCH  10  22
ENDBRANCH   1  12
BRANCH   8  27
ATOM     27  C   UNL     1      -1.275  -1.229   0.560  0.00  0.00    -0.098 C 
BRANCH  27  28
ATOM     28  N   UNL     1      -1.686  -0.765   1.893  0.00  0.00    +0.380 N 
ATOM     29  H   UNL     1      -2.596  -0.335   1.833  0.00  0.00    -0.086 HD
ATOM     30  H   UNL     1      -1.725  -1.550   2.525  0.00  0.00    -0.086 HD
BRANCH  28  31
ATOM     31  C   UNL     1      -0.712   0.216   2.391  0.00  0.00    -0.068 C 
ATOM     32  C   UNL     1      -0.769   1.479   1.526  0.00  0.00    +0.012 C 
ATOM     33  C   UNL     1       0.192   2.524   2.099  0.00  0.00    +0.158 C 
ATOM     34  O   UNL     1      -0.161   2.799   3.457  0.00  0.00    -0.380 OA
ATOM     35  C   UNL     1      -0.080   1.665   4.322  0.00  0.00    +0.158 C 
ATOM     36  C   UNL     1      -1.052   0.585   3.838  0.00  0.00    +0.012 C 
ENDBRANCH  28  31
ENDBRANCH  27  28
ENDBRANCH   8  27
TORSDOF 8
