REMARK  Name = ZINC62524095
REMARK  6 active torsions:
REMARK  status: ('A' for Active; 'I' for Inactive)
REMARK    1  A    between atoms: C_1  and  C_2
REMARK    2  A    between atoms: C_2  and  C_3
REMARK    3  A    between atoms: C_2  and  N_23
REMARK    4  A    between atoms: N_5  and  C_6
REMARK    5  A    between atoms: C_9  and  N_12
REMARK    6  A    between atoms: N_15  and  C_16
REMARK                            x       y       z     vdW  Elec       q    Type
REMARK                         _______ _______ _______ _____ _____    ______ ____
ROOT
ATOM      1  C   UNL     1      -3.581  -0.647  -0.885  0.00  0.00    +0.034 A 
ATOM      2  C   UNL     1      -3.985  -1.379   0.224  0.00  0.00    +0.025 A 
ATOM      3  C   UNL     1      -5.293  -1.811   0.326  0.00  0.00    +0.025 A 
ATOM      4  C   UNL     1      -6.203  -1.514  -0.680  0.00  0.00    +0.035 A 
ATOM      5  C   UNL     1      -5.798  -0.782  -1.789  0.00  0.00    +0.025 A 
ATOM      6  C   UNL     1      -4.492  -0.345  -1.888  0.00  0.00    +0.025 A 
ENDROOT
BRANCH   4   7
ATOM      7  N   UNL     1      -7.529  -1.953  -0.577  0.00  0.00    -0.269 N 
ATOM      8  C   UNL     1      -8.204  -2.324  -1.682  0.00  0.00    +0.308 C 
ATOM      9  O   UNL     1      -7.692  -2.200  -2.778  0.00  0.00    -0.252 OA
ATOM     10  N   UNL     1      -9.447  -2.834  -1.573  0.00  0.00    -0.269 N 
ATOM     11  H   UNL     1      -7.962  -1.989   0.291  0.00  0.00    +0.156 HD
ATOM     12  H   UNL     1      -9.886  -2.861  -0.709  0.00  0.00    +0.156 HD
BRANCH  10  13
ATOM     13  C   UNL     1     -10.105  -3.324  -2.708  0.00  0.00    +0.035 A 
ATOM     14  C   UNL     1      -9.383  -3.962  -3.708  0.00  0.00    +0.025 A 
ATOM     15  C   UNL     1     -10.034  -4.445  -4.827  0.00  0.00    +0.022 A 
ATOM     16  C   UNL     1     -11.404  -4.292  -4.951  0.00  0.00    +0.041 A 
ATOM     17  C   UNL     1     -12.125  -3.657  -3.956  0.00  0.00    +0.022 A 
ATOM     18  C   UNL     1     -11.480  -3.178  -2.832  0.00  0.00    +0.025 A 
ATOM     19 CL   UNL     1     -12.219  -4.899  -6.359  0.00  0.00    -0.084 Cl
ENDBRANCH  10  13
ENDBRANCH   4   7
BRANCH   1  22
ATOM     20  C   UNL     1      -1.981   0.983  -1.557  0.00  0.00    +0.240 C 
ATOM     21  O   UNL     1      -2.873   1.637  -2.054  0.00  0.00    -0.273 OA
ATOM     22  N   UNL     1      -2.254  -0.208  -0.989  0.00  0.00    -0.284 N 
ATOM     23  H   UNL     1      -1.533  -0.762  -0.651  0.00  0.00    +0.155 HD
BRANCH  20  25
ATOM     24  C   UNL     1       0.328   0.517  -2.332  0.00  0.00    +0.041 C 
ATOM     25  C   UNL     1      -0.566   1.502  -1.576  0.00  0.00    +0.171 C 
BRANCH  25  26
ATOM     26  N   UNL     1      -0.533   2.805  -2.244  0.00  0.00    -0.327 N 
ATOM     27  C   UNL     1      -0.916   3.067  -3.532  0.00  0.00    +0.105 A 
ATOM     28  C   UNL     1      -0.724   4.384  -3.736  0.00  0.00    +0.101 A 
ATOM     29  N   UNL     1      -0.236   4.912  -2.603  0.00  0.00    -0.352 N 
ATOM     30  C   UNL     1      -0.124   3.973  -1.704  0.00  0.00    +0.174 A 
ATOM     31  H   UNL     1      -0.006   5.845  -2.472  0.00  0.00    +0.166 HD
ENDBRANCH  25  26
ENDBRANCH  20  25
ENDBRANCH   1  22
TORSDOF 5
