REMARK  Name = ZINC60377214
REMARK  11 active torsions:
REMARK  status: ('A' for Active; 'I' for Inactive)
REMARK    1  A    between atoms: C_1  and  C_2
REMARK    2  A    between atoms: C_2  and  C_4
REMARK    3  A    between atoms: C_2  and  N_14
REMARK    4  A    between atoms: C_8  and  S_10
REMARK    5  A    between atoms: S_10  and  N_13
REMARK    6  A    between atoms: N_14  and  C_15
REMARK    7  A    between atoms: N_14  and  C_16
REMARK    8  A    between atoms: C_16  and  C_17
REMARK    9  A    between atoms: C_17  and  C_18
REMARK   10  A    between atoms: N_20  and  C_21
REMARK   11  A    between atoms: C_22  and  C_30
REMARK                            x       y       z     vdW  Elec       q    Type
REMARK                         _______ _______ _______ _____ _____    ______ ____
ROOT
ATOM      1  N   UNL     1      -1.376  -0.512   0.012  0.00  0.00    +0.383 N 
ATOM      2  C   UNL     1      -1.356  -1.981   0.004  0.00  0.00    -0.095 C 
ATOM      3  H   UNL     1      -1.848  -0.187   0.843  0.00  0.00    -0.081 HD
ENDROOT
BRANCH   1   5
ATOM      4  C   UNL     1      -0.019   1.526   0.010  0.00  0.00    -0.008 C 
ATOM      5  C   UNL     1       0.002  -0.004   0.002  0.00  0.00    -0.041 C 
BRANCH   5   6
ATOM      6  C   UNL     1       0.731  -0.503   1.223  0.00  0.00    -0.059 A 
ATOM      7  C   UNL     1       0.081  -0.558   2.442  0.00  0.00    +0.002 A 
ATOM      8  C   UNL     1       0.749  -1.016   3.562  0.00  0.00    +0.002 A 
ATOM      9  C   UNL     1       2.068  -1.420   3.463  0.00  0.00    +0.028 A 
ATOM     10  C   UNL     1       2.718  -1.365   2.244  0.00  0.00    +0.105 A 
ATOM     11  C   UNL     1       2.048  -0.911   1.123  0.00  0.00    +0.030 A 
BRANCH  10  12
ATOM     12  S   UNL     1       4.399  -1.879   2.118  0.00  0.00    +0.056 S 
ATOM     13  O   UNL     1       4.941  -1.217   0.984  0.00  0.00    -0.153 OA
ATOM     14  O   UNL     1       4.961  -1.749   3.417  0.00  0.00    -0.153 OA
BRANCH  12  15
ATOM     15  N   UNL     1       4.391  -3.496   1.764  0.00  0.00    -0.204 NA
ATOM     16  H   UNL     1       3.549  -3.968   1.668  0.00  0.00    +0.144 HD
ATOM     17  H   UNL     1       5.229  -3.972   1.653  0.00  0.00    +0.144 HD
ENDBRANCH  12  15
ENDBRANCH  10  12
ENDBRANCH   5   6
ENDBRANCH   1   5
BRANCH   1  18
ATOM     18  C   UNL     1      -2.087  -0.026  -1.178  0.00  0.00    -0.069 C 
BRANCH  18  19
ATOM     19  C   UNL     1      -3.554  -0.451  -1.105  0.00  0.00    +0.077 C 
BRANCH  19  20
ATOM     20  C   UNL     1      -4.283   0.048  -2.325  0.00  0.00    +0.216 C 
ATOM     21  O   UNL     1      -3.687   0.682  -3.171  0.00  0.00    -0.276 OA
ATOM     22  N   UNL     1      -5.598  -0.209  -2.478  0.00  0.00    -0.279 N 
ATOM     23  H   UNL     1      -6.074  -0.716  -1.802  0.00  0.00    +0.155 HD
BRANCH  22  24
ATOM     24  C   UNL     1      -6.269   0.251  -3.603  0.00  0.00    +0.090 A 
ATOM     25  C   UNL     1      -7.607   0.087  -3.921  0.00  0.00    +0.084 A 
ATOM     26  C   UNL     1      -8.069   0.670  -5.168  0.00  0.00    -0.018 A 
ATOM     27  C   UNL     1      -7.107   1.310  -5.869  0.00  0.00    -0.004 A 
ATOM     28  S   UNL     1      -5.647   1.139  -4.885  0.00  0.00    -0.077 S 
ATOM     29  C   UNL     1      -7.265   2.007  -7.185  0.00  0.00    +0.043 C 
ATOM     30  C   UNL     1      -8.598   1.567  -7.806  0.00  0.00    +0.005 C 
ATOM     31  C   UNL     1      -9.698   1.672  -6.746  0.00  0.00    +0.005 C 
ATOM     32  C   UNL     1      -9.500   0.593  -5.680  0.00  0.00    +0.037 C 
BRANCH  25  33
ATOM     33  C   UNL     1      -8.498  -0.627  -3.057  0.00  0.00    +0.102 C 
ATOM     34  N   UNL     1      -9.204  -1.194  -2.372  0.00  0.00    -0.191 NA
ENDBRANCH  25  33
ENDBRANCH  22  24
ENDBRANCH  19  20
ENDBRANCH  18  19
ENDBRANCH   1  18
TORSDOF 9
