REMARK  Name = ZINC20558643
REMARK  9 active torsions:
REMARK  status: ('A' for Active; 'I' for Inactive)
REMARK    1  A    between atoms: C_1  and  C_2
REMARK    2  A    between atoms: C_6  and  C_8
REMARK    3  A    between atoms: C_8  and  N_9
REMARK    4  A    between atoms: C_21  and  C_29
REMARK    5  A    between atoms: C_23  and  C_27
REMARK    6  A    between atoms: C_24  and  N_26
REMARK    7  A    between atoms: C_32  and  C_35
REMARK    8  A    between atoms: C_35  and  O_37
REMARK    9  A    between atoms: O_37  and  C_38
REMARK                            x       y       z     vdW  Elec       q    Type
REMARK                         _______ _______ _______ _____ _____    ______ ____
ROOT
ATOM      1  N   UNL     1       0.600   3.896   4.820  0.00  0.00    -0.198 N 
ATOM      2  C   UNL     1       1.788   4.278   4.186  0.00  0.00    +0.062 A 
ATOM      3  C   UNL     1       2.825   3.361   4.096  0.00  0.00    +0.025 A 
ATOM      4  C   UNL     1       4.010   3.711   3.480  0.00  0.00    +0.002 A 
ATOM      5  C   UNL     1       4.166   4.978   2.945  0.00  0.00    +0.001 A 
ATOM      6  C   UNL     1       3.142   5.896   3.020  0.00  0.00    +0.013 A 
ATOM      7  C   UNL     1       1.932   5.556   3.638  0.00  0.00    +0.042 A 
ATOM      8  C   UNL     1       0.864   6.584   3.680  0.00  0.00    +0.162 C 
ATOM      9  C   UNL     1      -0.167   6.486   4.515  0.00  0.00    +0.141 C 
ATOM     10  S   UNL     1      -0.259   5.091   5.598  0.00  0.00    +0.076 S 
ATOM     11  O   UNL     1      -1.618   4.675   5.626  0.00  0.00    -0.150 OA
ATOM     12  O   UNL     1       0.466   5.426   6.773  0.00  0.00    -0.150 OA
ATOM     13  C   UNL     1      -1.251   7.527   4.559  0.00  0.00    +0.118 C 
ATOM     14  C   UNL     1      -1.220   8.362   3.308  0.00  0.00    +0.099 C 
ATOM     15  C   UNL     1      -0.116   8.370   2.520  0.00  0.00    +0.199 C 
ATOM     16  O   UNL     1       0.968   7.642   2.833  0.00  0.00    -0.439 OA
ENDROOT
BRANCH  13  17
ATOM     17  C   UNL     1      -1.041   8.416   5.758  0.00  0.00    -0.033 A 
ATOM     18  C   UNL     1       0.133   9.138   5.883  0.00  0.00    +0.005 A 
ATOM     19  C   UNL     1       0.329   9.958   6.975  0.00  0.00    +0.015 A 
ATOM     20  C   UNL     1      -0.655  10.049   7.961  0.00  0.00    +0.059 A 
ATOM     21  C   UNL     1      -1.835   9.313   7.832  0.00  0.00    +0.015 A 
ATOM     22  C   UNL     1      -2.021   8.502   6.732  0.00  0.00    +0.005 A 
BRANCH  20  23
ATOM     23  C   UNL     1      -0.449  10.919   9.137  0.00  0.00    +0.339 C 
ATOM     24  O   UNL     1      -1.307  10.996   9.994  0.00  0.00    -0.245 OA
BRANCH  23  25
ATOM     25  O   UNL     1       0.690  11.628   9.259  0.00  0.00    -0.464 OA
ATOM     26  C   UNL     1       0.825  12.462  10.440  0.00  0.00    +0.280 C 
ENDBRANCH  23  25
ENDBRANCH  20  23
ENDBRANCH  13  17
BRANCH  15  27
ATOM     27  N   UNL     1      -0.107   9.135   1.380  0.00  0.00    -0.328 N 
ATOM     28  H   UNL     1       0.782   9.148   0.733  0.00  0.00    +0.145 HD
ATOM     29  H   UNL     1      -0.990   9.734   1.114  0.00  0.00    +0.145 HD
ENDBRANCH  15  27
BRANCH  14  30
ATOM     30  C   UNL     1      -2.359   9.152   2.949  0.00  0.00    +0.101 C 
ATOM     31  N   UNL     1      -3.263   9.779   2.664  0.00  0.00    -0.191 NA
ENDBRANCH  14  30
BRANCH   1  32
ATOM     32  C   UNL     1       0.137   2.506   4.804  0.00  0.00    +0.166 C 
BRANCH  32  38
ATOM     33  C   UNL     1      -0.013   1.086   0.008  0.00  0.00    +0.044 C 
ATOM     34  C   UNL     1      -0.718   1.572   1.248  0.00  0.00    -0.050 A 
ATOM     35  C   UNL     1      -2.083   1.789   1.226  0.00  0.00    +0.003 A 
ATOM     36  C   UNL     1      -2.731   2.231   2.365  0.00  0.00    +0.001 A 
ATOM     37  C   UNL     1      -2.012   2.464   3.522  0.00  0.00    +0.005 A 
ATOM     38  C   UNL     1      -0.646   2.251   3.543  0.00  0.00    -0.028 A 
ATOM     39  C   UNL     1       0.001   1.806   2.405  0.00  0.00    +0.008 A 
ENDBRANCH  32  38
ENDBRANCH   1  32
TORSDOF 7
