REMARK  Name = ZINC61691945
REMARK  5 active torsions:
REMARK  status: ('A' for Active; 'I' for Inactive)
REMARK    1  A    between atoms: C_4  and  N_11
REMARK    2  A    between atoms: C_6  and  C_7
REMARK    3  A    between atoms: C_8  and  C_9
REMARK    4  A    between atoms: C_9  and  N_10
REMARK    5  A    between atoms: C_12  and  C_14
REMARK                            x       y       z     vdW  Elec       q    Type
REMARK                         _______ _______ _______ _____ _____    ______ ____
ROOT
ATOM      1  C   UNL     1      -0.023   1.379   0.040  0.00  0.00    +0.018 A 
ATOM      2  C   UNL     1       1.160   2.090   0.025  0.00  0.00    +0.023 A 
ATOM      3  C   UNL     1       2.372   1.423  -0.000  0.00  0.00    +0.062 A 
ATOM      4  C   UNL     1       2.405   0.032  -0.011  0.00  0.00    +0.053 A 
ATOM      5  C   UNL     1       1.222  -0.689   0.004  0.00  0.00    +0.041 A 
ATOM      6  C   UNL     1       0.000  -0.016   0.029  0.00  0.00    +0.027 A 
ATOM      7 CL   UNL     1       3.855   2.325  -0.020  0.00  0.00    -0.082 Cl
ENDROOT
BRANCH   4   8
ATOM      8  N   UNL     1       3.633  -0.638  -0.036  0.00  0.00    -0.278 N 
ATOM      9  C   UNL     1       3.708  -1.887  -0.537  0.00  0.00    +0.284 C 
ATOM     10  O   UNL     1       2.732  -2.393  -1.059  0.00  0.00    -0.266 OA
ATOM     11  H   UNL     1       4.430  -0.204   0.306  0.00  0.00    +0.155 HD
BRANCH   9  12
ATOM     12  C   UNL     1       4.965  -2.634  -0.455  0.00  0.00    +0.191 A 
ATOM     13  C   UNL     1       5.180  -3.899  -0.925  0.00  0.00    +0.056 A 
ATOM     14  C   UNL     1       6.514  -4.217  -0.635  0.00  0.00    +0.063 A 
ATOM     15  C   UNL     1       7.052  -3.145  -0.007  0.00  0.00    +0.195 A 
ATOM     16  O   UNL     1       6.117  -2.192   0.094  0.00  0.00    -0.439 OA
ATOM     17 CL   UNL     1       8.686  -3.024   0.567  0.00  0.00    -0.043 Cl
ENDBRANCH   9  12
ENDBRANCH   4   8
BRANCH   6  18
ATOM     18  C   UNL     1      -1.226  -0.755   0.045  0.00  0.00    -0.068 C 
ATOM     19  C   UNL     1      -2.232  -1.361   0.058  0.00  0.00    -0.117 C 
BRANCH  19  20
ATOM     20  C   UNL     1      -3.492  -2.121   0.075  0.00  0.00    +0.005 C 
BRANCH  20  21
ATOM     21  N   UNL     1      -3.197  -3.560   0.060  0.00  0.00    +0.385 N 
ATOM     22  H   UNL     1      -2.678  -3.788  -0.775  0.00  0.00    -0.089 HD
ATOM     23  H   UNL     1      -2.650  -3.799   0.873  0.00  0.00    -0.089 HD
ATOM     24  H   UNL     1      -4.061  -4.081   0.071  0.00  0.00    -0.089 HD
ENDBRANCH  20  21
ENDBRANCH  19  20
ENDBRANCH   6  18
TORSDOF 5
