REMARK  Name = ZINC67517744
REMARK  2 active torsions:
REMARK  status: ('A' for Active; 'I' for Inactive)
REMARK    1  A    between atoms: C_1  and  C_2
REMARK    2  A    between atoms: C_15  and  C_17
REMARK                            x       y       z     vdW  Elec       q    Type
REMARK                         _______ _______ _______ _____ _____    ______ ____
ROOT
ATOM      1  C   UNL     1       0.835   0.984   3.033  0.00  0.00    +0.007 C 
ATOM      2  C   UNL     1       0.670  -0.408   2.421  0.00  0.00    -0.014 C 
ATOM      3  C   UNL     1       1.065  -0.367   0.943  0.00  0.00    +0.005 C 
ATOM      4  C   UNL     1       0.888  -1.757   0.332  0.00  0.00    +0.023 C 
ATOM      5  C   UNL     1       1.786  -2.760   1.062  0.00  0.00    +0.079 C 
ATOM      6  C   UNL     1       1.427  -2.780   2.550  0.00  0.00    +0.010 C 
ATOM      7  C   UNL     1       1.572  -1.400   3.158  0.00  0.00    +0.008 C 
ATOM      8  C   UNL     1      -0.016  -3.255   2.719  0.00  0.00    +0.007 C 
ATOM      9  C   UNL     1      -0.148  -4.682   2.178  0.00  0.00    +0.019 C 
ATOM     10  C   UNL     1       0.207  -4.697   0.689  0.00  0.00    +0.108 C 
ATOM     11  N   UNL     1       1.549  -4.099   0.499  0.00  0.00    -0.298 N 
ATOM     12  C   UNL     1       2.528  -4.756  -0.153  0.00  0.00    +0.221 C 
ATOM     13  O   UNL     1       2.344  -5.892  -0.537  0.00  0.00    -0.275 OA
ENDROOT
BRANCH  12  14
ATOM     14  C   UNL     1       3.851  -4.080  -0.405  0.00  0.00    +0.098 C 
ATOM     15  C   UNL     1       3.759  -3.215  -1.673  0.00  0.00    +0.037 C 
ATOM     16  C   UNL     1       5.176  -2.779  -2.118  0.00  0.00    +0.166 C 
ATOM     17  S   UNL     1       6.235  -4.144  -1.489  0.00  0.00    -0.030 S 
ATOM     18  O   UNL     1       6.741  -4.883  -2.592  0.00  0.00    -0.174 OA
ATOM     19  O   UNL     1       7.138  -3.622  -0.524  0.00  0.00    -0.174 OA
ATOM     20  C   UNL     1       4.955  -5.153  -0.630  0.00  0.00    +0.178 C 
ENDBRANCH  12  14
TORSDOF 1
