REMARK  Name = ZINC14190408
REMARK  8 active torsions:
REMARK  status: ('A' for Active; 'I' for Inactive)
REMARK    1  A    between atoms: C_1  and  C_2
REMARK    2  A    between atoms: C_2  and  C_3
REMARK    3  A    between atoms: C_2  and  N_37
REMARK    4  A    between atoms: C_4  and  C_5
REMARK    5  A    between atoms: C_4  and  N_37
REMARK    6  A    between atoms: C_8  and  C_9
REMARK    7  A    between atoms: C_8  and  N_37
REMARK    8  A    between atoms: N_11  and  C_12
REMARK                            x       y       z     vdW  Elec       q    Type
REMARK                         _______ _______ _______ _____ _____    ______ ____
ROOT
ATOM      1  C   UNL     1       0.608   2.336   0.236  0.00  0.00    +0.020 C 
ENDROOT
BRANCH   1   2
ATOM      2  C   UNL     1       0.558   2.390  -1.269  0.00  0.00    +0.201 C 
ATOM      3  O   UNL     1       0.908   1.430  -1.922  0.00  0.00    -0.278 OA
ATOM      4  N   UNL     1       0.130   3.508  -1.889  0.00  0.00    -0.286 N 
ATOM      5  H   UNL     1      -0.072   4.303  -1.372  0.00  0.00    +0.155 HD
BRANCH   4   6
ATOM      6  C   UNL     1      -0.023   3.521  -3.280  0.00  0.00    +0.047 A 
ATOM      7  C   UNL     1      -0.141   2.326  -3.979  0.00  0.00    +0.024 A 
ATOM      8  C   UNL     1      -0.295   2.343  -5.351  0.00  0.00    +0.002 A 
ATOM      9  C   UNL     1      -0.324   3.547  -6.031  0.00  0.00    +0.001 A 
ATOM     10  C   UNL     1      -0.202   4.738  -5.340  0.00  0.00    +0.016 A 
ATOM     11  C   UNL     1      -0.051   4.729  -3.966  0.00  0.00    +0.035 A 
ATOM     12  I   UNL     1       0.135   6.534  -2.919  0.00  0.00    -0.042 I 
ENDBRANCH   4   6
ENDBRANCH   1   2
BRANCH   1  13
ATOM     13  N   UNL     1       1.228   1.058   0.644  0.00  0.00    +0.393 N 
ATOM     14  H   UNL     1       0.874   0.308   0.038  0.00  0.00    -0.080 HD
BRANCH  13  16
ATOM     15  C   UNL     1       1.085   1.978   2.933  0.00  0.00    -0.013 C 
ATOM     16  C   UNL     1       0.876   0.750   2.046  0.00  0.00    -0.074 C 
ATOM     17  C   UNL     1      -0.593   0.324   2.101  0.00  0.00    -0.013 C 
ENDBRANCH  13  16
BRANCH  13  18
ATOM     18  C   UNL     1       2.696   1.140   0.498  0.00  0.00    +0.019 C 
BRANCH  18  19
ATOM     19  C   UNL     1       3.283  -0.232   0.706  0.00  0.00    +0.194 C 
ATOM     20  O   UNL     1       2.557  -1.169   0.963  0.00  0.00    -0.278 OA
ATOM     21  N   UNL     1       4.614  -0.419   0.605  0.00  0.00    -0.331 N 
ATOM     22  H   UNL     1       5.194   0.331   0.399  0.00  0.00    +0.145 HD
ATOM     23  H   UNL     1       4.992  -1.302   0.738  0.00  0.00    +0.145 HD
ENDBRANCH  18  19
ENDBRANCH  13  18
ENDBRANCH   1  13
TORSDOF 6
