REMARK  Name = ZINC40399344
REMARK  4 active torsions:
REMARK  status: ('A' for Active; 'I' for Inactive)
REMARK    1  A    between atoms: C_1  and  C_2
REMARK    2  A    between atoms: C_7  and  N_8
REMARK    3  A    between atoms: C_9  and  C_11
REMARK    4  A    between atoms: N_25  and  C_26
REMARK                            x       y       z     vdW  Elec       q    Type
REMARK                         _______ _______ _______ _____ _____    ______ ____
ROOT
ATOM      1  C   UNL     1       0.003   0.231   4.803  0.00  0.00    +0.122 C 
ATOM      2  C   UNL     1      -1.277   1.068   4.852  0.00  0.00    +0.114 C 
ATOM      3  C   UNL     1      -1.442   1.660   6.227  0.00  0.00    +0.219 C 
ATOM      4  O   UNL     1      -1.891   2.780   6.349  0.00  0.00    -0.275 OA
ATOM      5  N   UNL     1      -1.097   0.959   7.321  0.00  0.00    -0.270 N 
ATOM      6  C   UNL     1      -0.485  -0.277   7.210  0.00  0.00    +0.138 A 
ATOM      7  C   UNL     1       0.055  -0.679   6.001  0.00  0.00    +0.069 A 
ATOM      8  C   UNL     1       0.649  -1.941   5.907  0.00  0.00    +0.258 A 
ATOM      9  O   UNL     1       1.124  -2.329   4.852  0.00  0.00    -0.267 OA
ATOM     10  N   UNL     1       0.688  -2.722   7.008  0.00  0.00    -0.295 N 
ATOM     11  H   UNL     1       1.082  -3.607   6.961  0.00  0.00    +0.172 HD
ATOM     12  C   UNL     1       0.174  -2.268   8.184  0.00  0.00    +0.202 A 
ATOM     13  N   UNL     1      -0.389  -1.081   8.275  0.00  0.00    -0.200 NA
ATOM     14  N   UNL     1       0.244  -3.063   9.298  0.00  0.00    -0.285 N 
ATOM     15  H   UNL     1      -1.280   1.325   8.201  0.00  0.00    +0.156 HD
ATOM     16  H   UNL     1       0.611  -3.959   9.232  0.00  0.00    +0.155 HD
ENDROOT
BRANCH  14  17
ATOM     17  C   UNL     1      -0.211  -2.583  10.530  0.00  0.00    +0.035 A 
ATOM     18  C   UNL     1      -1.323  -1.752  10.585  0.00  0.00    +0.023 A 
ATOM     19  C   UNL     1      -1.772  -1.280  11.803  0.00  0.00    +0.003 A 
ATOM     20  C   UNL     1      -1.115  -1.632  12.968  0.00  0.00    +0.020 A 
ATOM     21  C   UNL     1      -0.007  -2.460  12.917  0.00  0.00    +0.043 A 
ATOM     22  C   UNL     1       0.443  -2.941  11.701  0.00  0.00    +0.043 A 
ATOM     23 CL   UNL     1       0.815  -2.899  14.381  0.00  0.00    -0.083 Cl
ENDBRANCH  14  17
BRANCH   1  25
ATOM     24  N   UNL     1       1.056  -0.518   2.694  0.00  0.00    -0.285 N 
ATOM     25  C   UNL     1       0.013  -0.597   3.544  0.00  0.00    +0.225 C 
ATOM     26  O   UNL     1      -0.917  -1.335   3.295  0.00  0.00    -0.275 OA
ATOM     27  H   UNL     1       1.825   0.028   2.920  0.00  0.00    +0.155 HD
BRANCH  24  34
ATOM     28  C   UNL     1       2.295   0.663   0.420  0.00  0.00    +0.045 C 
ATOM     29  C   UNL     1       1.622  -0.684   0.352  0.00  0.00    -0.029 A 
ATOM     30  C   UNL     1       1.599  -1.385  -0.838  0.00  0.00    +0.005 A 
ATOM     31  C   UNL     1       0.981  -2.621  -0.902  0.00  0.00    +0.000 A 
ATOM     32  C   UNL     1       0.385  -3.159   0.225  0.00  0.00    +0.002 A 
ATOM     33  C   UNL     1       0.405  -2.462   1.417  0.00  0.00    +0.023 A 
ATOM     34  C   UNL     1       1.029  -1.223   1.486  0.00  0.00    +0.036 A 
ENDBRANCH  24  34
ENDBRANCH   1  25
TORSDOF 3
