REMARK  Name = ZINC66109716
REMARK  13 active torsions:
REMARK  status: ('A' for Active; 'I' for Inactive)
REMARK    1  A    between atoms: C_1  and  C_2
REMARK    2  A    between atoms: C_2  and  C_3
REMARK    3  A    between atoms: C_3  and  N_4
REMARK    4  A    between atoms: C_5  and  C_7
REMARK    5  A    between atoms: C_11  and  N_13
REMARK    6  A    between atoms: C_14  and  C_16
REMARK    7  A    between atoms: C_16  and  N_17
REMARK    8  A    between atoms: N_17  and  C_18
REMARK    9  A    between atoms: C_18  and  C_19
REMARK   10  A    between atoms: C_22  and  O_25
REMARK   11  A    between atoms: O_25  and  C_26
REMARK   12  A    between atoms: C_26  and  C_27
REMARK   13  A    between atoms: C_26  and  C_28
REMARK                            x       y       z     vdW  Elec       q    Type
REMARK                         _______ _______ _______ _____ _____    ______ ____
ROOT
ATOM      1  N   UNL     1      -6.448  -6.912  -0.403  0.00  0.00    -0.287 N 
ATOM      2  C   UNL     1      -6.218  -8.238  -0.470  0.00  0.00    +0.200 C 
ATOM      3  O   UNL     1      -5.080  -8.653  -0.539  0.00  0.00    -0.278 OA
ATOM      4  H   UNL     1      -7.351  -6.582  -0.275  0.00  0.00    +0.155 HD
ENDROOT
BRANCH   1   9
ATOM      5  C   UNL     1      -3.246  -5.411  -1.444  0.00  0.00    +0.038 A 
ATOM      6  C   UNL     1      -3.282  -4.208  -0.736  0.00  0.00    +0.013 A 
ATOM      7  C   UNL     1      -4.362  -3.916   0.072  0.00  0.00    +0.003 A 
ATOM      8  C   UNL     1      -5.411  -4.811   0.183  0.00  0.00    +0.023 A 
ATOM      9  C   UNL     1      -5.384  -6.010  -0.519  0.00  0.00    +0.034 A 
ATOM     10  C   UNL     1      -4.306  -6.310  -1.337  0.00  0.00    +0.036 A 
BRANCH   5  12
ATOM     11  N   UNL     1      -1.067  -4.856  -2.413  0.00  0.00    -0.311 N 
ATOM     12  C   UNL     1      -2.090  -5.727  -2.311  0.00  0.00    +0.244 C 
ATOM     13  O   UNL     1      -2.063  -6.772  -2.931  0.00  0.00    -0.270 OA
ATOM     14  H   UNL     1      -1.088  -4.022  -1.918  0.00  0.00    +0.149 HD
BRANCH  11  15
ATOM     15  C   UNL     1       0.079  -5.169  -3.271  0.00  0.00    +0.104 C 
BRANCH  15  17
ATOM     16  C   UNL     1       2.288  -4.350  -4.104  0.00  0.00    +0.005 C 
ATOM     17  C   UNL     1       1.091  -4.023  -3.208  0.00  0.00    +0.015 C 
ENDBRANCH  15  17
ENDBRANCH  11  15
ENDBRANCH   5  12
ENDBRANCH   1   9
BRANCH   2  18
ATOM     18  C   UNL     1      -7.373  -9.205  -0.460  0.00  0.00    +0.016 C 
BRANCH  18  19
ATOM     19  N   UNL     1      -6.862 -10.580  -0.542  0.00  0.00    +0.387 N 
ATOM     20  H   UNL     1      -6.336 -10.693  -1.396  0.00  0.00    -0.085 HD
ATOM     21  H   UNL     1      -6.263 -10.763   0.249  0.00  0.00    -0.085 HD
BRANCH  19  22
ATOM     22  C   UNL     1      -7.989 -11.523  -0.532  0.00  0.00    -0.046 C 
BRANCH  22  23
ATOM     23  C   UNL     1      -7.464 -12.933  -0.616  0.00  0.00    -0.064 A 
ATOM     24  C   UNL     1      -7.272 -13.525  -1.850  0.00  0.00    +0.005 A 
ATOM     25  C   UNL     1      -6.792 -14.818  -1.930  0.00  0.00    +0.046 A 
ATOM     26  C   UNL     1      -6.502 -15.522  -0.770  0.00  0.00    +0.121 A 
ATOM     27  C   UNL     1      -6.695 -14.925   0.468  0.00  0.00    +0.046 A 
ATOM     28  C   UNL     1      -7.171 -13.630   0.542  0.00  0.00    +0.005 A 
BRANCH  26  29
ATOM     29  O   UNL     1      -6.030 -16.794  -0.845  0.00  0.00    -0.489 OA
BRANCH  29  30
ATOM     30  C   UNL     1      -5.739 -17.302  -2.149  0.00  0.00    +0.167 C 
ATOM     31  C   UNL     1      -4.690 -18.410  -2.042  0.00  0.00    +0.051 C 
ATOM     32  C   UNL     1      -7.017 -17.867  -2.773  0.00  0.00    +0.051 C 
ENDBRANCH  29  30
ENDBRANCH  26  29
ENDBRANCH  22  23
ENDBRANCH  19  22
ENDBRANCH  18  19
ENDBRANCH   2  18
TORSDOF 10
