REMARK  Name = ZINC38931397
REMARK  6 active torsions:
REMARK  status: ('A' for Active; 'I' for Inactive)
REMARK    1  A    between atoms: C_1  and  O_2
REMARK    2  A    between atoms: O_2  and  C_3
REMARK    3  A    between atoms: C_12  and  N_13
REMARK    4  A    between atoms: N_13  and  C_14
REMARK    5  A    between atoms: C_17  and  S_20
REMARK    6  A    between atoms: S_20  and  N_23
REMARK                            x       y       z     vdW  Elec       q    Type
REMARK                         _______ _______ _______ _____ _____    ______ ____
ROOT
ATOM      1  C   UNL     1       3.321  -6.572  -6.752  0.00  0.00    +0.031 A 
ATOM      2  C   UNL     1       4.220  -5.899  -7.569  0.00  0.00    +0.025 A 
ATOM      3  C   UNL     1       4.884  -6.580  -8.571  0.00  0.00    +0.031 A 
ATOM      4  C   UNL     1       4.655  -7.930  -8.760  0.00  0.00    +0.113 A 
ATOM      5  C   UNL     1       3.761  -8.603  -7.948  0.00  0.00    +0.031 A 
ATOM      6  C   UNL     1       3.098  -7.930  -6.941  0.00  0.00    +0.025 A 
ENDROOT
BRANCH   4   7
ATOM      7  S   UNL     1       5.503  -8.795 -10.039  0.00  0.00    +0.100 S 
ATOM      8  O   UNL     1       4.708  -9.928 -10.361  0.00  0.00    -0.146 OA
ATOM      9  O   UNL     1       5.874  -7.825 -11.008  0.00  0.00    -0.146 OA
BRANCH   7  10
ATOM     10  N   UNL     1       6.911  -9.375  -9.387  0.00  0.00    -0.112 NA
ATOM     11  C   UNL     1       7.735 -10.060 -10.125  0.00  0.00    +0.170 C 
ATOM     12  C   UNL     1       7.422 -10.327 -11.580  0.00  0.00    +0.191 C 
ATOM     13  N   UNL     1       8.396 -11.107 -12.360  0.00  0.00    -0.376 N 
ATOM     14  C   UNL     1       9.476 -11.529 -11.763  0.00  0.00    +0.061 A 
ATOM     15  C   UNL     1      10.480 -12.312 -12.498  0.00  0.00    +0.027 A 
ATOM     16  C   UNL     1      11.587 -12.731 -11.846  0.00  0.00    +0.002 A 
ATOM     17  C   UNL     1      11.800 -12.438 -10.489  0.00  0.00    +0.002 A 
ATOM     18  C   UNL     1      10.924 -11.724  -9.749  0.00  0.00    +0.030 A 
ATOM     19  C   UNL     1       9.727 -11.234 -10.331  0.00  0.00    +0.089 A 
ATOM     20  N   UNL     1       8.879 -10.535  -9.607  0.00  0.00    -0.227 NA
ATOM     21  H   UNL     1       8.238 -11.303 -13.296  0.00  0.00    +0.160 HD
ENDBRANCH   7  10
ENDBRANCH   4   7
BRANCH   1  22
ATOM     22  N   UNL     1       2.648  -5.886  -5.737  0.00  0.00    -0.320 N 
ATOM     23  H   UNL     1       2.024  -6.358  -5.164  0.00  0.00    +0.152 HD
BRANCH  22  33
ATOM     24  C   UNL     1       0.605  -0.606  -1.054  0.00  0.00    +0.120 A 
ATOM     25  C   UNL     1       1.172   0.167  -2.061  0.00  0.00    +0.046 A 
ATOM     26  C   UNL     1       1.776  -0.442  -3.139  0.00  0.00    +0.015 A 
ATOM     27  C   UNL     1       1.812  -1.834  -3.220  0.00  0.00    +0.025 A 
ATOM     28  C   UNL     1       1.263  -2.610  -2.197  0.00  0.00    -0.033 A 
ATOM     29  C   UNL     1       0.658  -1.993  -1.123  0.00  0.00    +0.050 A 
ATOM     30  C   UNL     1       1.360  -4.111  -2.245  0.00  0.00    +0.041 C 
ATOM     31  C   UNL     1       1.248  -4.615  -3.680  0.00  0.00    +0.045 C 
ATOM     32  C   UNL     1       2.218  -3.886  -4.572  0.00  0.00    +0.014 C 
ATOM     33  C   UNL     1       2.869  -4.550  -5.553  0.00  0.00    +0.079 C 
ATOM     34  C   UNL     1       2.445  -2.503  -4.377  0.00  0.00    +0.191 C 
ATOM     35  O   UNL     1       3.148  -1.876  -5.149  0.00  0.00    -0.287 OA
BRANCH  24  37
ATOM     36  C   UNL     1      -0.017   1.425   0.010  0.00  0.00    +0.277 C 
ATOM     37  O   UNL     1       0.002  -0.004   0.002  0.00  0.00    -0.495 OA
ENDBRANCH  24  37
ENDBRANCH  22  33
ENDBRANCH   1  22
TORSDOF 5
