REMARK  Name = ZINC09254292
REMARK  4 active torsions:
REMARK  status: ('A' for Active; 'I' for Inactive)
REMARK    1  A    between atoms: C_2  and  C_28
REMARK    2  A    between atoms: C_10  and  C_13
REMARK    3  A    between atoms: N_15  and  C_16
REMARK    4  A    between atoms: C_17  and  C_25
REMARK                            x       y       z     vdW  Elec       q    Type
REMARK                         _______ _______ _______ _____ _____    ______ ____
ROOT
ATOM      1  C   UNL     1      -4.904  -1.202  12.543  0.00  0.00    +0.037 A 
ATOM      2  C   UNL     1      -4.038  -0.693  13.502  0.00  0.00    +0.072 A 
ATOM      3  C   UNL     1      -3.044   0.183  13.119  0.00  0.00    +0.096 A 
ATOM      4  C   UNL     1      -3.711   0.080  10.912  0.00  0.00    +0.117 A 
ATOM      5  C   UNL     1      -4.740  -0.804  11.228  0.00  0.00    +0.079 A 
ATOM      6 CL   UNL     1      -5.797  -1.402   9.988  0.00  0.00    -0.080 Cl
ATOM      7  N   UNL     1      -3.530   0.485   9.594  0.00  0.00    -0.315 N 
ATOM      8  C   UNL     1      -3.118   1.893   9.527  0.00  0.00    +0.107 C 
ATOM      9  C   UNL     1      -3.070   2.344   8.066  0.00  0.00    +0.032 C 
ATOM     10  C   UNL     1      -2.078   1.465   7.298  0.00  0.00    +0.078 C 
ATOM     11  C   UNL     1      -2.502  -0.001   7.423  0.00  0.00    +0.032 C 
ATOM     12  C   UNL     1      -2.568  -0.383   8.904  0.00  0.00    +0.107 C 
ATOM     13  N   UNL     1      -2.849   0.593  11.837  0.00  0.00    -0.348 N 
ATOM     14  H   UNL     1      -2.100   1.246  11.581  0.00  0.00    +0.167 HD
ENDROOT
BRANCH  10  15
ATOM     15  C   UNL     1      -2.071   1.865   5.845  0.00  0.00    +0.221 C 
ATOM     16  O   UNL     1      -2.787   2.765   5.461  0.00  0.00    -0.275 OA
ATOM     17  N   UNL     1      -1.270   1.222   4.973  0.00  0.00    -0.279 N 
ATOM     18  H   UNL     1      -0.697   0.502   5.281  0.00  0.00    +0.155 HD
BRANCH  17  19
ATOM     19  C   UNL     1      -1.263   1.590   3.636  0.00  0.00    +0.084 A 
ATOM     20  C   UNL     1      -0.515   1.053   2.598  0.00  0.00    +0.068 A 
ATOM     21  C   UNL     1      -0.693   1.625   1.276  0.00  0.00    -0.023 A 
ATOM     22  C   UNL     1      -1.589   2.636   1.202  0.00  0.00    -0.004 A 
ATOM     23  S   UNL     1      -2.186   2.832   2.857  0.00  0.00    -0.077 S 
ATOM     24  C   UNL     1      -1.979   3.411  -0.019  0.00  0.00    +0.043 C 
ATOM     25  C   UNL     1      -0.938   3.141  -1.116  0.00  0.00    +0.005 C 
ATOM     26  C   UNL     1      -0.699   1.631  -1.208  0.00  0.00    +0.005 C 
ATOM     27  C   UNL     1       0.050   1.146   0.035  0.00  0.00    +0.037 C 
BRANCH  20  28
ATOM     28  C   UNL     1       0.422  -0.051   2.828  0.00  0.00    +0.244 C 
ATOM     29  O   UNL     1       0.042  -1.202   2.728  0.00  0.00    -0.270 OA
ATOM     30  N   UNL     1       1.705   0.210   3.149  0.00  0.00    -0.325 N 
ATOM     31  H   UNL     1       2.008   1.128   3.228  0.00  0.00    +0.145 HD
ATOM     32  H   UNL     1       2.325  -0.520   3.301  0.00  0.00    +0.145 HD
ENDBRANCH  20  28
ENDBRANCH  17  19
ENDBRANCH  10  15
BRANCH   2  33
ATOM     33  C   UNL     1      -4.183  -1.095  14.947  0.00  0.00    +0.419 C 
ATOM     34  F   UNL     1      -3.201  -0.455  15.710  0.00  0.00    -0.166 F 
ATOM     35  F   UNL     1      -5.450  -0.723  15.410  0.00  0.00    -0.166 F 
ATOM     36  F   UNL     1      -4.033  -2.481  15.063  0.00  0.00    -0.166 F 
ENDBRANCH   2  33
TORSDOF 4
