REMARK  Name = ZINC54627434
REMARK  6 active torsions:
REMARK  status: ('A' for Active; 'I' for Inactive)
REMARK    1  A    between atoms: C_1  and  O_2
REMARK    2  A    between atoms: O_2  and  C_3
REMARK    3  A    between atoms: C_5  and  N_11
REMARK    4  A    between atoms: C_7  and  O_9
REMARK    5  A    between atoms: O_9  and  C_10
REMARK    6  A    between atoms: C_19  and  N_21
REMARK                            x       y       z     vdW  Elec       q    Type
REMARK                         _______ _______ _______ _____ _____    ______ ____
ROOT
ATOM      1  N   UNL     1      -2.787  -4.062   0.027  0.00  0.00    -0.324 N 
ATOM      2  C   UNL     1      -1.609  -4.959  -0.061  0.00  0.00    +0.072 C 
ATOM      3  C   UNL     1      -2.055  -6.080  -1.029  0.00  0.00    +0.024 C 
ATOM      4  C   UNL     1      -3.594  -6.106  -0.917  0.00  0.00    +0.024 C 
ATOM      5  C   UNL     1      -3.933  -5.000   0.114  0.00  0.00    +0.072 C 
ATOM      6  C   UNL     1      -3.900  -5.632   1.515  0.00  0.00    +0.006 C 
ATOM      7  C   UNL     1      -2.618  -6.459   1.655  0.00  0.00    -0.072 C 
ATOM      8  C   UNL     1      -1.401  -5.577   1.331  0.00  0.00    +0.006 C 
ENDROOT
BRANCH   1  11
ATOM      9  C   UNL     1      -1.649  -0.565  -0.055  0.00  0.00    +0.125 A 
ATOM     10  C   UNL     1      -1.624  -1.951  -0.059  0.00  0.00    +0.069 A 
ATOM     11  C   UNL     1      -2.811  -2.666   0.032  0.00  0.00    +0.037 A 
ATOM     12  C   UNL     1      -4.021  -1.992   0.128  0.00  0.00    +0.069 A 
ATOM     13  C   UNL     1      -4.044  -0.606   0.132  0.00  0.00    +0.125 A 
ATOM     14  C   UNL     1      -2.858   0.108   0.046  0.00  0.00    +0.091 A 
BRANCH   9  16
ATOM     15  C   UNL     1      -0.587   1.561  -0.127  0.00  0.00    +0.277 C 
ATOM     16  O   UNL     1      -0.488   0.136  -0.144  0.00  0.00    -0.495 OA
ENDBRANCH   9  16
BRANCH  13  17
ATOM     17  O   UNL     1      -5.229   0.053   0.225  0.00  0.00    -0.495 OA
ATOM     18  C   UNL     1      -5.178   1.481   0.224  0.00  0.00    +0.277 C 
ENDBRANCH  13  17
ENDBRANCH   1  11
BRANCH   7  19
ATOM     19  N   UNL     1      -2.670  -7.601   0.733  0.00  0.00    +0.380 N 
ATOM     20  H   UNL     1      -2.749  -7.265  -0.215  0.00  0.00    -0.090 HD
ATOM     21  H   UNL     1      -1.827  -8.148   0.827  0.00  0.00    -0.090 HD
ATOM     22  H   UNL     1      -3.470  -8.175   0.954  0.00  0.00    -0.090 HD
ENDBRANCH   7  19
TORSDOF 4
