REMARK  Name = ZINC38790395
REMARK  8 active torsions:
REMARK  status: ('A' for Active; 'I' for Inactive)
REMARK    1  A    between atoms: C_1  and  C_2
REMARK    2  A    between atoms: C_2  and  C_3
REMARK    3  A    between atoms: C_2  and  C_4
REMARK    4  A    between atoms: C_11  and  C_16
REMARK    5  A    between atoms: C_16  and  N_17
REMARK    6  A    between atoms: N_17  and  C_18
REMARK    7  A    between atoms: C_21  and  N_24
REMARK    8  A    between atoms: C_28  and  O_31
REMARK                            x       y       z     vdW  Elec       q    Type
REMARK                         _______ _______ _______ _____ _____    ______ ____
ROOT
ATOM      1  C   UNL     1      -5.858  -2.607  -3.149  0.00  0.00    +0.118 C 
ENDROOT
BRANCH   1   9
ATOM      2  C   UNL     1      -1.375  -0.558  -0.026  0.00  0.00    -0.044 A 
ATOM      3  C   UNL     1      -2.211  -0.207   1.034  0.00  0.00    +0.006 A 
ATOM      4  C   UNL     1      -3.501  -0.625   1.119  0.00  0.00    +0.024 A 
ATOM      5  C   UNL     1      -4.053  -1.446   0.119  0.00  0.00    +0.040 A 
ATOM      6  N   UNL     1      -5.320  -1.850   0.213  0.00  0.00    -0.284 N 
ATOM      7  C   UNL     1      -5.901  -2.622  -0.691  0.00  0.00    +0.226 C 
ATOM      8  O   UNL     1      -7.062  -2.958  -0.551  0.00  0.00    -0.275 OA
ATOM      9  C   UNL     1      -5.117  -3.084  -1.898  0.00  0.00    +0.115 C 
ATOM     10  C   UNL     1      -3.675  -2.627  -2.010  0.00  0.00    -0.003 C 
ATOM     11  C   UNL     1      -3.192  -1.833  -1.012  0.00  0.00    -0.007 A 
ATOM     12  C   UNL     1      -1.814  -1.343  -1.044  0.00  0.00    +0.013 A 
ATOM     13  H   UNL     1      -5.841  -1.564   0.980  0.00  0.00    +0.155 HD
BRANCH   2  15
ATOM     14  C   UNL     1       0.040   1.478  -0.049  0.00  0.00    +0.012 C 
ATOM     15  C   UNL     1       0.044  -0.052  -0.045  0.00  0.00    +0.013 C 
ATOM     16  C   UNL     1       0.783  -0.556   1.197  0.00  0.00    +0.012 C 
ENDBRANCH   2  15
ENDBRANCH   1   9
BRANCH   1  17
ATOM     17  N   UNL     1      -7.159  -3.276  -3.231  0.00  0.00    -0.343 N 
ATOM     18  H   UNL     1      -7.422  -3.910  -2.545  0.00  0.00    +0.146 HD
BRANCH  17  19
ATOM     19  C   UNL     1      -8.022  -2.999  -4.297  0.00  0.00    +0.027 A 
ATOM     20  C   UNL     1      -7.643  -2.096  -5.281  0.00  0.00    +0.025 A 
ATOM     21  C   UNL     1      -8.495  -1.823  -6.333  0.00  0.00    +0.025 A 
ATOM     22  C   UNL     1      -9.731  -2.452  -6.407  0.00  0.00    +0.030 A 
ATOM     23  C   UNL     1     -10.110  -3.356  -5.423  0.00  0.00    +0.025 A 
ATOM     24  C   UNL     1      -9.256  -3.633  -4.374  0.00  0.00    +0.025 A 
BRANCH  22  25
ATOM     25  N   UNL     1     -10.595  -2.175  -7.473  0.00  0.00    -0.327 N 
ATOM     26  C   UNL     1     -11.852  -2.919  -7.631  0.00  0.00    +0.105 C 
ATOM     27  C   UNL     1     -13.007  -1.919  -7.737  0.00  0.00    +0.021 C 
ATOM     28  C   UNL     1     -12.717  -0.928  -8.867  0.00  0.00    +0.034 C 
ATOM     29  C   UNL     1     -11.435  -0.154  -8.552  0.00  0.00    +0.132 C 
ATOM     30  C   UNL     1     -10.265  -1.130  -8.452  0.00  0.00    +0.136 C 
BRANCH  29  31
ATOM     31  O   UNL     1     -11.182   0.793  -9.592  0.00  0.00    -0.390 OA
ATOM     32  H   UNL     1     -11.887   1.444  -9.711  0.00  0.00    +0.210 HD
ENDBRANCH  29  31
ENDBRANCH  22  25
ENDBRANCH  17  19
ENDBRANCH   1  17
TORSDOF 6
