REMARK  Name = ZINC16461863
REMARK  8 active torsions:
REMARK  status: ('A' for Active; 'I' for Inactive)
REMARK    1  A    between atoms: C_1  and  C_2
REMARK    2  A    between atoms: C_2  and  N_57
REMARK    3  A    between atoms: C_8  and  C_10
REMARK    4  A    between atoms: C_13  and  C_15
REMARK    5  A    between atoms: C_15  and  S_16
REMARK    6  A    between atoms: S_16  and  C_17
REMARK    7  A    between atoms: C_20  and  C_29
REMARK    8  A    between atoms: N_21  and  C_22
REMARK                            x       y       z     vdW  Elec       q    Type
REMARK                         _______ _______ _______ _____ _____    ______ ____
ROOT
ATOM      1  S   UNL     1       1.423  -2.965  -0.922  0.00  0.00    -0.079 S 
ENDROOT
BRANCH   1   2
ATOM      2  C   UNL     1       1.693  -4.615  -0.366  0.00  0.00    +0.197 A 
ATOM      3  N   UNL     1       1.794  -5.010   0.883  0.00  0.00    -0.122 NA
ATOM      4  N   UNL     1       1.989  -6.279   0.932  0.00  0.00    -0.125 NA
ATOM      5  C   UNL     1       2.024  -6.777  -0.285  0.00  0.00    +0.205 A 
ATOM      6  N   UNL     1       1.829  -5.725  -1.156  0.00  0.00    -0.266 N 
BRANCH   6   7
ATOM      7  C   UNL     1       1.784  -5.781  -2.556  0.00  0.00    +0.069 A 
ATOM      8  C   UNL     1       2.949  -5.631  -3.296  0.00  0.00    +0.028 A 
ATOM      9  C   UNL     1       2.901  -5.687  -4.675  0.00  0.00    +0.002 A 
ATOM     10  C   UNL     1       1.695  -5.892  -5.320  0.00  0.00    +0.002 A 
ATOM     11  C   UNL     1       0.533  -6.042  -4.587  0.00  0.00    +0.022 A 
ATOM     12  C   UNL     1       0.574  -5.992  -3.206  0.00  0.00    +0.065 A 
ATOM     13 CL   UNL     1      -0.884  -6.187  -2.285  0.00  0.00    -0.081 Cl
ENDBRANCH   6   7
BRANCH   5  14
ATOM     14  C   UNL     1       2.225  -8.188  -0.648  0.00  0.00    +0.172 A 
ATOM     15  C   UNL     1       2.132  -9.253   0.198  0.00  0.00    +0.053 A 
ATOM     16  C   UNL     1       2.398 -10.404  -0.570  0.00  0.00    +0.042 A 
ATOM     17  C   UNL     1       2.646  -9.991  -1.829  0.00  0.00    +0.196 A 
ATOM     18  O   UNL     1       2.541  -8.653  -1.873  0.00  0.00    -0.460 OA
ENDBRANCH   5  14
ENDBRANCH   1   2
BRANCH   1  19
ATOM     19  C   UNL     1       1.347  -2.106   0.670  0.00  0.00    +0.140 C 
BRANCH  19  23
ATOM     20  C   UNL     1      -0.024   1.325   0.134  0.00  0.00    +0.133 A 
ATOM     21  C   UNL     1       1.190   1.953   0.022  0.00  0.00    +0.080 A 
ATOM     22  S   UNL     1       2.288   0.624   0.224  0.00  0.00    -0.079 S 
ATOM     23  C   UNL     1       1.115  -0.635   0.436  0.00  0.00    +0.089 A 
ATOM     24  N   UNL     1      -0.020   0.008   0.344  0.00  0.00    -0.239 NA
BRANCH  20  30
ATOM     25  C   UNL     1      -3.322  -0.512  -1.295  0.00  0.00    -0.060 C 
ATOM     26  C   UNL     1      -2.495  -0.055  -0.089  0.00  0.00    +0.089 C 
ATOM     27  N   UNL     1      -2.456   1.416  -0.080  0.00  0.00    -0.300 N 
ATOM     28  C   UNL     1      -3.729   2.146  -0.175  0.00  0.00    +0.089 C 
ATOM     29  C   UNL     1      -4.508   1.602  -1.384  0.00  0.00    -0.060 C 
ATOM     30  C   UNL     1      -1.286   2.076   0.019  0.00  0.00    +0.265 C 
ATOM     31  O   UNL     1      -1.271   3.292   0.015  0.00  0.00    -0.268 OA
ATOM     32  N   UNL     1      -4.650   0.138  -1.234  0.00  0.00    +0.382 N 
ATOM     33  H   UNL     1      -5.077  -0.064  -0.323  0.00  0.00    -0.082 HD
BRANCH  32  35
ATOM     34  C   UNL     1      -6.944   0.123  -2.080  0.00  0.00    -0.017 C 
ATOM     35  C   UNL     1      -5.522  -0.396  -2.301  0.00  0.00    -0.082 C 
ENDBRANCH  32  35
ENDBRANCH  20  30
ENDBRANCH  19  23
ENDBRANCH   1  19
TORSDOF 7
