REMARK  Name = ZINC02470509
REMARK  12 active torsions:
REMARK  status: ('A' for Active; 'I' for Inactive)
REMARK    1  A    between atoms: C_1  and  C_2
REMARK    2  A    between atoms: C_2  and  O_3
REMARK    3  A    between atoms: O_3  and  C_4
REMARK    4  A    between atoms: C_8  and  C_12
REMARK    5  A    between atoms: C_9  and  O_10
REMARK    6  A    between atoms: O_10  and  C_11
REMARK    7  A    between atoms: C_12  and  C_14
REMARK    8  A    between atoms: C_12  and  N_26
REMARK    9  A    between atoms: C_20  and  C_25
REMARK   10  A    between atoms: C_23  and  O_24
REMARK   11  A    between atoms: N_26  and  C_27
REMARK   12  A    between atoms: C_31  and  C_32
REMARK                            x       y       z     vdW  Elec       q    Type
REMARK                         _______ _______ _______ _____ _____    ______ ____
ROOT
ATOM      1  C   UNL     1      -2.406  -0.367  -0.101  0.00  0.00    +0.139 C 
ENDROOT
BRANCH   1   2
ATOM      2  C   UNL     1      -1.628  -0.113  -1.366  0.00  0.00    +0.021 A 
ATOM      3  C   UNL     1      -1.411   1.197  -1.787  0.00  0.00    +0.010 A 
ATOM      4  C   UNL     1      -0.712   1.460  -2.926  0.00  0.00    +0.010 A 
ATOM      5  C   UNL     1      -0.200   0.398  -3.689  0.00  0.00    +0.004 A 
ATOM      6  C   UNL     1       0.528   0.630  -4.871  0.00  0.00    +0.012 A 
ATOM      7  C   UNL     1       0.997  -0.450  -5.563  0.00  0.00    +0.023 A 
ATOM      8  C   UNL     1       0.748  -1.738  -5.091  0.00  0.00    +0.039 A 
ATOM      9  N   UNL     1       0.070  -1.950  -3.990  0.00  0.00    -0.248 NA
ATOM     10  C   UNL     1      -0.416  -0.937  -3.267  0.00  0.00    +0.113 A 
ATOM     11  C   UNL     1      -1.140  -1.171  -2.079  0.00  0.00    +0.148 A 
ATOM     12  C   UNL     1       1.274  -2.917  -5.868  0.00  0.00    +0.065 C 
BRANCH  11  13
ATOM     13  O   UNL     1      -1.356  -2.441  -1.650  0.00  0.00    -0.504 OA
ATOM     14  H   UNL     1      -2.168  -2.840  -1.993  0.00  0.00    +0.292 HD
ENDBRANCH  11  13
ENDBRANCH   1   2
BRANCH   1  19
ATOM     15  C   UNL     1      -1.003  -1.023   3.353  0.00  0.00    +0.162 A 
ATOM     16  C   UNL     1       0.302  -1.381   3.052  0.00  0.00    +0.049 A 
ATOM     17  C   UNL     1       0.725  -1.409   1.736  0.00  0.00    +0.004 A 
ATOM     18  C   UNL     1      -0.151  -1.082   0.718  0.00  0.00    +0.009 A 
ATOM     19  C   UNL     1      -1.454  -0.724   1.011  0.00  0.00    +0.023 A 
ATOM     20  C   UNL     1      -1.883  -0.689   2.328  0.00  0.00    +0.167 A 
BRANCH  20  21
ATOM     21  O   UNL     1      -3.163  -0.332   2.619  0.00  0.00    -0.491 OA
ATOM     22  C   UNL     1      -4.107  -1.390   2.797  0.00  0.00    +0.277 C 
ENDBRANCH  20  21
BRANCH  15  23
ATOM     23  O   UNL     1      -1.421  -0.995   4.647  0.00  0.00    -0.489 OA
BRANCH  23  25
ATOM     24  C   UNL     1      -1.109  -1.255   7.029  0.00  0.00    +0.048 C 
ATOM     25  C   UNL     1      -0.461  -1.345   5.646  0.00  0.00    +0.226 C 
ENDBRANCH  23  25
ENDBRANCH  15  23
ENDBRANCH   1  19
BRANCH   1  26
ATOM     26  N   UNL     1      -3.152   0.840   0.264  0.00  0.00    -0.319 N 
ATOM     27  H   UNL     1      -4.115   0.867   0.153  0.00  0.00    +0.148 HD
BRANCH  26  28
ATOM     28  C   UNL     1      -2.480   1.947   0.768  0.00  0.00    +0.097 A 
ATOM     29  C   UNL     1      -1.094   1.918   0.884  0.00  0.00    +0.041 A 
ATOM     30  C   UNL     1      -0.437   3.028   1.383  0.00  0.00    +0.005 A 
ATOM     31  C   UNL     1      -1.192   4.133   1.755  0.00  0.00    +0.021 A 
ATOM     32  C   UNL     1      -2.564   4.091   1.618  0.00  0.00    +0.014 A 
ATOM     33  C   UNL     1      -3.389   5.287   2.020  0.00  0.00    +0.063 C 
ATOM     34  N   UNL     1      -3.243   3.018   1.133  0.00  0.00    -0.347 N 
ATOM     35  H   UNL     1      -4.266   3.013   1.046  0.00  0.00    +0.167 HD
ENDBRANCH  26  28
ENDBRANCH   1  26
TORSDOF 8
