REMARK  Name = ZINC30210582
REMARK  6 active torsions:
REMARK  status: ('A' for Active; 'I' for Inactive)
REMARK    1  A    between atoms: C_3  and  C_6
REMARK    2  A    between atoms: C_6  and  N_7
REMARK    3  A    between atoms: N_11  and  C_14
REMARK    4  A    between atoms: C_14  and  C_15
REMARK    5  A    between atoms: N_17  and  C_18
REMARK    6  A    between atoms: C_19  and  C_23
REMARK                            x       y       z     vdW  Elec       q    Type
REMARK                         _______ _______ _______ _____ _____    ______ ____
ROOT
ATOM      1  C   UNL     1      -1.738   1.138  -5.510  0.00  0.00    +0.019 C 
ENDROOT
BRANCH   1   6
ATOM      2  N   UNL     1      -0.723   1.572  -1.182  0.00  0.00    -0.299 NA
ATOM      3  C   UNL     1      -2.102   1.040  -1.231  0.00  0.00    +0.083 C 
ATOM      4  C   UNL     1      -2.959   2.001  -2.017  0.00  0.00    -0.003 C 
ATOM      5  C   UNL     1      -3.024   1.630  -3.507  0.00  0.00    -0.077 C 
ATOM      6  N   UNL     1      -1.711   1.205  -4.043  0.00  0.00    +0.386 N 
ATOM      7  C   UNL     1      -0.603   2.010  -3.581  0.00  0.00    -0.063 C 
ATOM      8  C   UNL     1       0.022   1.335  -2.344  0.00  0.00    +0.066 C 
ATOM      9  H   UNL     1      -1.512   0.202  -3.638  0.00  0.00    -0.081 HD
BRANCH   2  10
ATOM     10  C   UNL     1      -0.013   1.086   0.008  0.00  0.00    +0.126 C 
BRANCH  10  13
ATOM     11  C   UNL     1      -2.215   1.617   3.071  0.00  0.00    +0.008 A 
ATOM     12  C   UNL     1      -1.718   0.982   1.948  0.00  0.00    +0.012 A 
ATOM     13  C   UNL     1      -0.718   1.572   1.248  0.00  0.00    +0.004 A 
ATOM     14  S   UNL     1      -0.460   3.078   2.171  0.00  0.00    -0.100 S 
ATOM     15  C   UNL     1      -1.696   2.816   3.432  0.00  0.00    +0.045 A 
ENDBRANCH  10  13
ENDBRANCH   2  10
ENDBRANCH   1   6
BRANCH   1  16
ATOM     16  C   UNL     1      -2.744   0.104  -5.947  0.00  0.00    +0.201 C 
ATOM     17  O   UNL     1      -3.376  -0.516  -5.118  0.00  0.00    -0.278 OA
ATOM     18  N   UNL     1      -2.940  -0.132  -7.260  0.00  0.00    -0.281 N 
ATOM     19  H   UNL     1      -2.367   0.430  -8.011  0.00  0.00    +0.155 HD
BRANCH  18  20
ATOM     20  C   UNL     1      -3.866  -1.083  -7.662  0.00  0.00    +0.084 A 
ATOM     21  C   UNL     1      -4.210  -1.460  -8.955  0.00  0.00    +0.065 A 
ATOM     22  C   UNL     1      -5.213  -2.490  -9.085  0.00  0.00    +0.022 A 
ATOM     23  C   UNL     1      -5.733  -2.988  -7.949  0.00  0.00    +0.048 A 
ATOM     24  S   UNL     1      -4.878  -2.084  -6.676  0.00  0.00    -0.081 S 
BRANCH  21  25
ATOM     25  C   UNL     1      -3.583  -0.844 -10.128  0.00  0.00    +0.244 C 
ATOM     26  O   UNL     1      -2.738   0.020  -9.983  0.00  0.00    -0.270 OA
ATOM     27  N   UNL     1      -3.942  -1.235 -11.367  0.00  0.00    -0.325 N 
ATOM     28  H   UNL     1      -3.471  -0.773 -12.248  0.00  0.00    +0.145 HD
ATOM     29  H   UNL     1      -4.705  -2.016 -11.498  0.00  0.00    +0.145 HD
ENDBRANCH  21  25
ENDBRANCH  18  20
ENDBRANCH   1  16
TORSDOF 6
