REMARK  Name = ZINC58288881
REMARK  11 active torsions:
REMARK  status: ('A' for Active; 'I' for Inactive)
REMARK    1  A    between atoms: C_1  and  C_2
REMARK    2  A    between atoms: C_2  and  C_4
REMARK    3  A    between atoms: C_2  and  N_18
REMARK    4  A    between atoms: N_6  and  C_7
REMARK    5  A    between atoms: C_8  and  C_15
REMARK    6  A    between atoms: N_18  and  C_19
REMARK    7  A    between atoms: N_18  and  C_20
REMARK    8  A    between atoms: C_20  and  C_21
REMARK    9  A    between atoms: C_24  and  C_27
REMARK   10  A    between atoms: C_27  and  C_28
REMARK   11  A    between atoms: C_27  and  C_29
REMARK                            x       y       z     vdW  Elec       q    Type
REMARK                         _______ _______ _______ _____ _____    ______ ____
ROOT
ATOM      1  C   UNL     1       1.248  -0.503  -1.090  0.00  0.00    +0.204 C 
ATOM      2  O   UNL     1       2.264  -1.066  -0.742  0.00  0.00    -0.277 OA
ATOM      3  N   UNL     1       1.015  -0.283  -2.399  0.00  0.00    -0.281 N 
ATOM      4  H   UNL     1       0.202   0.167  -2.678  0.00  0.00    +0.155 HD
ENDROOT
BRANCH   3   5
ATOM      5  C   UNL     1       1.937  -0.700  -3.347  0.00  0.00    +0.084 A 
ATOM      6  C   UNL     1       1.868  -0.556  -4.721  0.00  0.00    +0.068 A 
ATOM      7  C   UNL     1       2.981  -1.087  -5.506  0.00  0.00    -0.023 A 
ATOM      8  C   UNL     1       3.948  -1.662  -4.769  0.00  0.00    -0.004 A 
ATOM      9  S   UNL     1       3.394  -1.489  -3.091  0.00  0.00    -0.077 S 
ATOM     10  C   UNL     1       5.065  -2.194  -5.625  0.00  0.00    +0.043 C 
ATOM     11  C   UNL     1       4.468  -2.258  -7.049  0.00  0.00    +0.010 C 
ATOM     12  C   UNL     1       3.372  -1.176  -6.980  0.00  0.00    +0.037 C 
BRANCH   6  13
ATOM     13  C   UNL     1       0.726   0.102  -5.363  0.00  0.00    +0.244 C 
ATOM     14  O   UNL     1       0.746   1.303  -5.557  0.00  0.00    -0.270 OA
ATOM     15  N   UNL     1      -0.346  -0.624  -5.738  0.00  0.00    -0.325 N 
ATOM     16  H   UNL     1      -0.362  -1.581  -5.583  0.00  0.00    +0.145 HD
ATOM     17  H   UNL     1      -1.102  -0.189  -6.163  0.00  0.00    +0.145 HD
ENDBRANCH   6  13
ENDBRANCH   3   5
BRANCH   1  19
ATOM     18  C   UNL     1       0.539   1.401   0.332  0.00  0.00    -0.004 C 
ATOM     19  C   UNL     1       0.246  -0.049  -0.060  0.00  0.00    +0.016 C 
BRANCH  19  20
ATOM     20  N   UNL     1       0.344  -0.907   1.129  0.00  0.00    +0.388 N 
ATOM     21  C   UNL     1       0.029  -2.293   0.759  0.00  0.00    -0.095 C 
ATOM     22  H   UNL     1       1.281  -0.863   1.500  0.00  0.00    -0.081 HD
BRANCH  20  23
ATOM     23  C   UNL     1      -0.608  -0.443   2.147  0.00  0.00    -0.042 C 
BRANCH  23  24
ATOM     24  C   UNL     1      -0.423  -1.244   3.410  0.00  0.00    -0.064 A 
ATOM     25  C   UNL     1      -1.138  -2.413   3.598  0.00  0.00    +0.002 A 
ATOM     26  C   UNL     1      -0.968  -3.148   4.757  0.00  0.00    +0.004 A 
ATOM     27  C   UNL     1      -0.083  -2.715   5.726  0.00  0.00    -0.045 A 
ATOM     28  C   UNL     1       0.632  -1.547   5.538  0.00  0.00    +0.004 A 
ATOM     29  C   UNL     1       0.466  -0.814   4.377  0.00  0.00    +0.002 A 
BRANCH  27  30
ATOM     30  C   UNL     1       0.101  -3.515   6.990  0.00  0.00    +0.013 C 
ATOM     31  C   UNL     1       1.562  -3.954   7.107  0.00  0.00    +0.012 C 
ATOM     32  C   UNL     1      -0.271  -2.654   8.198  0.00  0.00    +0.012 C 
ENDBRANCH  27  30
ENDBRANCH  23  24
ENDBRANCH  20  23
ENDBRANCH  19  20
ENDBRANCH   1  19
TORSDOF 7
