REMARK  Name = ZINC03022090
REMARK  7 active torsions:
REMARK  status: ('A' for Active; 'I' for Inactive)
REMARK    1  A    between atoms: C_1  and  C_2
REMARK    2  A    between atoms: C_4  and  N_9
REMARK    3  A    between atoms: C_13  and  C_31
REMARK    4  A    between atoms: C_19  and  S_20
REMARK    5  A    between atoms: S_20  and  C_21
REMARK    6  A    between atoms: C_21  and  C_22
REMARK    7  A    between atoms: C_27  and  C_30
REMARK                            x       y       z     vdW  Elec       q    Type
REMARK                         _______ _______ _______ _____ _____    ______ ____
ROOT
ATOM      1  N   UNL     1      -6.491   1.378   0.046  0.00  0.00    -0.275 N 
ATOM      2  C   UNL     1      -7.589   0.532   0.041  0.00  0.00    +0.124 A 
ATOM      3  N   UNL     1      -8.809   1.000   0.049  0.00  0.00    -0.384 N 
ATOM      4  C   UNL     1      -7.323  -0.917   0.032  0.00  0.00    +0.082 A 
ATOM      5  C   UNL     1      -8.091  -2.052   0.030  0.00  0.00    +0.072 A 
ATOM      6  N   UNL     1      -7.260  -3.109   0.020  0.00  0.00    -0.177 NA
ATOM      7  H   UNL     1      -4.985  -3.226   0.009  0.00  0.00    +0.191 HD
ATOM      8  N   UNL     1      -5.932  -2.666   0.016  0.00  0.00    -0.260 N 
ATOM      9  C   UNL     1      -5.918  -1.353   0.023  0.00  0.00    +0.162 A 
ATOM     10  N   UNL     1      -4.942  -0.405   0.024  0.00  0.00    -0.204 NA
ATOM     11  C   UNL     1      -5.218   0.872   0.032  0.00  0.00    +0.177 A 
ATOM     12  C   UNL     1      -9.597  -2.105   0.037  0.00  0.00    +0.068 C 
ATOM     13  H   UNL     1      -9.664   0.307   0.045  0.00  0.00    +0.157 HD
ATOM     14  H   UNL     1      -8.982   2.086   0.061  0.00  0.00    +0.157 HD
ENDROOT
BRANCH   1  18
ATOM     15  C   UNL     1      -6.046   5.737  -2.187  0.00  0.00    +0.045 C 
ATOM     16  C   UNL     1      -6.479   4.902  -1.009  0.00  0.00    -0.030 A 
ATOM     17  C   UNL     1      -6.286   3.534  -1.025  0.00  0.00    +0.031 A 
ATOM     18  C   UNL     1      -6.684   2.765   0.060  0.00  0.00    +0.051 A 
ATOM     19  C   UNL     1      -7.281   3.373   1.157  0.00  0.00    +0.028 A 
ATOM     20  C   UNL     1      -7.466   4.742   1.171  0.00  0.00    +0.022 A 
ATOM     21  C   UNL     1      -7.068   5.506   0.087  0.00  0.00    +0.044 A 
ATOM     22 CL   UNL     1      -7.309   7.225   0.104  0.00  0.00    -0.083 Cl
ENDBRANCH   1  18
BRANCH  11  23
ATOM     23  S   UNL     1      -3.874   2.010   0.032  0.00  0.00    -0.078 S 
BRANCH  23  24
ATOM     24  C   UNL     1      -2.482   0.853   0.019  0.00  0.00    +0.173 C 
BRANCH  24  25
ATOM     25  C   UNL     1      -1.187   1.624   0.017  0.00  0.00    +0.229 C 
ATOM     26  O   UNL     1      -1.204   2.836   0.024  0.00  0.00    -0.275 OA
ATOM     27  N   UNL     1      -0.011   0.966   0.008  0.00  0.00    -0.267 N 
ATOM     28  C   UNL     1       1.187   1.680   0.000  0.00  0.00    +0.168 A 
ATOM     29  C   UNL     1       1.339   3.092   0.007  0.00  0.00    +0.091 A 
ATOM     30  C   UNL     1       2.679   3.276  -0.004  0.00  0.00    +0.136 A 
ATOM     31  O   UNL     1       3.233   2.056  -0.016  0.00  0.00    -0.358 OA
ATOM     32  N   UNL     1       2.397   1.183  -0.008  0.00  0.00    -0.063 NA
ATOM     33  C   UNL     1       3.406   4.596  -0.004  0.00  0.00    +0.089 C 
ATOM     34  H   UNL     1       0.004  -0.134   0.007  0.00  0.00    +0.156 HD
ENDBRANCH  24  25
ENDBRANCH  23  24
ENDBRANCH  11  23
TORSDOF 4
