REMARK  Name = ZINC23907901
REMARK  2 active torsions:
REMARK  status: ('A' for Active; 'I' for Inactive)
REMARK    1  A    between atoms: C_8  and  C_10
REMARK    2  A    between atoms: C_10  and  N_12
REMARK                            x       y       z     vdW  Elec       q    Type
REMARK                         _______ _______ _______ _____ _____    ______ ____
ROOT
ATOM      1  N   UNL     1       2.145   4.183  -0.627  0.00  0.00    -0.154 NA
ATOM      2  C   UNL     1       1.158   3.557   0.019  0.00  0.00    +0.155 C 
ATOM      3  C   UNL     1       1.283   2.098   0.164  0.00  0.00    +0.022 A 
ATOM      4  C   UNL     1       2.544   1.528   0.360  0.00  0.00    +0.012 A 
ATOM      5  C   UNL     1       2.665   0.165   0.532  0.00  0.00    +0.001 A 
ATOM      6  C   UNL     1       1.540  -0.640   0.513  0.00  0.00    +0.000 A 
ATOM      7  C   UNL     1       0.290  -0.083   0.311  0.00  0.00    +0.006 A 
ATOM      8  C   UNL     1       0.158   1.280   0.129  0.00  0.00    -0.019 A 
ATOM      9  C   UNL     1      -1.198   1.869  -0.127  0.00  0.00    +0.147 C 
ATOM     10  N   UNL     1      -1.578   2.805   0.927  0.00  0.00    -0.286 N 
ATOM     11  C   UNL     1      -2.657   2.491   1.697  0.00  0.00    +0.092 C 
ATOM     12  C   UNL     1      -3.134   3.353   2.626  0.00  0.00    +0.032 C 
ATOM     13  C   UNL     1      -2.502   4.589   2.814  0.00  0.00    +0.020 C 
ATOM     14  C   UNL     1      -1.399   4.891   2.073  0.00  0.00    +0.045 C 
ATOM     15  C   UNL     1      -0.902   3.967   1.134  0.00  0.00    +0.128 C 
ATOM     16  N   UNL     1       0.187   4.294   0.455  0.00  0.00    -0.215 NA
ATOM     17 BR   UNL     1      -4.646   2.891   3.663  0.00  0.00    -0.049 Br
ENDROOT
BRANCH   1  18
ATOM     18  C   UNL     1       3.102   3.474  -1.234  0.00  0.00    +0.304 C 
ATOM     19  O   UNL     1       2.806   2.661  -2.095  0.00  0.00    -0.265 OA
BRANCH  18  27
ATOM     20  C   UNL     1       9.013   3.943  -0.062  0.00  0.00    +0.001 A 
ATOM     21  C   UNL     1       8.563   4.891   0.847  0.00  0.00    +0.004 A 
ATOM     22  C   UNL     1       7.218   5.167   0.969  0.00  0.00    +0.047 A 
ATOM     23  C   UNL     1       6.298   4.491   0.175  0.00  0.00    +0.136 A 
ATOM     24  C   UNL     1       6.761   3.531  -0.745  0.00  0.00    +0.021 A 
ATOM     25  C   UNL     1       8.128   3.267  -0.853  0.00  0.00    +0.011 A 
ATOM     26  C   UNL     1       5.566   3.014  -1.411  0.00  0.00    +0.063 A 
ATOM     27  C   UNL     1       4.514   3.674  -0.864  0.00  0.00    +0.193 A 
ATOM     28  O   UNL     1       4.957   4.546   0.065  0.00  0.00    -0.450 OA
ENDBRANCH  18  27
ENDBRANCH   1  18
TORSDOF 2
