REMARK  Name = ZINC22547316
REMARK  7 active torsions:
REMARK  status: ('A' for Active; 'I' for Inactive)
REMARK    1  A    between atoms: C_1  and  C_2
REMARK    2  A    between atoms: C_2  and  C_4
REMARK    3  A    between atoms: C_2  and  N_18
REMARK    4  A    between atoms: N_6  and  C_7
REMARK    5  A    between atoms: C_12  and  C_13
REMARK    6  A    between atoms: N_21  and  S_24
REMARK    7  A    between atoms: S_24  and  N_27
REMARK                            x       y       z     vdW  Elec       q    Type
REMARK                         _______ _______ _______ _____ _____    ______ ____
ROOT
ATOM      1  C   UNL     1      -2.736   2.834   2.801  0.00  0.00    -0.004 C 
ATOM      2  C   UNL     1      -1.441   3.567   2.446  0.00  0.00    +0.017 C 
ENDROOT
BRANCH   2   3
ATOM      3  N   UNL     1      -0.902   3.028   1.190  0.00  0.00    +0.389 N 
ATOM      4  C   UNL     1      -0.736   1.571   1.271  0.00  0.00    -0.060 C 
ATOM      5  C   UNL     1      -0.012   1.073   0.016  0.00  0.00    +0.092 C 
ATOM      6  N   UNL     1      -0.738   1.554  -1.169  0.00  0.00    -0.170 NA
ATOM      7  C   UNL     1      -1.059   2.987  -1.254  0.00  0.00    +0.092 C 
ATOM      8  C   UNL     1      -1.746   3.410   0.049  0.00  0.00    -0.060 C 
ATOM      9  H   UNL     1       0.093   3.469   1.029  0.00  0.00    -0.081 HD
BRANCH   6  10
ATOM     10  S   UNL     1      -1.182   0.511  -2.377  0.00  0.00    +0.099 S 
ATOM     11  O   UNL     1      -1.328   1.292  -3.554  0.00  0.00    -0.141 OA
ATOM     12  O   UNL     1      -0.295  -0.597  -2.302  0.00  0.00    -0.141 OA
BRANCH  10  13
ATOM     13  N   UNL     1      -2.688  -0.062  -1.998  0.00  0.00    -0.166 NA
ATOM     14  C   UNL     1      -2.793  -1.268  -1.207  0.00  0.00    +0.110 C 
ATOM     15  C   UNL     1      -2.811  -2.503  -2.132  0.00  0.00    +0.017 C 
ATOM     16  C   UNL     1      -4.087  -2.578  -2.859  0.00  0.00    +0.001 C 
ATOM     17  C   UNL     1      -4.348  -1.401  -3.794  0.00  0.00    +0.001 C 
ATOM     18  C   UNL     1      -4.967  -0.269  -3.012  0.00  0.00    +0.017 C 
ATOM     19  C   UNL     1      -3.870   0.675  -2.488  0.00  0.00    +0.110 C 
ENDBRANCH  10  13
ENDBRANCH   6  10
ENDBRANCH   2   3
BRANCH   2  20
ATOM     20  C   UNL     1      -0.434   3.370   3.550  0.00  0.00    +0.203 C 
ATOM     21  O   UNL     1       0.628   2.834   3.313  0.00  0.00    -0.277 OA
ATOM     22  N   UNL     1      -0.713   3.789   4.800  0.00  0.00    -0.286 N 
ATOM     23  H   UNL     1      -1.635   4.356   4.996  0.00  0.00    +0.155 HD
BRANCH  22  24
ATOM     24  C   UNL     1       0.170   3.504   5.847  0.00  0.00    +0.045 A 
ATOM     25  C   UNL     1       1.022   2.410   5.761  0.00  0.00    +0.025 A 
ATOM     26  C   UNL     1       1.892   2.131   6.796  0.00  0.00    +0.022 A 
ATOM     27  C   UNL     1       1.917   2.941   7.919  0.00  0.00    +0.042 A 
ATOM     28  C   UNL     1       1.069   4.031   8.007  0.00  0.00    +0.034 A 
ATOM     29  C   UNL     1       0.201   4.318   6.972  0.00  0.00    +0.077 A 
ATOM     30 CL   UNL     1       3.012   2.587   9.218  0.00  0.00    -0.084 Cl
BRANCH  29  31
ATOM     31  C   UNL     1      -0.717   5.509   7.066  0.00  0.00    +0.419 C 
ATOM     32  F   UNL     1      -0.503   6.168   8.282  0.00  0.00    -0.166 F 
ATOM     33  F   UNL     1      -0.454   6.386   6.008  0.00  0.00    -0.166 F 
ATOM     34  F   UNL     1      -2.047   5.080   6.996  0.00  0.00    -0.166 F 
ENDBRANCH  29  31
ENDBRANCH  22  24
ENDBRANCH   2  20
TORSDOF 6
