REMARK  Name = ZINC63690810
REMARK  5 active torsions:
REMARK  status: ('A' for Active; 'I' for Inactive)
REMARK    1  A    between atoms: C_4  and  N_7
REMARK    2  A    between atoms: C_13  and  C_16
REMARK    3  A    between atoms: N_18  and  C_19
REMARK    4  A    between atoms: C_19  and  C_20
REMARK    5  A    between atoms: C_20  and  C_21
REMARK                            x       y       z     vdW  Elec       q    Type
REMARK                         _______ _______ _______ _____ _____    ______ ____
ROOT
ATOM      1  N   UNL     1       3.622  -0.651  -0.036  0.00  0.00    -0.269 N 
ATOM      2  C   UNL     1       3.645  -1.995   0.058  0.00  0.00    +0.310 C 
ATOM      3  O   UNL     1       2.603  -2.622   0.065  0.00  0.00    -0.252 OA
ATOM      4  N   UNL     1       4.823  -2.644   0.144  0.00  0.00    -0.248 N 
ATOM      5  C   UNL     1       4.846  -4.029   0.241  0.00  0.00    +0.166 A 
ATOM      6  N   UNL     1       5.883  -4.837   0.339  0.00  0.00    -0.220 NA
ATOM      7  C   UNL     1       5.656  -6.152   0.421  0.00  0.00    +0.135 A 
ATOM      8  C   UNL     1       4.367  -6.603   0.401  0.00  0.00    +0.081 A 
ATOM      9  S   UNL     1       3.482  -5.178   0.274  0.00  0.00    -0.060 S 
ATOM     10  H   UNL     1       4.452  -0.156  -0.120  0.00  0.00    +0.156 HD
ATOM     11  H   UNL     1       5.654  -2.144   0.138  0.00  0.00    +0.158 HD
ENDROOT
BRANCH   1  15
ATOM     12  C   UNL     1      -0.015   1.381   0.031  0.00  0.00    +0.000 A 
ATOM     13  C   UNL     1       0.140   0.218   0.765  0.00  0.00    +0.002 A 
ATOM     14  C   UNL     1       1.344  -0.457   0.744  0.00  0.00    +0.023 A 
ATOM     15  C   UNL     1       2.400   0.031  -0.014  0.00  0.00    +0.035 A 
ATOM     16  C   UNL     1       2.241   1.198  -0.750  0.00  0.00    +0.023 A 
ATOM     17  C   UNL     1       1.034   1.870  -0.725  0.00  0.00    +0.002 A 
ENDBRANCH   1  15
BRANCH   7  18
ATOM     18  C   UNL     1       6.778  -7.098   0.531  0.00  0.00    +0.263 C 
ATOM     19  O   UNL     1       6.561  -8.293   0.605  0.00  0.00    -0.269 OA
ATOM     20  N   UNL     1       8.046  -6.641   0.551  0.00  0.00    -0.310 N 
ATOM     21  H   UNL     1       8.219  -5.689   0.492  0.00  0.00    +0.149 HD
BRANCH  20  22
ATOM     22  C   UNL     1       9.163  -7.583   0.661  0.00  0.00    +0.109 C 
BRANCH  22  23
ATOM     23  C   UNL     1      10.483  -6.811   0.660  0.00  0.00    +0.052 C 
BRANCH  23  24
ATOM     24  C   UNL     1      11.632  -7.779   0.773  0.00  0.00    -0.040 C 
ATOM     25  C   UNL     1      12.359  -8.300  -0.241  0.00  0.00    -0.001 A 
ATOM     26  C   UNL     1      12.300  -8.128  -1.698  0.00  0.00    +0.010 A 
ATOM     27  C   UNL     1      13.182  -8.799  -2.474  0.00  0.00    +0.001 A 
ATOM     28  C   UNL     1      14.148  -9.652  -1.923  0.00  0.00    +0.002 A 
ATOM     29  C   UNL     1      14.264  -9.861  -0.595  0.00  0.00    +0.026 A 
ATOM     30  C   UNL     1      13.389  -9.207   0.315  0.00  0.00    +0.043 A 
ATOM     31  N   UNL     1      13.302  -9.245   1.623  0.00  0.00    -0.380 N 
ATOM     32  C   UNL     1      12.209  -8.361   2.045  0.00  0.00    +0.144 C 
ATOM     33  H   UNL     1      13.867  -9.767   2.213  0.00  0.00    +0.160 HD
ENDBRANCH  23  24
ENDBRANCH  22  23
ENDBRANCH  20  22
ENDBRANCH   7  18
TORSDOF 5
