REMARK  Name = ZINC59501623
REMARK  4 active torsions:
REMARK  status: ('A' for Active; 'I' for Inactive)
REMARK    1  A    between atoms: C_6  and  C_7
REMARK    2  A    between atoms: C_7  and  C_9
REMARK    3  A    between atoms: C_9  and  N_10
REMARK    4  A    between atoms: N_10  and  C_11
REMARK                            x       y       z     vdW  Elec       q    Type
REMARK                         _______ _______ _______ _____ _____    ______ ____
ROOT
ATOM      1  C   UNL     1      -2.841  -4.155   0.008  0.00  0.00    +0.028 A 
ATOM      2  C   UNL     1      -1.773  -5.046  -0.002  0.00  0.00    +0.028 A 
ATOM      3  C   UNL     1      -2.005  -6.403  -0.001  0.00  0.00    -0.022 A 
ATOM      4  C   UNL     1      -3.298  -6.902   0.021  0.00  0.00    +0.021 A 
ATOM      5  C   UNL     1      -4.362  -6.001   0.015  0.00  0.00    -0.022 A 
ATOM      6  C   UNL     1      -4.142  -4.647   0.018  0.00  0.00    +0.028 A 
ATOM      7  C   UNL     1      -5.753  -6.588   0.001  0.00  0.00    +0.025 C 
ATOM      8  C   UNL     1      -6.726  -5.522  -0.559  0.00  0.00    +0.008 C 
ATOM      9  C   UNL     1      -6.521  -5.576  -2.087  0.00  0.00    +0.001 C 
ATOM     10  C   UNL     1      -5.952  -6.970  -2.405  0.00  0.00    +0.005 C 
ATOM     11  C   UNL     1      -5.801  -7.715  -1.051  0.00  0.00    +0.012 C 
ATOM     12  C   UNL     1      -4.546  -8.569  -1.040  0.00  0.00    +0.089 C 
ATOM     13  N   UNL     1      -3.648  -8.245   0.042  0.00  0.00    -0.393 NA
ATOM     14  C   UNL     1      -2.550  -9.207   0.116  0.00  0.00    +0.089 C 
ATOM     15  C   UNL     1      -1.388  -8.583   0.854  0.00  0.00    +0.012 C 
ATOM     16  C   UNL     1      -0.894  -7.398  -0.029  0.00  0.00    +0.025 C 
ATOM     17  C   UNL     1       0.425  -7.014   0.627  0.00  0.00    +0.008 C 
ATOM     18  C   UNL     1       0.979  -8.332   1.227  0.00  0.00    +0.001 C 
ATOM     19  C   UNL     1      -0.116  -9.421   0.997  0.00  0.00    +0.005 C 
ATOM     20  H   UNL     1      -4.186  -8.382   0.885  0.00  0.00    +0.126 HD
ENDROOT
BRANCH   1  21
ATOM     21  N   UNL     1      -2.608  -2.778   0.013  0.00  0.00    -0.337 N 
ATOM     22  H   UNL     1      -3.355  -2.160   0.024  0.00  0.00    +0.147 HD
BRANCH  21  23
ATOM     23  C   UNL     1      -1.235  -2.267   0.002  0.00  0.00    +0.181 C 
BRANCH  23  24
ATOM     24  C   UNL     1      -1.260  -0.760   0.011  0.00  0.00    +0.180 C 
ATOM     25  O   UNL     1      -2.320  -0.171   0.024  0.00  0.00    -0.290 OA
BRANCH  24  31
ATOM     26  C   UNL     1      -0.017   1.395   0.010  0.00  0.00    +0.012 A 
ATOM     27  C   UNL     1       1.169   2.097   0.002  0.00  0.00    +0.016 A 
ATOM     28  C   UNL     1       2.378   1.420  -0.013  0.00  0.00    +0.018 A 
ATOM     29  C   UNL     1       2.405   0.035  -0.021  0.00  0.00    +0.016 A 
ATOM     30  C   UNL     1       1.227  -0.680  -0.014  0.00  0.00    +0.012 A 
ATOM     31  C   UNL     1       0.002  -0.004   0.002  0.00  0.00    +0.019 A 
ATOM     32 BR   UNL     1       4.000   2.393  -0.025  0.00  0.00    -0.050 Br
ENDBRANCH  24  31
ENDBRANCH  23  24
ENDBRANCH  21  23
ENDBRANCH   1  21
TORSDOF 4
