REMARK  Name = ZINC66981818
REMARK  8 active torsions:
REMARK  status: ('A' for Active; 'I' for Inactive)
REMARK    1  A    between atoms: C_1  and  C_2
REMARK    2  A    between atoms: N_7  and  C_9
REMARK    3  A    between atoms: C_9  and  C_10
REMARK    4  A    between atoms: C_10  and  C_12
REMARK    5  A    between atoms: C_10  and  N_13
REMARK    6  A    between atoms: N_16  and  C_17
REMARK    7  A    between atoms: C_19  and  N_25
REMARK    8  A    between atoms: C_26  and  C_28
REMARK                            x       y       z     vdW  Elec       q    Type
REMARK                         _______ _______ _______ _____ _____    ______ ____
ROOT
ATOM      1  N   UNL     1      -0.042  -4.408   2.401  0.00  0.00    -0.298 N 
ATOM      2  C   UNL     1      -0.354  -5.634   1.936  0.00  0.00    +0.304 C 
ATOM      3  O   UNL     1       0.528  -6.403   1.608  0.00  0.00    -0.253 OA
ATOM      4  N   UNL     1      -1.645  -6.007   1.833  0.00  0.00    -0.267 N 
ATOM      5  H   UNL     1      -0.746  -3.794   2.662  0.00  0.00    +0.150 HD
ATOM      6  H   UNL     1      -2.346  -5.426   2.169  0.00  0.00    +0.156 HD
ENDROOT
BRANCH   4   7
ATOM      7  C   UNL     1      -1.976  -7.234   1.242  0.00  0.00    +0.072 A 
ATOM      8  C   UNL     1      -1.111  -7.820   0.329  0.00  0.00    +0.052 A 
ATOM      9  C   UNL     1      -1.440  -9.034  -0.255  0.00  0.00    +0.071 A 
ATOM     10  C   UNL     1      -2.635  -9.663   0.077  0.00  0.00    +0.147 A 
ATOM     11  C   UNL     1      -3.497  -9.077   0.987  0.00  0.00    +0.080 A 
ATOM     12  C   UNL     1      -3.167  -7.868   1.574  0.00  0.00    +0.147 A 
ATOM     13  F   UNL     1      -4.007  -7.301   2.468  0.00  0.00    -0.203 F 
ATOM     14  F   UNL     1      -2.956 -10.846  -0.491  0.00  0.00    -0.203 F 
BRANCH   9  15
ATOM     15  N   UNL     1      -0.568  -9.628  -1.177  0.00  0.00    -0.283 N 
ATOM     16  C   UNL     1       0.297  -8.864  -1.875  0.00  0.00    +0.214 C 
ATOM     17  O   UNL     1       0.253  -7.656  -1.779  0.00  0.00    -0.276 OA
ATOM     18  C   UNL     1       1.319  -9.512  -2.773  0.00  0.00    +0.109 C 
ATOM     19  H   UNL     1      -0.587 -10.588  -1.315  0.00  0.00    +0.155 HD
ENDBRANCH   9  15
ENDBRANCH   4   7
BRANCH   1  20
ATOM     20  C   UNL     1       1.362  -4.003   2.512  0.00  0.00    +0.055 C 
ATOM     21  C   UNL     1       1.930  -4.493   3.845  0.00  0.00    +0.026 C 
BRANCH  20  22
ATOM     22  C   UNL     1       1.458  -2.477   2.446  0.00  0.00    -0.057 C 
BRANCH  22  28
ATOM     23  C   UNL     1       0.018   1.504  -0.012  0.00  0.00    +0.005 C 
ATOM     24  C   UNL     1       0.035  -0.026  -0.014  0.00  0.00    -0.031 C 
ATOM     25  C   UNL     1       0.743  -0.528  -1.276  0.00  0.00    -0.001 C 
ATOM     26  C   UNL     1       0.824  -2.057  -1.229  0.00  0.00    -0.018 C 
ATOM     27  C   UNL     1       1.546  -2.485   0.050  0.00  0.00    -0.079 C 
ATOM     28  N   UNL     1       0.805  -1.998   1.220  0.00  0.00    +0.381 N 
ATOM     29  C   UNL     1       0.784  -0.530   1.221  0.00  0.00    -0.076 C 
ATOM     30  H   UNL     1      -0.141  -2.346   1.188  0.00  0.00    -0.082 HD
ENDBRANCH  22  28
ENDBRANCH  20  22
ENDBRANCH   1  20
TORSDOF 5
