REMARK  Name = ZINC39685034
REMARK  8 active torsions:
REMARK  status: ('A' for Active; 'I' for Inactive)
REMARK    1  A    between atoms: C_4  and  C_7
REMARK    2  A    between atoms: C_7  and  C_8
REMARK    3  A    between atoms: C_8  and  C_9
REMARK    4  A    between atoms: C_13  and  C_22
REMARK    5  A    between atoms: N_24  and  C_25
REMARK    6  A    between atoms: C_25  and  C_26
REMARK    7  A    between atoms: C_26  and  O_27
REMARK    8  A    between atoms: O_27  and  C_28
REMARK                            x       y       z     vdW  Elec       q    Type
REMARK                         _______ _______ _______ _____ _____    ______ ____
ROOT
ATOM      1  C   UNL     1       5.311  -1.472   1.514  0.00  0.00    +0.216 C 
ATOM      2  O   UNL     1       5.770  -1.689   0.413  0.00  0.00    -0.276 OA
ATOM      3  N   UNL     1       5.973  -1.887   2.613  0.00  0.00    -0.300 N 
ATOM      4  C   UNL     1       5.573  -1.722   4.030  0.00  0.00    +0.121 C 
ATOM      5  C   UNL     1       5.966  -3.055   4.705  0.00  0.00    +0.100 C 
ATOM      6  C   UNL     1       7.078  -3.632   3.813  0.00  0.00    -0.004 C 
ATOM      7  C   UNL     1       7.262  -2.616   2.677  0.00  0.00    +0.115 C 
ATOM      8  C   UNL     1       8.372  -3.777   4.609  0.00  0.00    -0.010 C 
ATOM      9  C   UNL     1       9.446  -4.407   3.717  0.00  0.00    -0.082 C 
ATOM     10  N   UNL     1       8.987  -5.720   3.249  0.00  0.00    +0.379 N 
ATOM     11  C   UNL     1       7.795  -5.563   2.408  0.00  0.00    -0.082 C 
ATOM     12  C   UNL     1       6.651  -4.982   3.243  0.00  0.00    -0.010 C 
ATOM     13  H   UNL     1       9.720  -6.159   2.712  0.00  0.00    -0.086 HD
ATOM     14  H   UNL     1       8.762  -6.300   4.044  0.00  0.00    -0.086 HD
ENDROOT
BRANCH   5  15
ATOM     15  C   UNL     1       4.785  -3.990   4.747  0.00  0.00    +0.218 C 
ATOM     16  O   UNL     1       3.937  -3.935   3.882  0.00  0.00    -0.275 OA
ATOM     17  N   UNL     1       4.671  -4.887   5.746  0.00  0.00    -0.312 N 
ATOM     18  H   UNL     1       5.350  -4.931   6.438  0.00  0.00    +0.149 HD
BRANCH  17  19
ATOM     19  C   UNL     1       3.523  -5.796   5.787  0.00  0.00    +0.145 C 
BRANCH  19  20
ATOM     20  C   UNL     1       3.636  -6.705   7.013  0.00  0.00    +0.248 C 
BRANCH  20  21
ATOM     21  O   UNL     1       3.537  -5.917   8.201  0.00  0.00    -0.488 OA
BRANCH  21  22
ATOM     22  C   UNL     1       3.618  -6.576   9.387  0.00  0.00    +0.156 A 
ATOM     23  C   UNL     1       3.796  -7.951   9.407  0.00  0.00    +0.048 A 
ATOM     24  C   UNL     1       3.878  -8.619  10.614  0.00  0.00    +0.004 A 
ATOM     25  C   UNL     1       3.784  -7.918  11.802  0.00  0.00    +0.003 A 
ATOM     26  C   UNL     1       3.606  -6.547  11.787  0.00  0.00    +0.042 A 
ATOM     27  C   UNL     1       3.530  -5.872  10.582  0.00  0.00    +0.165 A 
ATOM     28  F   UNL     1       3.362  -4.532  10.566  0.00  0.00    -0.202 F 
ENDBRANCH  21  22
ENDBRANCH  20  21
ENDBRANCH  19  20
ENDBRANCH  17  19
ENDBRANCH   5  15
BRANCH   1  29
ATOM     29  C   UNL     1       4.003  -0.739   1.655  0.00  0.00    +0.100 C 
BRANCH  29  30
ATOM     30  C   UNL     1       3.466  -0.383   0.267  0.00  0.00    +0.044 C 
BRANCH  30  34
ATOM     31  C   UNL     1      -0.245   1.696   0.662  0.00  0.00    +0.000 A 
ATOM     32  C   UNL     1       0.944   2.401   0.638  0.00  0.00    +0.000 A 
ATOM     33  C   UNL     1       2.144   1.729   0.511  0.00  0.00    +0.003 A 
ATOM     34  C   UNL     1       2.157   0.350   0.407  0.00  0.00    -0.047 A 
ATOM     35  C   UNL     1       0.968  -0.355   0.432  0.00  0.00    +0.003 A 
ATOM     36  C   UNL     1      -0.233   0.318   0.558  0.00  0.00    +0.000 A 
ENDBRANCH  30  34
ENDBRANCH  29  30
ENDBRANCH   1  29
TORSDOF 8
