REMARK  Name = ZINC45093324
REMARK  8 active torsions:
REMARK  status: ('A' for Active; 'I' for Inactive)
REMARK    1  A    between atoms: C_1  and  C_2
REMARK    2  A    between atoms: C_2  and  C_3
REMARK    3  A    between atoms: C_3  and  N_4
REMARK    4  A    between atoms: N_4  and  C_5
REMARK    5  A    between atoms: N_4  and  S_9
REMARK    6  A    between atoms: C_5  and  C_6
REMARK    7  A    between atoms: C_6  and  N_8
REMARK    8  A    between atoms: S_9  and  C_12
REMARK                            x       y       z     vdW  Elec       q    Type
REMARK                         _______ _______ _______ _____ _____    ______ ____
ROOT
ATOM      1  N   UNL     1      -1.413  -1.998   0.005  0.00  0.00    -0.170 NA
ENDROOT
BRANCH   1   2
ATOM      2  S   UNL     1      -1.541  -2.820  -1.427  0.00  0.00    +0.069 S 
ATOM      3  O   UNL     1      -2.046  -4.111  -1.111  0.00  0.00    -0.152 OA
ATOM      4  O   UNL     1      -2.195  -1.949  -2.339  0.00  0.00    -0.152 OA
BRANCH   2   5
ATOM      5  C   UNL     1       0.094  -3.055  -2.040  0.00  0.00    +0.157 A 
ATOM      6  C   UNL     1       0.499  -3.668  -3.180  0.00  0.00    +0.051 A 
ATOM      7  C   UNL     1       1.851  -3.735  -3.461  0.00  0.00    +0.025 A 
ATOM      8  C   UNL     1       2.732  -3.186  -2.589  0.00  0.00    +0.048 A 
ATOM      9  S   UNL     1       1.647  -2.542  -1.326  0.00  0.00    -0.076 S 
ATOM     10 BR   UNL     1      -0.767  -4.420  -4.367  0.00  0.00    -0.048 Br
ENDBRANCH   2   5
ENDBRANCH   1   2
BRANCH   1  11
ATOM     11  C   UNL     1      -1.433  -0.534   0.013  0.00  0.00    +0.109 C 
BRANCH  11  13
ATOM     12  C   UNL     1      -0.019   1.526   0.010  0.00  0.00    +0.005 C 
ATOM     13  C   UNL     1       0.002  -0.004   0.002  0.00  0.00    +0.014 C 
ENDBRANCH  11  13
ENDBRANCH   1  11
BRANCH   1  14
ATOM     14  C   UNL     1      -1.281  -2.736   1.264  0.00  0.00    +0.167 C 
BRANCH  14  15
ATOM     15  C   UNL     1      -2.639  -2.902   1.894  0.00  0.00    +0.062 C 
ATOM     16  S   UNL     1      -3.935  -2.304   1.171  0.00  0.00    -0.039 S 
BRANCH  15  17
ATOM     17  N   UNL     1      -2.763  -3.554   3.067  0.00  0.00    -0.354 N 
ATOM     18  H   UNL     1      -1.977  -3.917   3.506  0.00  0.00    +0.143 HD
ATOM     19  H   UNL     1      -3.638  -3.661   3.473  0.00  0.00    +0.143 HD
ENDBRANCH  15  17
ENDBRANCH  14  15
ENDBRANCH   1  14
TORSDOF 7
