REMARK  Name = ZINC31357046
REMARK  15 active torsions:
REMARK  status: ('A' for Active; 'I' for Inactive)
REMARK    1  A    between atoms: C_1  and  C_2
REMARK    2  A    between atoms: C_2  and  C_3
REMARK    3  A    between atoms: C_3  and  C_4
REMARK    4  A    between atoms: C_7  and  C_12
REMARK    5  A    between atoms: N_9  and  C_11
REMARK    6  A    between atoms: N_14  and  C_15
REMARK    7  A    between atoms: C_15  and  C_17
REMARK    8  A    between atoms: C_15  and  C_33
REMARK    9  A    between atoms: C_19  and  O_32
REMARK   10  A    between atoms: C_21  and  O_31
REMARK   11  A    between atoms: C_23  and  O_30
REMARK   12  A    between atoms: C_25  and  S_28
REMARK   13  A    between atoms: S_28  and  C_29
REMARK   14  A    between atoms: C_33  and  C_35
REMARK   15  A    between atoms: C_33  and  O_36
REMARK                            x       y       z     vdW  Elec       q    Type
REMARK                         _______ _______ _______ _____ _____    ______ ____
ROOT
ATOM      1  C   UNL     1      -1.275  -0.814  -0.128  0.00  0.00    +0.132 C 
ENDROOT
BRANCH   1   2
ATOM      2  C   UNL     1      -0.922  -2.191   0.437  0.00  0.00    +0.173 C 
ATOM      3  C   UNL     1      -0.517  -2.051   1.907  0.00  0.00    +0.176 C 
ATOM      4  C   UNL     1      -0.224  -3.441   2.482  0.00  0.00    +0.177 C 
ATOM      5  C   UNL     1      -1.459  -4.328   2.301  0.00  0.00    +0.184 C 
ATOM      6  C   UNL     1      -1.828  -4.379   0.816  0.00  0.00    +0.207 C 
ATOM      7  O   UNL     1      -2.058  -3.053   0.337  0.00  0.00    -0.356 OA
BRANCH   6   8
ATOM      8  S   UNL     1      -3.332  -5.370   0.600  0.00  0.00    -0.131 S 
ATOM      9  C   UNL     1      -3.460  -5.587  -1.197  0.00  0.00    +0.087 C 
ENDBRANCH   6   8
BRANCH   5  10
ATOM     10  O   UNL     1      -2.551  -3.783   3.045  0.00  0.00    -0.386 OA
ATOM     11  H   UNL     1      -3.529  -4.288   3.036  0.00  0.00    +0.210 HD
ENDBRANCH   5  10
BRANCH   4  12
ATOM     12  O   UNL     1       0.885  -4.019   1.791  0.00  0.00    -0.386 OA
ATOM     13  H   UNL     1       1.244  -5.022   2.068  0.00  0.00    +0.210 HD
ENDBRANCH   4  12
BRANCH   3  14
ATOM     14  O   UNL     1       0.653  -1.237   2.005  0.00  0.00    -0.387 OA
ATOM     15  H   UNL     1       1.094  -1.024   2.990  0.00  0.00    +0.210 HD
ENDBRANCH   3  14
ENDBRANCH   1   2
BRANCH   1  18
ATOM     16  C   UNL     1      -0.195   1.371  -0.109  0.00  0.00    +0.200 C 
ATOM     17  O   UNL     1      -1.294   1.881  -0.066  0.00  0.00    -0.278 OA
ATOM     18  N   UNL     1      -0.076   0.029  -0.145  0.00  0.00    -0.309 N 
ATOM     19  H   UNL     1       0.921  -0.434  -0.189  0.00  0.00    +0.149 HD
BRANCH  16  22
ATOM     20  C   UNL     1       1.639   3.812   1.651  0.00  0.00    -0.029 C 
ATOM     21  C   UNL     1       1.651   2.306   1.284  0.00  0.00    -0.005 C 
ATOM     22  C   UNL     1       1.038   2.237  -0.127  0.00  0.00    +0.019 C 
ATOM     23  N   UNL     1       0.678   3.618  -0.516  0.00  0.00    +0.386 N 
ATOM     24  C   UNL     1       1.574   4.506   0.267  0.00  0.00    -0.075 C 
ATOM     25  C   UNL     1       0.863   3.823  -1.959  0.00  0.00    -0.095 C 
ATOM     26  H   UNL     1      -0.383   3.829  -0.318  0.00  0.00    -0.081 HD
BRANCH  20  27
ATOM     27  C   UNL     1       2.921   4.201   2.392  0.00  0.00    +0.001 C 
BRANCH  27  29
ATOM     28  C   UNL     1       4.158   6.079   3.480  0.00  0.00    +0.004 C 
ATOM     29  C   UNL     1       2.877   5.690   2.739  0.00  0.00    -0.003 C 
ENDBRANCH  27  29
ENDBRANCH  20  27
ENDBRANCH  16  22
ENDBRANCH   1  18
BRANCH   1  30
ATOM     30  C   UNL     1      -1.810  -0.969  -1.552  0.00  0.00    +0.134 C 
ATOM     31  C   UNL     1      -0.695  -1.488  -2.462  0.00  0.00    +0.039 C 
BRANCH  30  32
ATOM     32  O   UNL     1      -2.264   0.299  -2.031  0.00  0.00    -0.390 OA
ATOM     33  H   UNL     1      -2.686   0.385  -3.044  0.00  0.00    +0.210 HD
ENDBRANCH  30  32
ENDBRANCH   1  30
TORSDOF 11
