REMARK  Name = ZINC44793321
REMARK  12 active torsions:
REMARK  status: ('A' for Active; 'I' for Inactive)
REMARK    1  A    between atoms: C_1  and  C_2
REMARK    2  A    between atoms: C_2  and  O_3
REMARK    3  A    between atoms: O_3  and  C_4
REMARK    4  A    between atoms: C_4  and  C_6
REMARK    5  A    between atoms: C_7  and  C_19
REMARK    6  A    between atoms: C_12  and  C_14
REMARK    7  A    between atoms: C_19  and  S_20
REMARK    8  A    between atoms: S_20  and  C_21
REMARK    9  A    between atoms: N_22  and  C_23
REMARK   10  A    between atoms: C_23  and  C_24
REMARK   11  A    between atoms: C_24  and  C_25
REMARK   12  A    between atoms: C_24  and  C_26
REMARK                            x       y       z     vdW  Elec       q    Type
REMARK                         _______ _______ _______ _____ _____    ______ ____
ROOT
ATOM      1  C   UNL     1      -2.795  -2.410   0.126  0.00  0.00    +0.082 C 
ATOM      2  C   UNL     1      -2.985  -3.731  -0.085  0.00  0.00    +0.034 C 
ATOM      3  N   UNL     1      -4.241  -4.255  -0.186  0.00  0.00    -0.272 N 
ATOM      4  C   UNL     1      -5.360  -3.526  -0.089  0.00  0.00    +0.304 C 
ATOM      5  O   UNL     1      -6.436  -4.083  -0.192  0.00  0.00    -0.252 OA
ATOM      6  N   UNL     1      -5.333  -2.195   0.121  0.00  0.00    -0.285 N 
ATOM      7  C   UNL     1      -4.024  -1.533   0.251  0.00  0.00    +0.179 C 
ATOM      8  H   UNL     1      -4.328  -5.210  -0.337  0.00  0.00    +0.156 HD
ATOM      9  H   UNL     1      -6.156  -1.686   0.188  0.00  0.00    +0.151 HD
ENDROOT
BRANCH   7  10
ATOM     10  C   UNL     1      -3.974  -0.852   1.594  0.00  0.00    +0.130 A 
ATOM     11  C   UNL     1      -3.576   0.412   1.821  0.00  0.00    +0.047 A 
ATOM     12  C   UNL     1      -3.688   0.634   3.213  0.00  0.00    +0.041 A 
ATOM     13  C   UNL     1      -4.148  -0.508   3.753  0.00  0.00    +0.195 A 
ATOM     14  O   UNL     1      -4.325  -1.403   2.768  0.00  0.00    -0.466 OA
ENDBRANCH   7  10
BRANCH   1  15
ATOM     15  C   UNL     1      -1.494  -1.866   0.231  0.00  0.00    +0.339 C 
ATOM     16  O   UNL     1      -1.001  -1.279  -0.715  0.00  0.00    -0.245 OA
BRANCH  15  17
ATOM     17  O   UNL     1      -0.799  -1.996   1.381  0.00  0.00    -0.462 OA
BRANCH  17  19
ATOM     18  C   UNL     1       1.137  -1.669   2.790  0.00  0.00    +0.048 C 
ATOM     19  C   UNL     1       0.509  -1.422   1.417  0.00  0.00    +0.229 C 
ENDBRANCH  17  19
ENDBRANCH  15  17
ENDBRANCH   1  15
BRANCH   2  20
ATOM     20  C   UNL     1      -1.789  -4.640  -0.210  0.00  0.00    +0.128 C 
BRANCH  20  21
ATOM     21  S   UNL     1      -1.597  -5.599   1.318  0.00  0.00    -0.087 S 
BRANCH  21  22
ATOM     22  C   UNL     1      -0.177  -6.599   1.017  0.00  0.00    +0.126 C 
ATOM     23  N   UNL     1       0.245  -7.425   1.934  0.00  0.00    -0.368 N 
ATOM     24  N   UNL     1       0.485  -6.509  -0.185  0.00  0.00    -0.339 N 
ATOM     25  H   UNL     1       0.171  -5.895  -0.867  0.00  0.00    +0.144 HD
ATOM     26  H   UNL     1       1.267  -7.060  -0.351  0.00  0.00    +0.144 HD
ATOM     27  H   UNL     1      -0.223  -7.489   2.782  0.00  0.00    +0.161 HD
BRANCH  23  28
ATOM     28  C   UNL     1       1.425  -8.257   1.684  0.00  0.00    +0.117 C 
BRANCH  28  29
ATOM     29  C   UNL     1       1.704  -9.128   2.910  0.00  0.00    +0.002 C 
ATOM     30  C   UNL     1       2.858 -10.084   2.604  0.00  0.00    +0.009 C 
ATOM     31  C   UNL     1       2.081  -8.236   4.095  0.00  0.00    +0.009 C 
ENDBRANCH  28  29
ENDBRANCH  23  28
ENDBRANCH  21  22
ENDBRANCH  20  21
ENDBRANCH   2  20
TORSDOF 9
