REMARK  Name = ZINC28855029
REMARK  13 active torsions:
REMARK  status: ('A' for Active; 'I' for Inactive)
REMARK    1  A    between atoms: C_1  and  C_2
REMARK    2  A    between atoms: C_2  and  O_3
REMARK    3  A    between atoms: O_3  and  C_4
REMARK    4  A    between atoms: C_11  and  C_18
REMARK    5  A    between atoms: C_13  and  O_14
REMARK    6  A    between atoms: C_18  and  O_19
REMARK    7  A    between atoms: O_19  and  C_20
REMARK    8  A    between atoms: C_20  and  C_22
REMARK    9  A    between atoms: C_24  and  N_32
REMARK   10  A    between atoms: C_27  and  N_28
REMARK   11  A    between atoms: N_28  and  C_29
REMARK   12  A    between atoms: C_29  and  C_30
REMARK   13  A    between atoms: C_30  and  O_31
REMARK                            x       y       z     vdW  Elec       q    Type
REMARK                         _______ _______ _______ _____ _____    ______ ____
ROOT
ATOM      1  C   UNL     1      -1.124   3.078   0.720  0.00  0.00    +0.405 C 
ATOM      2  O   UNL     1      -2.105   3.533   1.275  0.00  0.00    -0.226 OA
ATOM      3  N   UNL     1      -1.191   1.878   0.110  0.00  0.00    -0.251 N 
ATOM      4  C   UNL     1      -2.358   1.118   0.193  0.00  0.00    +0.040 A 
ATOM      5  C   UNL     1      -2.274  -0.273   0.258  0.00  0.00    +0.024 A 
ATOM      6  C   UNL     1      -3.406  -1.030   0.343  0.00  0.00    +0.014 A 
ATOM      7  C   UNL     1      -4.660  -0.407   0.355  0.00  0.00    +0.024 A 
ATOM      8  C   UNL     1      -5.891  -1.195   0.441  0.00  0.00    +0.007 A 
ATOM      9  C   UNL     1      -7.078  -0.533   0.449  0.00  0.00    +0.095 A 
ATOM     10  C   UNL     1      -7.096   0.875   0.375  0.00  0.00    +0.285 A 
ATOM     11  O   UNL     1      -5.963   1.591   0.296  0.00  0.00    -0.425 OA
ATOM     12  C   UNL     1      -4.752   0.995   0.284  0.00  0.00    +0.141 A 
ATOM     13  C   UNL     1      -3.592   1.750   0.203  0.00  0.00    +0.070 A 
ATOM     14  H   UNL     1      -0.325   1.498  -0.452  0.00  0.00    +0.158 HD
ENDROOT
BRANCH  10  15
ATOM     15  O   UNL     1      -8.166   1.456   0.383  0.00  0.00    -0.480 OA
ATOM     16  H   UNL     1      -8.196   2.554   0.326  0.00  0.00    +0.295 HD
ENDBRANCH  10  15
BRANCH   1  17
ATOM     17  O   UNL     1       0.030   3.771   0.719  0.00  0.00    -0.450 OA
BRANCH  17  19
ATOM     18  C   UNL     1       1.419   5.687   1.293  0.00  0.00    +0.048 C 
ATOM     19  C   UNL     1       0.031   5.053   1.400  0.00  0.00    +0.230 C 
ENDBRANCH  17  19
ENDBRANCH   1  17
BRANCH   8  20
ATOM     20  C   UNL     1      -5.844  -2.700   0.519  0.00  0.00    +0.269 C 
BRANCH  20  21
ATOM     21  O   UNL     1      -7.196  -3.223   0.595  0.00  0.00    -0.456 OA
BRANCH  21  22
ATOM     22  C   UNL     1      -7.330  -4.562   0.670  0.00  0.00    +0.341 C 
ATOM     23  O   UNL     1      -6.345  -5.272   0.672  0.00  0.00    -0.245 OA
BRANCH  22  24
ATOM     24  C   UNL     1      -8.672  -5.164   0.750  0.00  0.00    +0.082 A 
ATOM     25  C   UNL     1      -9.811  -4.361   0.638  0.00  0.00    +0.049 A 
ATOM     26  C   UNL     1     -11.063  -4.932   0.709  0.00  0.00    +0.127 A 
ATOM     27  C   UNL     1     -11.201  -6.298   0.899  0.00  0.00    +0.034 A 
ATOM     28  C   UNL     1     -10.087  -7.103   1.017  0.00  0.00    +0.026 A 
ATOM     29  C   UNL     1      -8.816  -6.547   0.943  0.00  0.00    +0.041 A 
BRANCH  26  30
ATOM     30  N   UNL     1     -12.268  -4.080   0.586  0.00  0.00    +0.056 N 
ATOM     31  O   UNL     1     -13.376  -4.580   0.652  0.00  0.00    -0.126 OA
ATOM     32  O   UNL     1     -12.150  -2.880   0.418  0.00  0.00    -0.126 OA
ENDBRANCH  26  30
BRANCH  29  33
ATOM     33  N   UNL     1      -7.693  -7.356   1.060  0.00  0.00    -0.341 N 
ATOM     34  H   UNL     1      -6.690  -6.928   0.915  0.00  0.00    +0.146 HD
BRANCH  33  35
ATOM     35  C   UNL     1      -7.844  -8.778   1.378  0.00  0.00    +0.129 C 
BRANCH  35  36
ATOM     36  C   UNL     1      -6.464  -9.434   1.449  0.00  0.00    +0.174 C 
BRANCH  36  37
ATOM     37  O   UNL     1      -5.728  -8.879   2.541  0.00  0.00    -0.393 OA
ATOM     38  H   UNL     1      -4.706  -9.230   2.750  0.00  0.00    +0.209 HD
ENDBRANCH  36  37
ENDBRANCH  35  36
ENDBRANCH  33  35
ENDBRANCH  29  33
ENDBRANCH  22  24
ENDBRANCH  21  22
ENDBRANCH  20  21
ENDBRANCH   8  20
TORSDOF 12
