REMARK  Name = ZINC16216451
REMARK  10 active torsions:
REMARK  status: ('A' for Active; 'I' for Inactive)
REMARK    1  A    between atoms: C_1  and  C_2
REMARK    2  A    between atoms: C_2  and  C_29
REMARK    3  A    between atoms: C_4  and  N_9
REMARK    4  A    between atoms: C_6  and  C_7
REMARK    5  A    between atoms: C_6  and  C_8
REMARK    6  A    between atoms: N_9  and  C_10
REMARK    7  A    between atoms: C_10  and  N_12
REMARK    8  A    between atoms: N_12  and  C_13
REMARK    9  A    between atoms: C_15  and  S_20
REMARK   10  A    between atoms: S_20  and  N_23
REMARK                            x       y       z     vdW  Elec       q    Type
REMARK                         _______ _______ _______ _____ _____    ______ ____
ROOT
ATOM      1  N   UNL     1      -3.492   0.538   3.694  0.00  0.00    -0.296 N 
ATOM      2  H   UNL     1      -3.934   0.772   4.525  0.00  0.00    +0.154 HD
ENDROOT
BRANCH   1   3
ATOM      3  C   UNL     1      -2.568   1.418   3.120  0.00  0.00    +0.053 A 
ATOM      4  C   UNL     1      -2.604   1.673   1.756  0.00  0.00    +0.053 A 
ATOM      5  C   UNL     1      -1.691   2.543   1.192  0.00  0.00    +0.107 A 
ATOM      6  C   UNL     1      -0.739   3.157   1.985  0.00  0.00    +0.030 A 
ATOM      7  C   UNL     1      -0.703   2.910   3.345  0.00  0.00    +0.024 A 
ATOM      8  C   UNL     1      -1.613   2.041   3.915  0.00  0.00    +0.062 A 
ATOM      9 CL   UNL     1      -1.564   1.727   5.622  0.00  0.00    -0.082 Cl
BRANCH   5  10
ATOM     10  S   UNL     1      -1.736   2.865  -0.539  0.00  0.00    +0.061 S 
ATOM     11  O   UNL     1      -2.368   1.746  -1.145  0.00  0.00    -0.153 OA
ATOM     12  O   UNL     1      -0.432   3.294  -0.906  0.00  0.00    -0.153 OA
BRANCH  10  13
ATOM     13  N   UNL     1      -2.743   4.160  -0.770  0.00  0.00    -0.172 NA
ATOM     14  C   UNL     1      -4.183   3.967  -1.003  0.00  0.00    +0.137 C 
ATOM     15  C   UNL     1      -4.951   4.877  -0.031  0.00  0.00    +0.177 C 
ATOM     16  O   UNL     1      -4.462   6.214  -0.154  0.00  0.00    -0.377 OA
ATOM     17  C   UNL     1      -3.085   6.369   0.200  0.00  0.00    +0.177 C 
ATOM     18  C   UNL     1      -2.222   5.536  -0.756  0.00  0.00    +0.137 C 
ENDBRANCH  10  13
ENDBRANCH   5  10
ENDBRANCH   1   3
BRANCH   1  19
ATOM     19  C   UNL     1      -3.768  -0.636   3.092  0.00  0.00    +0.135 C 
ATOM     20  S   UNL     1      -2.889  -1.113   1.702  0.00  0.00    -0.019 S 
BRANCH  19  21
ATOM     21  N   UNL     1      -4.737  -1.434   3.583  0.00  0.00    -0.324 N 
ATOM     22  H   UNL     1      -5.235  -1.164   4.370  0.00  0.00    +0.148 HD
BRANCH  21  26
ATOM     23  C   UNL     1      -4.723  -5.809   3.063  0.00  0.00    -0.010 C 
ATOM     24  C   UNL     1      -6.006  -4.999   3.284  0.00  0.00    -0.072 C 
ATOM     25  C   UNL     1      -5.661  -3.667   3.945  0.00  0.00    +0.009 C 
ATOM     26  C   UNL     1      -5.038  -2.713   2.927  0.00  0.00    +0.069 C 
ATOM     27  C   UNL     1      -6.045  -2.476   1.802  0.00  0.00    +0.009 C 
ATOM     28  C   UNL     1      -6.393  -3.795   1.115  0.00  0.00    -0.072 C 
ATOM     29  C   UNL     1      -5.230  -4.224   0.213  0.00  0.00    -0.010 C 
ATOM     30  C   UNL     1      -7.610  -3.535   0.199  0.00  0.00    -0.010 C 
ATOM     31  C   UNL     1      -6.885  -5.796   4.274  0.00  0.00    -0.010 C 
ATOM     32  N   UNL     1      -6.804  -4.890   2.033  0.00  0.00    +0.386 N 
ATOM     33  H   UNL     1      -7.785  -4.736   2.294  0.00  0.00    -0.084 HD
ATOM     34  H   UNL     1      -6.721  -5.779   1.525  0.00  0.00    -0.084 HD
ENDBRANCH  21  26
ENDBRANCH  19  21
ENDBRANCH   1  19
TORSDOF 6
