REMARK  Name = ZINC12741253
REMARK  8 active torsions:
REMARK  status: ('A' for Active; 'I' for Inactive)
REMARK    1  A    between atoms: C_1  and  C_2
REMARK    2  A    between atoms: C_2  and  N_3
REMARK    3  A    between atoms: N_3  and  C_4
REMARK    4  A    between atoms: N_3  and  C_8
REMARK    5  A    between atoms: C_4  and  C_5
REMARK    6  A    between atoms: C_5  and  C_6
REMARK    7  A    between atoms: C_11  and  C_15
REMARK    8  A    between atoms: C_12  and  C_14
REMARK                            x       y       z     vdW  Elec       q    Type
REMARK                         _______ _______ _______ _____ _____    ______ ____
ROOT
ATOM      1  C   UNL     1      -2.627  -1.384  -5.692  0.00  0.00    +0.209 C 
ATOM      2  N   UNL     1      -1.907  -1.449  -6.977  0.00  0.00    -0.294 N 
ATOM      3  C   UNL     1      -1.309  -2.619  -7.365  0.00  0.00    +0.160 C 
ATOM      4  N   UNL     1      -1.787  -3.794  -6.994  0.00  0.00    -0.302 N 
ATOM      5  C   UNL     1      -2.856  -3.821  -6.163  0.00  0.00    +0.213 A 
ATOM      6  N   UNL     1      -3.300  -2.677  -5.521  0.00  0.00    -0.286 N 
ATOM      7  C   UNL     1      -4.399  -3.015  -4.768  0.00  0.00    +0.076 A 
ATOM      8  C   UNL     1      -5.262  -2.309  -3.939  0.00  0.00    +0.077 A 
ATOM      9  C   UNL     1      -6.303  -2.964  -3.311  0.00  0.00    +0.164 A 
ATOM     10  C   UNL     1      -6.495  -4.329  -3.500  0.00  0.00    +0.164 A 
ATOM     11  C   UNL     1      -5.647  -5.047  -4.318  0.00  0.00    +0.079 A 
ATOM     12  C   UNL     1      -4.589  -4.397  -4.960  0.00  0.00    +0.095 A 
ATOM     13  N   UNL     1      -3.609  -4.830  -5.811  0.00  0.00    -0.212 NA
ATOM     14  O   UNL     1      -7.532  -4.958  -2.872  0.00  0.00    -0.488 OA
ATOM     15  C   UNL     1      -7.430  -5.064  -1.451  0.00  0.00    +0.232 C 
ATOM     16  C   UNL     1      -7.936  -3.799  -0.777  0.00  0.00    +0.082 C 
ATOM     17  C   UNL     1      -7.079  -2.586  -1.104  0.00  0.00    +0.232 C 
ATOM     18  O   UNL     1      -7.153  -2.272  -2.495  0.00  0.00    -0.488 OA
ATOM     19  N   UNL     1      -0.192  -2.569  -8.154  0.00  0.00    -0.332 N 
ATOM     20  H   UNL     1      -1.857  -0.665  -7.546  0.00  0.00    +0.151 HD
ATOM     21  H   UNL     1       0.168  -1.712  -8.433  0.00  0.00    +0.145 HD
ATOM     22  H   UNL     1       0.241  -3.391  -8.435  0.00  0.00    +0.145 HD
ATOM     23  H   UNL     1      -1.381  -4.617  -7.309  0.00  0.00    +0.171 HD
ENDROOT
BRANCH   1  27
ATOM     24  C   UNL     1       0.137  -0.738  -2.497  0.00  0.00    +0.030 A 
ATOM     25  C   UNL     1      -0.362  -2.012  -2.739  0.00  0.00    +0.023 A 
ATOM     26  C   UNL     1      -1.255  -2.217  -3.772  0.00  0.00    +0.009 A 
ATOM     27  C   UNL     1      -1.653  -1.157  -4.565  0.00  0.00    -0.004 A 
ATOM     28  C   UNL     1      -1.158   0.112  -4.328  0.00  0.00    -0.042 A 
ATOM     29  C   UNL     1      -0.269   0.326  -3.292  0.00  0.00    +0.027 A 
ATOM     30  C   UNL     1      -1.593   1.265  -5.196  0.00  0.00    +0.044 C 
BRANCH  24  31
ATOM     31  N   UNL     1       1.040  -0.527  -1.452  0.00  0.00    -0.329 N 
BRANCH  31  33
ATOM     32  C   UNL     1       2.841   1.033  -2.005  0.00  0.00    +0.024 C 
ATOM     33  C   UNL     1       1.560   0.818  -1.195  0.00  0.00    +0.102 C 
ENDBRANCH  31  33
BRANCH  31  34
ATOM     34  C   UNL     1       1.467  -1.650  -0.615  0.00  0.00    +0.120 C 
BRANCH  34  35
ATOM     35  C   UNL     1       0.516  -1.788   0.576  0.00  0.00    +0.137 C 
BRANCH  35  36
ATOM     36  C   UNL     1       0.945  -2.917   1.418  0.00  0.00    +0.064 C 
ATOM     37  N   UNL     1       1.276  -3.788   2.068  0.00  0.00    -0.197 NA
ENDBRANCH  35  36
ENDBRANCH  34  35
ENDBRANCH  31  34
ENDBRANCH  24  31
ENDBRANCH   1  27
TORSDOF 6
