REMARK  Name = ZINC21583806
REMARK  12 active torsions:
REMARK  status: ('A' for Active; 'I' for Inactive)
REMARK    1  A    between atoms: C_1  and  C_2
REMARK    2  A    between atoms: C_2  and  C_4
REMARK    3  A    between atoms: C_2  and  N_14
REMARK    4  A    between atoms: C_7  and  S_10
REMARK    5  A    between atoms: S_10  and  N_13
REMARK    6  A    between atoms: N_14  and  C_15
REMARK    7  A    between atoms: N_14  and  C_16
REMARK    8  A    between atoms: C_16  and  C_17
REMARK    9  A    between atoms: N_19  and  C_20
REMARK   10  A    between atoms: C_25  and  C_26
REMARK   11  A    between atoms: N_28  and  C_29
REMARK   12  A    between atoms: C_29  and  C_30
REMARK                            x       y       z     vdW  Elec       q    Type
REMARK                         _______ _______ _______ _____ _____    ______ ____
ROOT
ATOM      1  C   UNL     1      -5.079   6.139   5.349  0.00  0.00    +0.201 C 
ATOM      2  O   UNL     1      -4.768   6.703   4.321  0.00  0.00    -0.278 OA
ATOM      3  N   UNL     1      -5.970   6.708   6.186  0.00  0.00    -0.286 N 
ATOM      4  H   UNL     1      -6.305   6.167   7.083  0.00  0.00    +0.155 HD
ENDROOT
BRANCH   3   5
ATOM      5  C   UNL     1      -6.466   7.981   5.915  0.00  0.00    +0.045 A 
ATOM      6  C   UNL     1      -6.690   8.378   4.603  0.00  0.00    +0.024 A 
ATOM      7  C   UNL     1      -7.187   9.637   4.337  0.00  0.00    +0.002 A 
ATOM      8  C   UNL     1      -7.456  10.518   5.372  0.00  0.00    +0.001 A 
ATOM      9  C   UNL     1      -7.235  10.144   6.680  0.00  0.00    +0.015 A 
ATOM     10  C   UNL     1      -6.737   8.870   6.965  0.00  0.00    +0.058 A 
BRANCH  10  11
ATOM     11  C   UNL     1      -6.498   8.463   8.363  0.00  0.00    +0.246 C 
ATOM     12  O   UNL     1      -5.969   7.394   8.602  0.00  0.00    -0.270 OA
ATOM     13  N   UNL     1      -6.864   9.275   9.374  0.00  0.00    -0.307 N 
ATOM     14  H   UNL     1      -7.343  10.242   9.157  0.00  0.00    +0.149 HD
BRANCH  13  15
ATOM     15  C   UNL     1      -6.627   8.871  10.761  0.00  0.00    +0.139 C 
BRANCH  15  16
ATOM     16  C   UNL     1      -7.125   9.947  11.691  0.00  0.00    -0.030 A 
ATOM     17  C   UNL     1      -6.276  10.963  12.090  0.00  0.00    +0.005 A 
ATOM     18  C   UNL     1      -6.735  11.953  12.938  0.00  0.00    +0.000 A 
ATOM     19  C   UNL     1      -8.039  11.922  13.396  0.00  0.00    +0.000 A 
ATOM     20  C   UNL     1      -8.886  10.903  13.001  0.00  0.00    +0.000 A 
ATOM     21  C   UNL     1      -8.429   9.916  12.148  0.00  0.00    +0.005 A 
ENDBRANCH  15  16
ENDBRANCH  13  15
ENDBRANCH  10  11
ENDBRANCH   3   5
BRANCH   1  22
ATOM     22  C   UNL     1      -4.471   4.804   5.690  0.00  0.00    +0.019 C 
BRANCH  22  23
ATOM     23  N   UNL     1      -3.539   4.404   4.627  0.00  0.00    +0.388 N 
ATOM     24  C   UNL     1      -2.384   5.310   4.571  0.00  0.00    -0.095 C 
ATOM     25  H   UNL     1      -4.071   4.475   3.667  0.00  0.00    -0.081 HD
BRANCH  23  27
ATOM     26  C   UNL     1      -2.047   2.670   3.752  0.00  0.00    -0.008 C 
ATOM     27  C   UNL     1      -3.108   3.011   4.802  0.00  0.00    -0.041 C 
BRANCH  27  28
ATOM     28  C   UNL     1      -4.292   2.094   4.636  0.00  0.00    -0.061 A 
ATOM     29  C   UNL     1      -4.394   0.950   5.406  0.00  0.00    +0.004 A 
ATOM     30  C   UNL     1      -5.479   0.108   5.254  0.00  0.00    +0.029 A 
ATOM     31  C   UNL     1      -6.463   0.410   4.331  0.00  0.00    +0.105 A 
ATOM     32  C   UNL     1      -6.359   1.550   3.557  0.00  0.00    +0.029 A 
ATOM     33  C   UNL     1      -5.276   2.395   3.713  0.00  0.00    +0.004 A 
BRANCH  31  34
ATOM     34  S   UNL     1      -7.847  -0.663   4.136  0.00  0.00    +0.056 S 
ATOM     35  O   UNL     1      -7.433  -1.946   4.587  0.00  0.00    -0.153 OA
ATOM     36  O   UNL     1      -8.351  -0.442   2.826  0.00  0.00    -0.153 OA
BRANCH  34  37
ATOM     37  N   UNL     1      -9.019  -0.147   5.187  0.00  0.00    -0.204 NA
ATOM     38  H   UNL     1      -9.904  -0.794   5.096  0.00  0.00    +0.144 HD
ATOM     39  H   UNL     1      -9.296   0.890   4.946  0.00  0.00    +0.144 HD
ENDBRANCH  34  37
ENDBRANCH  31  34
ENDBRANCH  27  28
ENDBRANCH  23  27
ENDBRANCH  22  23
ENDBRANCH   1  22
TORSDOF 10
