REMARK  Name = ZINC30642331
REMARK  8 active torsions:
REMARK  status: ('A' for Active; 'I' for Inactive)
REMARK    1  A    between atoms: C_1  and  C_2
REMARK    2  A    between atoms: C_2  and  C_3
REMARK    3  A    between atoms: C_3  and  C_5
REMARK    4  A    between atoms: C_3  and  N_22
REMARK    5  A    between atoms: C_5  and  N_6
REMARK    6  A    between atoms: C_7  and  C_9
REMARK    7  A    between atoms: C_9  and  C_11
REMARK    8  A    between atoms: C_12  and  C_21
REMARK                            x       y       z     vdW  Elec       q    Type
REMARK                         _______ _______ _______ _____ _____    ______ ____
ROOT
ATOM      1  N   UNL     1      -2.270  -2.008  -0.561  0.00  0.00    -0.310 N 
ATOM      2  C   UNL     1      -2.627  -0.733  -0.814  0.00  0.00    +0.284 C 
ATOM      3  O   UNL     1      -3.775  -0.379  -0.641  0.00  0.00    -0.267 OA
ATOM      4  H   UNL     1      -1.230  -2.329  -0.718  0.00  0.00    +0.149 HD
ENDROOT
BRANCH   2   5
ATOM      5  C   UNL     1      -1.612   0.242  -1.307  0.00  0.00    +0.249 C 
ATOM      6  O   UNL     1      -0.479  -0.128  -1.545  0.00  0.00    -0.282 OA
BRANCH   5   7
ATOM      7  C   UNL     1      -1.979   1.644  -1.502  0.00  0.00    +0.055 A 
ATOM      8  C   UNL     1      -2.435   2.228  -2.670  0.00  0.00    +0.025 A 
ATOM      9  N   UNL     1      -2.672   3.535  -2.457  0.00  0.00    -0.358 N 
ATOM     10  H   UNL     1      -3.049   4.166  -3.276  0.00  0.00    +0.166 HD
ATOM     11  C   UNL     1      -2.378   3.880  -1.153  0.00  0.00    +0.047 A 
ATOM     12  C   UNL     1      -1.933   2.722  -0.495  0.00  0.00    +0.011 A 
ATOM     13  C   UNL     1      -1.564   2.777   0.845  0.00  0.00    +0.011 A 
ATOM     14  C   UNL     1      -1.637   3.974   1.525  0.00  0.00    +0.001 A 
ATOM     15  C   UNL     1      -2.076   5.119   0.877  0.00  0.00    +0.002 A 
ATOM     16  C   UNL     1      -2.444   5.078  -0.451  0.00  0.00    +0.026 A 
ATOM     17  C   UNL     1      -2.638   1.509  -3.979  0.00  0.00    +0.064 C 
ENDBRANCH   5   7
ENDBRANCH   2   5
BRANCH   1  18
ATOM     18  C   UNL     1      -3.267  -2.966  -0.077  0.00  0.00    +0.089 C 
BRANCH  18  19
ATOM     19  C   UNL     1      -2.579  -4.289   0.266  0.00  0.00    -0.051 C 
BRANCH  19  20
ATOM     20  N   UNL     1      -1.485  -4.040   1.214  0.00  0.00    +0.385 N 
ATOM     21  C   UNL     1      -0.496  -5.130   1.175  0.00  0.00    -0.073 C 
ATOM     22  C   UNL     1       0.773  -4.658   1.885  0.00  0.00    +0.017 C 
ATOM     23  C   UNL     1       0.425  -4.085   3.235  0.00  0.00    -0.048 A 
ATOM     24  C   UNL     1       1.438  -3.932   4.170  0.00  0.00    +0.004 A 
ATOM     25  C   UNL     1       1.163  -3.408   5.417  0.00  0.00    +0.000 A 
ATOM     26  C   UNL     1      -0.129  -3.033   5.736  0.00  0.00    +0.000 A 
ATOM     27  C   UNL     1      -1.138  -3.186   4.806  0.00  0.00    +0.002 A 
ATOM     28  C   UNL     1      -0.864  -3.715   3.554  0.00  0.00    -0.061 A 
ATOM     29  C   UNL     1      -2.000  -3.870   2.577  0.00  0.00    -0.042 C 
ATOM     30  H   UNL     1      -0.989  -3.106   0.913  0.00  0.00    -0.081 HD
ENDBRANCH  19  20
BRANCH  19  32
ATOM     31  C   UNL     1      -2.928  -6.595   1.161  0.00  0.00    +0.002 C 
ATOM     32  C   UNL     1      -3.595  -5.243   0.897  0.00  0.00    -0.017 C 
ENDBRANCH  19  32
ENDBRANCH  18  19
ENDBRANCH   1  18
TORSDOF 6
