REMARK  Name = ZINC18122176
REMARK  8 active torsions:
REMARK  status: ('A' for Active; 'I' for Inactive)
REMARK    1  A    between atoms: C_1  and  C_2
REMARK    2  A    between atoms: C_2  and  N_22
REMARK    3  A    between atoms: C_4  and  C_18
REMARK    4  A    between atoms: N_22  and  C_23
REMARK    5  A    between atoms: C_25  and  C_31
REMARK    6  A    between atoms: C_25  and  C_32
REMARK    7  A    between atoms: C_27  and  C_29
REMARK    8  A    between atoms: C_27  and  C_30
REMARK                            x       y       z     vdW  Elec       q    Type
REMARK                         _______ _______ _______ _____ _____    ______ ____
ROOT
ATOM      1  C   UNL     1       0.328   1.477   0.169  0.00  0.00    +0.061 C 
ATOM      2  C   UNL     1       0.313  -0.030   0.156  0.00  0.00    +0.015 C 
ATOM      3  C   UNL     1       0.411  -0.733   1.344  0.00  0.00    +0.087 C 
ATOM      4  C   UNL     1       0.416  -0.188   2.710  0.00  0.00    +0.176 C 
ATOM      5  N   UNL     1       0.524  -1.188   3.531  0.00  0.00    -0.165 NA
ATOM      6  N   UNL     1       0.595  -2.400   2.846  0.00  0.00    -0.131 N 
ATOM      7  C   UNL     1       0.525  -2.187   1.516  0.00  0.00    +0.276 C 
ATOM      8  O   UNL     1       0.554  -3.029   0.635  0.00  0.00    -0.268 OA
ATOM      9  C   UNL     1       0.714  -3.646   3.446  0.00  0.00    +0.189 A 
ATOM     10  N   UNL     1       0.793  -4.828   2.880  0.00  0.00    -0.223 NA
ATOM     11  C   UNL     1       0.908  -5.968   3.594  0.00  0.00    +0.080 A 
ATOM     12  C   UNL     1       1.001  -7.295   3.112  0.00  0.00    +0.029 A 
ATOM     13  C   UNL     1       1.112  -8.349   3.980  0.00  0.00    +0.002 A 
ATOM     14  C   UNL     1       1.138  -8.157   5.354  0.00  0.00    +0.001 A 
ATOM     15  C   UNL     1       1.049  -6.873   5.861  0.00  0.00    +0.017 A 
ATOM     16  C   UNL     1       0.937  -5.811   4.998  0.00  0.00    +0.041 A 
ATOM     17  S   UNL     1       0.807  -4.049   5.184  0.00  0.00    -0.050 S 
ENDROOT
BRANCH   4  18
ATOM     18  C   UNL     1       0.316   1.268   3.088  0.00  0.00    +0.437 C 
ATOM     19  F   UNL     1       0.505   1.405   4.468  0.00  0.00    -0.164 F 
ATOM     20  F   UNL     1       1.298   1.995   2.408  0.00  0.00    -0.164 F 
ATOM     21  F   UNL     1      -0.949   1.754   2.740  0.00  0.00    -0.164 F 
ENDBRANCH   4  18
BRANCH   2  22
ATOM     22  N   UNL     1       0.205  -0.693  -1.013  0.00  0.00    -0.344 N 
ATOM     23  H   UNL     1       0.195  -1.663  -1.022  0.00  0.00    +0.146 HD
BRANCH  22  24
ATOM     24  C   UNL     1       0.101   0.053  -2.274  0.00  0.00    +0.068 C 
ATOM     25  C   UNL     1      -1.367   0.392  -2.538  0.00  0.00    +0.009 C 
ATOM     26  C   UNL     1      -1.494   1.158  -3.854  0.00  0.00    -0.072 C 
ATOM     27  N   UNL     1      -0.877   0.447  -4.964  0.00  0.00    +0.386 N 
ATOM     28  C   UNL     1       0.453  -0.104  -4.757  0.00  0.00    -0.072 C 
ATOM     29  C   UNL     1       0.605  -0.823  -3.421  0.00  0.00    +0.009 C 
ATOM     30  C   UNL     1       1.539   0.965  -4.901  0.00  0.00    -0.010 C 
ATOM     31  C   UNL     1       0.699  -1.151  -5.870  0.00  0.00    -0.010 C 
ATOM     32  C   UNL     1      -0.938   2.573  -3.697  0.00  0.00    -0.010 C 
ATOM     33  C   UNL     1      -3.002   1.290  -4.165  0.00  0.00    -0.010 C 
ATOM     34  H   UNL     1      -1.501  -0.313  -5.244  0.00  0.00    -0.084 HD
ATOM     35  H   UNL     1      -0.843   1.077  -5.769  0.00  0.00    -0.084 HD
ENDBRANCH  22  24
ENDBRANCH   2  22
TORSDOF 3
