REMARK  Name = ZINC60377197
REMARK  12 active torsions:
REMARK  status: ('A' for Active; 'I' for Inactive)
REMARK    1  A    between atoms: C_1  and  C_2
REMARK    2  A    between atoms: C_2  and  C_4
REMARK    3  A    between atoms: C_2  and  N_14
REMARK    4  A    between atoms: C_8  and  S_10
REMARK    5  A    between atoms: S_10  and  N_13
REMARK    6  A    between atoms: N_14  and  C_15
REMARK    7  A    between atoms: N_14  and  C_16
REMARK    8  A    between atoms: C_16  and  C_17
REMARK    9  A    between atoms: N_19  and  C_20
REMARK   10  A    between atoms: C_21  and  C_29
REMARK   11  A    between atoms: C_29  and  O_31
REMARK   12  A    between atoms: O_31  and  C_32
REMARK                            x       y       z     vdW  Elec       q    Type
REMARK                         _______ _______ _______ _____ _____    ______ ____
ROOT
ATOM      1  C   UNL     1       2.091   0.018   1.182  0.00  0.00    +0.019 C 
ENDROOT
BRANCH   1   2
ATOM      2  C   UNL     1       2.782  -0.379   2.461  0.00  0.00    +0.201 C 
ATOM      3  O   UNL     1       2.186  -1.021   3.299  0.00  0.00    -0.278 OA
ATOM      4  N   UNL     1       4.063  -0.019   2.674  0.00  0.00    -0.281 N 
ATOM      5  H   UNL     1       4.540   0.495   2.004  0.00  0.00    +0.155 HD
BRANCH   4   6
ATOM      6  C   UNL     1       4.699  -0.383   3.850  0.00  0.00    +0.086 A 
ATOM      7  C   UNL     1       6.000  -0.100   4.240  0.00  0.00    +0.091 A 
ATOM      8  C   UNL     1       6.429  -0.601   5.534  0.00  0.00    -0.021 A 
ATOM      9  C   UNL     1       5.481  -1.293   6.201  0.00  0.00    -0.004 A 
ATOM     10  S   UNL     1       4.070  -1.264   5.134  0.00  0.00    -0.077 S 
ATOM     11  C   UNL     1       5.614  -1.933   7.548  0.00  0.00    +0.043 C 
ATOM     12  C   UNL     1       7.107  -2.010   7.900  0.00  0.00    +0.005 C 
ATOM     13  C   UNL     1       7.750  -0.646   7.633  0.00  0.00    +0.005 C 
ATOM     14  C   UNL     1       7.814  -0.387   6.126  0.00  0.00    +0.037 C 
BRANCH   7  15
ATOM     15  C   UNL     1       6.902   0.672   3.383  0.00  0.00    +0.342 C 
ATOM     16  O   UNL     1       6.947   1.884   3.481  0.00  0.00    -0.245 OA
BRANCH  15  17
ATOM     17  O   UNL     1       7.684   0.039   2.484  0.00  0.00    -0.464 OA
ATOM     18  C   UNL     1       8.540   0.855   1.681  0.00  0.00    +0.280 C 
ENDBRANCH  15  17
ENDBRANCH   7  15
ENDBRANCH   4   6
ENDBRANCH   1   2
BRANCH   1  19
ATOM     19  N   UNL     1       0.713  -0.491   1.192  0.00  0.00    +0.388 N 
ATOM     20  C   UNL     1       0.733  -1.960   1.184  0.00  0.00    -0.095 C 
ATOM     21  H   UNL     1       0.240  -0.165   2.022  0.00  0.00    -0.081 HD
BRANCH  19  23
ATOM     22  C   UNL     1      -0.019   1.526   0.010  0.00  0.00    -0.008 C 
ATOM     23  C   UNL     1       0.002  -0.004   0.002  0.00  0.00    -0.040 C 
BRANCH  23  24
ATOM     24  C   UNL     1      -1.412  -0.526   0.013  0.00  0.00    -0.059 A 
ATOM     25  C   UNL     1      -2.123  -0.571   1.198  0.00  0.00    +0.002 A 
ATOM     26  C   UNL     1      -3.420  -1.049   1.207  0.00  0.00    +0.002 A 
ATOM     27  C   UNL     1      -4.006  -1.482   0.032  0.00  0.00    +0.028 A 
ATOM     28  C   UNL     1      -3.295  -1.436  -1.152  0.00  0.00    +0.105 A 
ATOM     29  C   UNL     1      -1.999  -0.954  -1.163  0.00  0.00    +0.030 A 
BRANCH  28  30
ATOM     30  S   UNL     1      -4.042  -1.988  -2.650  0.00  0.00    +0.056 S 
ATOM     31  O   UNL     1      -2.981  -2.351  -3.523  0.00  0.00    -0.153 OA
ATOM     32  O   UNL     1      -5.069  -2.898  -2.280  0.00  0.00    -0.153 OA
BRANCH  30  33
ATOM     33  N   UNL     1      -4.792  -0.680  -3.334  0.00  0.00    -0.204 NA
ATOM     34  H   UNL     1      -4.880  -0.621  -4.298  0.00  0.00    +0.144 HD
ATOM     35  H   UNL     1      -5.143   0.027  -2.771  0.00  0.00    +0.144 HD
ENDBRANCH  30  33
ENDBRANCH  28  30
ENDBRANCH  23  24
ENDBRANCH  19  23
ENDBRANCH   1  19
TORSDOF 9
