REMARK  Name = ZINC21266014
REMARK  12 active torsions:
REMARK  status: ('A' for Active; 'I' for Inactive)
REMARK    1  A    between atoms: C_3  and  S_26
REMARK    2  A    between atoms: C_6  and  C_7
REMARK    3  A    between atoms: C_7  and  N_8
REMARK    4  A    between atoms: N_8  and  C_9
REMARK    5  A    between atoms: C_9  and  C_10
REMARK    6  A    between atoms: N_12  and  C_13
REMARK    7  A    between atoms: C_13  and  C_14
REMARK    8  A    between atoms: C_14  and  C_15
REMARK    9  A    between atoms: C_15  and  N_16
REMARK   10  A    between atoms: N_16  and  C_17
REMARK   11  A    between atoms: C_20  and  N_23
REMARK   12  A    between atoms: S_26  and  N_29
REMARK                            x       y       z     vdW  Elec       q    Type
REMARK                         _______ _______ _______ _____ _____    ______ ____
ROOT
ATOM      1  C   UNL     1       4.394  -7.344  -0.078  0.00  0.00    +0.196 C 
ATOM      2  O   UNL     1       5.531  -6.922  -0.087  0.00  0.00    -0.278 OA
ATOM      3  N   UNL     1       3.356  -6.485  -0.063  0.00  0.00    -0.317 N 
ATOM      4  H   UNL     1       2.325  -6.869  -0.055  0.00  0.00    +0.149 HD
ENDROOT
BRANCH   1   5
ATOM      5  C   UNL     1       4.143  -8.830  -0.083  0.00  0.00    +0.015 C 
BRANCH   5   6
ATOM      6  N   UNL     1       5.427  -9.544  -0.099  0.00  0.00    +0.387 N 
ATOM      7  H   UNL     1       6.000  -9.258   0.795  0.00  0.00    -0.085 HD
ATOM      8  H   UNL     1       5.983  -9.249  -1.001  0.00  0.00    -0.085 HD
BRANCH   6   9
ATOM      9  C   UNL     1       5.220 -10.998  -0.104  0.00  0.00    -0.046 C 
BRANCH   9  15
ATOM     10  C   UNL     1       7.155 -12.014  -1.326  0.00  0.00    +0.003 A 
ATOM     11  C   UNL     1       8.383 -12.649  -1.341  0.00  0.00    +0.029 A 
ATOM     12  C   UNL     1       9.008 -12.974  -0.151  0.00  0.00    +0.105 A 
ATOM     13  C   UNL     1       8.407 -12.660   1.053  0.00  0.00    +0.029 A 
ATOM     14  C   UNL     1       7.181 -12.021   1.069  0.00  0.00    +0.003 A 
ATOM     15  C   UNL     1       6.556 -11.695  -0.121  0.00  0.00    -0.064 A 
BRANCH  12  16
ATOM     16  S   UNL     1      10.570 -13.788  -0.171  0.00  0.00    +0.056 S 
ATOM     17  O   UNL     1      11.172 -13.481  -1.421  0.00  0.00    -0.153 OA
ATOM     18  O   UNL     1      11.197 -13.492   1.070  0.00  0.00    -0.153 OA
BRANCH  16  19
ATOM     19  N   UNL     1      10.274 -15.417  -0.175  0.00  0.00    -0.204 NA
ATOM     20  H   UNL     1      11.229 -15.963  -0.187  0.00  0.00    +0.144 HD
ATOM     21  H   UNL     1       9.689 -15.681  -1.068  0.00  0.00    +0.144 HD
ENDBRANCH  16  19
ENDBRANCH  12  16
ENDBRANCH   9  15
ENDBRANCH   6   9
ENDBRANCH   5   6
ENDBRANCH   1   5
BRANCH   3  22
ATOM     22  C   UNL     1       3.600  -5.041  -0.059  0.00  0.00    +0.105 C 
BRANCH  22  23
ATOM     23  C   UNL     1       2.263  -4.298  -0.042  0.00  0.00    +0.037 C 
BRANCH  23  24
ATOM     24  C   UNL     1       2.518  -2.789  -0.037  0.00  0.00    +0.103 C 
BRANCH  24  25
ATOM     25  N   UNL     1       1.238  -2.077  -0.021  0.00  0.00    -0.344 N 
ATOM     26  H   UNL     1       0.294  -2.643  -0.014  0.00  0.00    +0.146 HD
BRANCH  25  27
ATOM     27  C   UNL     1       1.215  -0.681  -0.013  0.00  0.00    +0.027 A 
ATOM     28  C   UNL     1       0.002  -0.004   0.002  0.00  0.00    +0.025 A 
ATOM     29  C   UNL     1      -0.017   1.377   0.010  0.00  0.00    +0.034 A 
ATOM     30  C   UNL     1       1.171   2.086   0.002  0.00  0.00    +0.126 A 
ATOM     31  C   UNL     1       2.380   1.416  -0.013  0.00  0.00    +0.034 A 
ATOM     32  C   UNL     1       2.406   0.035  -0.021  0.00  0.00    +0.025 A 
BRANCH  30  33
ATOM     33  N   UNL     1       1.147   3.566   0.010  0.00  0.00    +0.056 N 
ATOM     34  O   UNL     1       0.082   4.158   0.023  0.00  0.00    -0.126 OA
ATOM     35  O   UNL     1       2.191   4.192   0.003  0.00  0.00    -0.126 OA
ENDBRANCH  30  33
ENDBRANCH  25  27
ENDBRANCH  24  25
ENDBRANCH  23  24
ENDBRANCH  22  23
ENDBRANCH   3  22
TORSDOF 12
