REMARK  Name = ZINC06877447
REMARK  9 active torsions:
REMARK  status: ('A' for Active; 'I' for Inactive)
REMARK    1  A    between atoms: C_1  and  C_2
REMARK    2  A    between atoms: C_2  and  N_60
REMARK    3  A    between atoms: C_8  and  N_25
REMARK    4  A    between atoms: C_9  and  C_10
REMARK    5  A    between atoms: C_10  and  C_12
REMARK    6  A    between atoms: C_10  and  N_13
REMARK    7  A    between atoms: N_16  and  C_17
REMARK    8  A    between atoms: C_21  and  C_24
REMARK    9  A    between atoms: C_22  and  C_23
REMARK                            x       y       z     vdW  Elec       q    Type
REMARK                         _______ _______ _______ _____ _____    ______ ____
ROOT
ATOM      1  C   UNL     1      -0.873  -1.637  -1.716  0.00  0.00    -0.074 C 
ATOM      2  C   UNL     1      -1.284  -0.601  -0.667  0.00  0.00    +0.018 C 
ATOM      3  C   UNL     1      -0.239   0.512  -0.660  0.00  0.00    -0.034 A 
ATOM      4  C   UNL     1       0.983   0.285  -1.218  0.00  0.00    -0.021 A 
ATOM      5  S   UNL     1       1.844   1.816  -0.990  0.00  0.00    -0.077 S 
ATOM      6  C   UNL     1       0.539   2.705  -0.154  0.00  0.00    +0.090 A 
ATOM      7  C   UNL     1      -0.451   1.774  -0.111  0.00  0.00    +0.007 A 
ATOM      8  C   UNL     1       1.453  -0.977  -1.863  0.00  0.00    -0.035 C 
ATOM      9  N   UNL     1       0.520  -2.062  -1.470  0.00  0.00    +0.383 N 
ATOM     10  H   UNL     1       0.638  -2.258  -0.469  0.00  0.00    -0.081 HD
ENDROOT
BRANCH   6  11
ATOM     11  N   UNL     1       0.537   4.018   0.331  0.00  0.00    -0.317 N 
ATOM     12  C   UNL     1       1.620   4.847   0.388  0.00  0.00    +0.092 A 
ATOM     13  C   UNL     1       1.221   6.025   0.910  0.00  0.00    +0.019 A 
ATOM     14  C   UNL     1      -0.154   5.918   1.195  0.00  0.00    +0.019 A 
ATOM     15  C   UNL     1      -0.547   4.680   0.831  0.00  0.00    +0.092 A 
ENDBRANCH   6  11
BRANCH   9  17
ATOM     16  C   UNL     1       0.550  -3.066  -3.728  0.00  0.00    -0.017 C 
ATOM     17  C   UNL     1       0.819  -3.289  -2.238  0.00  0.00    -0.082 C 
ENDBRANCH   9  17
BRANCH   7  18
ATOM     18  C   UNL     1      -1.777   2.108   0.524  0.00  0.00    +0.104 C 
ATOM     19  C   UNL     1      -2.561   3.045  -0.398  0.00  0.00    +0.033 C 
BRANCH  18  20
ATOM     20  N   UNL     1      -1.549   2.768   1.812  0.00  0.00    -0.292 N 
ATOM     21  C   UNL     1      -2.566   2.915   2.683  0.00  0.00    +0.304 C 
ATOM     22  O   UNL     1      -3.673   2.499   2.401  0.00  0.00    -0.252 OA
ATOM     23  N   UNL     1      -2.357   3.522   3.868  0.00  0.00    -0.269 N 
ATOM     24  H   UNL     1      -0.665   3.100   2.037  0.00  0.00    +0.151 HD
ATOM     25  H   UNL     1      -1.456   3.763   4.137  0.00  0.00    +0.156 HD
BRANCH  23  26
ATOM     26  C   UNL     1      -3.438   3.804   4.710  0.00  0.00    +0.038 A 
ATOM     27  C   UNL     1      -4.728   3.841   4.198  0.00  0.00    +0.023 A 
ATOM     28  C   UNL     1      -5.793   4.120   5.032  0.00  0.00    +0.002 A 
ATOM     29  C   UNL     1      -5.575   4.361   6.377  0.00  0.00    +0.004 A 
ATOM     30  C   UNL     1      -4.292   4.325   6.890  0.00  0.00    -0.046 A 
ATOM     31  C   UNL     1      -3.223   4.042   6.062  0.00  0.00    -0.026 A 
ATOM     32  C   UNL     1      -1.825   3.997   6.623  0.00  0.00    +0.046 C 
ATOM     33  C   UNL     1      -4.060   4.588   8.355  0.00  0.00    +0.044 C 
ENDBRANCH  23  26
ENDBRANCH  18  20
ENDBRANCH   7  18
TORSDOF 5
