REMARK  Name = ZINC09193897
REMARK  11 active torsions:
REMARK  status: ('A' for Active; 'I' for Inactive)
REMARK    1  A    between atoms: C_1  and  C_2
REMARK    2  A    between atoms: C_2  and  O_3
REMARK    3  A    between atoms: O_3  and  C_4
REMARK    4  A    between atoms: C_4  and  C_6
REMARK    5  A    between atoms: C_10  and  C_20
REMARK    6  A    between atoms: C_14  and  N_15
REMARK    7  A    between atoms: C_16  and  C_18
REMARK    8  A    between atoms: C_20  and  N_43
REMARK    9  A    between atoms: C_21  and  C_22
REMARK   10  A    between atoms: C_21  and  N_43
REMARK   11  A    between atoms: C_22  and  O_23
REMARK                            x       y       z     vdW  Elec       q    Type
REMARK                         _______ _______ _______ _____ _____    ______ ____
ROOT
ATOM      1  C   UNL     1       2.278   1.013  -0.014  0.00  0.00    +0.072 A 
ATOM      2  C   UNL     1       1.337   2.135   0.001  0.00  0.00    +0.005 A 
ATOM      3  C   UNL     1       1.623   3.519   0.006  0.00  0.00    +0.010 A 
ATOM      4  C   UNL     1       0.612   4.444   0.021  0.00  0.00    +0.004 A 
ATOM      5  C   UNL     1      -0.720   4.054   0.031  0.00  0.00    -0.045 A 
ATOM      6  C   UNL     1      -1.034   2.708   0.031  0.00  0.00    +0.057 A 
ATOM      7  C   UNL     1      -0.022   1.770   0.012  0.00  0.00    +0.040 A 
ATOM      8  S   UNL     1       0.002  -0.004   0.002  0.00  0.00    -0.071 S 
ATOM      9  C   UNL     1       1.764  -0.267  -0.016  0.00  0.00    +0.085 A 
ATOM     10 CL   UNL     1      -2.693   2.200   0.052  0.00  0.00    -0.082 Cl
ENDROOT
BRANCH   9  11
ATOM     11  N   UNL     1       2.453  -1.469  -0.030  0.00  0.00    -0.280 N 
ATOM     12  C   UNL     1       1.775  -2.634  -0.030  0.00  0.00    +0.214 C 
ATOM     13  O   UNL     1       0.562  -2.630  -0.018  0.00  0.00    -0.276 OA
ATOM     14  C   UNL     1       2.524  -3.941  -0.045  0.00  0.00    +0.109 C 
ATOM     15  H   UNL     1       3.423  -1.472  -0.039  0.00  0.00    +0.155 HD
ENDBRANCH   9  11
BRANCH   1  16
ATOM     16  C   UNL     1       3.728   1.245  -0.027  0.00  0.00    +0.218 C 
ATOM     17  N   UNL     1       4.362   1.353  -1.164  0.00  0.00    -0.267 NA
ATOM     18  H   UNL     1       5.319   1.506  -1.173  0.00  0.00    +0.190 HD
BRANCH  16  19
ATOM     19  O   UNL     1       4.407   1.345   1.139  0.00  0.00    -0.477 OA
BRANCH  19  21
ATOM     20  C   UNL     1       6.407   1.656   2.460  0.00  0.00    +0.048 C 
ATOM     21  C   UNL     1       5.816   1.571   1.051  0.00  0.00    +0.227 C 
ENDBRANCH  19  21
ENDBRANCH  16  19
ENDBRANCH   1  16
BRANCH   5  22
ATOM     22  C   UNL     1      -1.815   5.090   0.047  0.00  0.00    -0.045 C 
BRANCH  22  23
ATOM     23  N   UNL     1      -2.319   5.239   1.425  0.00  0.00    +0.383 N 
ATOM     24  H   UNL     1      -1.550   5.535   2.037  0.00  0.00    -0.085 HD
ATOM     25  H   UNL     1      -2.687   4.337   1.750  0.00  0.00    -0.085 HD
BRANCH  23  26
ATOM     26  C   UNL     1      -3.394   6.248   1.471  0.00  0.00    -0.054 C 
BRANCH  26  27
ATOM     27  C   UNL     1      -3.896   6.380   2.910  0.00  0.00    +0.137 C 
BRANCH  27  28
ATOM     28  O   UNL     1      -2.850   6.899   3.734  0.00  0.00    -0.397 OA
ATOM     29  H   UNL     1      -3.099   7.010   4.662  0.00  0.00    +0.209 HD
ENDBRANCH  27  28
ENDBRANCH  26  27
ENDBRANCH  23  26
ENDBRANCH  22  23
ENDBRANCH   5  22
TORSDOF 9
