REMARK  Name = ZINC19740720
REMARK  11 active torsions:
REMARK  status: ('A' for Active; 'I' for Inactive)
REMARK    1  A    between atoms: C_1  and  C_2
REMARK    2  A    between atoms: C_2  and  C_4
REMARK    3  A    between atoms: C_2  and  N_13
REMARK    4  A    between atoms: C_4  and  C_5
REMARK    5  A    between atoms: C_5  and  C_6
REMARK    6  A    between atoms: C_9  and  O_12
REMARK    7  A    between atoms: N_13  and  C_14
REMARK    8  A    between atoms: C_14  and  C_15
REMARK    9  A    between atoms: C_17  and  C_25
REMARK   10  A    between atoms: C_19  and  N_21
REMARK   11  A    between atoms: C_22  and  C_24
REMARK                            x       y       z     vdW  Elec       q    Type
REMARK                         _______ _______ _______ _____ _____    ______ ____
ROOT
ATOM      1  C   UNL     1      -2.639   4.293   0.031  0.00  0.00    -0.062 A 
ATOM      2  C   UNL     1      -3.818   3.580   0.110  0.00  0.00    +0.015 A 
ATOM      3  C   UNL     1      -3.790   2.185   0.131  0.00  0.00    +0.039 A 
ATOM      4  C   UNL     1      -2.567   1.516   0.071  0.00  0.00    +0.036 A 
ATOM      5  C   UNL     1      -1.389   2.241  -0.007  0.00  0.00    +0.034 A 
ATOM      6  C   UNL     1      -1.427   3.630  -0.022  0.00  0.00    +0.025 A 
ENDROOT
BRANCH   3   7
ATOM      7  C   UNL     1      -5.051   1.419   0.215  0.00  0.00    +0.247 C 
ATOM      8  O   UNL     1      -6.119   1.993   0.124  0.00  0.00    -0.270 OA
ATOM      9  N   UNL     1      -5.018   0.083   0.394  0.00  0.00    -0.298 N 
ATOM     10  C   UNL     1      -3.808  -0.751   0.393  0.00  0.00    +0.108 C 
ATOM     11  C   UNL     1      -4.258  -2.212   0.609  0.00  0.00    +0.020 C 
ATOM     12  C   UNL     1      -5.738  -2.189   0.146  0.00  0.00    +0.020 C 
ATOM     13  C   UNL     1      -6.190  -0.784   0.616  0.00  0.00    +0.108 C 
ENDBRANCH   3   7
BRANCH   5  14
ATOM     14  N   UNL     1      -0.160   1.574  -0.067  0.00  0.00    -0.286 N 
ATOM     15  C   UNL     1       0.896   2.159  -0.666  0.00  0.00    +0.214 C 
ATOM     16  O   UNL     1       0.756   3.218  -1.243  0.00  0.00    -0.276 OA
ATOM     17  C   UNL     1       2.250   1.499  -0.621  0.00  0.00    +0.109 C 
ATOM     18  H   UNL     1      -0.055   0.573   0.376  0.00  0.00    +0.155 HD
ENDBRANCH   5  14
BRANCH   1  19
ATOM     19  C   UNL     1      -2.672   5.800   0.009  0.00  0.00    -0.046 C 
BRANCH  19  20
ATOM     20  N   UNL     1      -2.604   6.311   1.384  0.00  0.00    +0.383 N 
ATOM     21  H   UNL     1      -1.670   5.958   1.846  0.00  0.00    -0.085 HD
ATOM     22  H   UNL     1      -3.463   5.920   1.949  0.00  0.00    -0.085 HD
BRANCH  20  24
ATOM     23  C   UNL     1      -1.218   8.322   1.200  0.00  0.00    -0.014 C 
ATOM     24  C   UNL     1      -2.635   7.780   1.402  0.00  0.00    -0.074 C 
BRANCH  24  25
ATOM     25  C   UNL     1      -3.178   8.263   2.748  0.00  0.00    -0.011 C 
BRANCH  25  26
ATOM     26  C   UNL     1      -4.637   7.826   2.895  0.00  0.00    +0.033 C 
BRANCH  26  27
ATOM     27  C   UNL     1      -5.173   8.302   4.221  0.00  0.00    -0.047 A 
ATOM     28  C   UNL     1      -5.065   7.494   5.338  0.00  0.00    +0.007 A 
ATOM     29  C   UNL     1      -5.550   7.930   6.556  0.00  0.00    +0.045 A 
ATOM     30  C   UNL     1      -6.156   9.175   6.655  0.00  0.00    +0.117 A 
ATOM     31  C   UNL     1      -6.267   9.980   5.531  0.00  0.00    +0.045 A 
ATOM     32  C   UNL     1      -5.776   9.542   4.317  0.00  0.00    +0.007 A 
BRANCH  30  33
ATOM     33  O   UNL     1      -6.638   9.604   7.851  0.00  0.00    -0.507 OA
ATOM     34  H   UNL     1      -7.118  10.591   7.928  0.00  0.00    +0.292 HD
ENDBRANCH  30  33
ENDBRANCH  26  27
ENDBRANCH  25  26
ENDBRANCH  24  25
ENDBRANCH  20  24
ENDBRANCH  19  20
ENDBRANCH   1  19
TORSDOF 9
