REMARK  Name = ZINC08739660
REMARK  8 active torsions:
REMARK  status: ('A' for Active; 'I' for Inactive)
REMARK    1  A    between atoms: C_1  and  O_2
REMARK    2  A    between atoms: O_2  and  C_3
REMARK    3  A    between atoms: C_6  and  N_9
REMARK    4  A    between atoms: C_13  and  C_14
REMARK    5  A    between atoms: C_17  and  C_19
REMARK    6  A    between atoms: C_22  and  N_27
REMARK    7  A    between atoms: C_24  and  O_25
REMARK    8  A    between atoms: O_25  and  C_26
REMARK                            x       y       z     vdW  Elec       q    Type
REMARK                         _______ _______ _______ _____ _____    ______ ____
ROOT
ATOM      1  N   UNL     1      -4.870  -2.592  -0.341  0.00  0.00    -0.188 N 
ATOM      2  C   UNL     1      -4.945  -3.918  -0.098  0.00  0.00    +0.264 C 
ATOM      3  O   UNL     1      -3.986  -4.532   0.335  0.00  0.00    -0.269 OA
ATOM      4  C   UNL     1      -6.220  -4.596  -0.371  0.00  0.00    +0.105 C 
ATOM      5  C   UNL     1      -6.382  -5.962  -0.147  0.00  0.00    +0.064 C 
ATOM      6  C   UNL     1      -7.322  -3.765  -0.893  0.00  0.00    +0.277 C 
ATOM      7  N   UNL     1      -7.097  -2.454  -1.085  0.00  0.00    -0.123 NA
ATOM      8  C   UNL     1      -5.940  -1.903  -0.819  0.00  0.00    +0.340 C 
ATOM      9  O   UNL     1      -5.800  -0.580  -1.035  0.00  0.00    -0.250 OA
ATOM     10  O   UNL     1      -8.410  -4.256  -1.145  0.00  0.00    -0.268 OA
ENDROOT
BRANCH   1  14
ATOM     11  C   UNL     1      -1.297  -0.573   0.404  0.00  0.00    +0.120 A 
ATOM     12  C   UNL     1      -2.465  -0.169   1.033  0.00  0.00    +0.047 A 
ATOM     13  C   UNL     1      -3.648  -0.837   0.787  0.00  0.00    +0.027 A 
ATOM     14  C   UNL     1      -3.668  -1.913  -0.091  0.00  0.00    +0.046 A 
ATOM     15  C   UNL     1      -2.498  -2.316  -0.720  0.00  0.00    +0.027 A 
ATOM     16  C   UNL     1      -1.317  -1.644  -0.477  0.00  0.00    +0.047 A 
BRANCH  11  18
ATOM     17  C   UNL     1      -0.184   1.180   1.565  0.00  0.00    +0.277 C 
ATOM     18  O   UNL     1      -0.132   0.086   0.646  0.00  0.00    -0.495 OA
ENDBRANCH  11  18
ENDBRANCH   1  14
BRANCH   5  19
ATOM     19  C   UNL     1      -7.653  -6.540  -0.237  0.00  0.00    +0.129 A 
ATOM     20  C   UNL     1      -7.950  -7.774  -0.808  0.00  0.00    +0.050 A 
ATOM     21  C   UNL     1      -9.324  -7.954  -0.682  0.00  0.00    +0.050 A 
ATOM     22  C   UNL     1      -9.823  -6.835  -0.043  0.00  0.00    +0.139 A 
ATOM     23  O   UNL     1      -8.804  -6.000   0.221  0.00  0.00    -0.455 OA
BRANCH  22  24
ATOM     24  C   UNL     1     -11.237  -6.599   0.297  0.00  0.00    +0.059 A 
ATOM     25  C   UNL     1     -12.231  -6.766  -0.671  0.00  0.00    +0.017 A 
ATOM     26  C   UNL     1     -13.552  -6.544  -0.346  0.00  0.00    +0.033 A 
ATOM     27  C   UNL     1     -13.899  -6.155   0.938  0.00  0.00    +0.130 A 
ATOM     28  C   UNL     1     -12.927  -5.986   1.905  0.00  0.00    +0.079 A 
ATOM     29  C   UNL     1     -11.595  -6.211   1.597  0.00  0.00    +0.133 A 
BRANCH  27  30
ATOM     30  N   UNL     1     -15.321  -5.919   1.275  0.00  0.00    +0.057 N 
ATOM     31  O   UNL     1     -16.175  -6.066   0.432  0.00  0.00    -0.126 OA
ATOM     32  O   UNL     1     -15.629  -5.580   2.394  0.00  0.00    -0.126 OA
ENDBRANCH  27  30
BRANCH  29  33
ATOM     33  O   UNL     1     -10.639  -6.050   2.548  0.00  0.00    -0.494 OA
ATOM     34  C   UNL     1     -11.078  -5.653   3.849  0.00  0.00    +0.277 C 
ENDBRANCH  29  33
ENDBRANCH  22  24
ENDBRANCH   5  19
TORSDOF 6
