REMARK  Name = ZINC08818265
REMARK  10 active torsions:
REMARK  status: ('A' for Active; 'I' for Inactive)
REMARK    1  A    between atoms: C_1  and  C_2
REMARK    2  A    between atoms: C_2  and  C_4
REMARK    3  A    between atoms: C_2  and  N_12
REMARK    4  A    between atoms: C_4  and  C_5
REMARK    5  A    between atoms: C_5  and  C_6
REMARK    6  A    between atoms: N_12  and  C_13
REMARK    7  A    between atoms: C_15  and  N_22
REMARK    8  A    between atoms: C_18  and  N_19
REMARK    9  A    between atoms: N_25  and  S_28
REMARK   10  A    between atoms: S_28  and  C_31
REMARK                            x       y       z     vdW  Elec       q    Type
REMARK                         _______ _______ _______ _____ _____    ______ ____
ROOT
ATOM      1  C   UNL     1       7.663  -1.423  -0.369  0.00  0.00    +0.060 A 
ATOM      2  C   UNL     1       7.756  -2.803  -0.253  0.00  0.00    +0.048 A 
ATOM      3  C   UNL     1       8.878  -3.373   0.332  0.00  0.00    +0.032 A 
ATOM      4  C   UNL     1       9.904  -2.560   0.800  0.00  0.00    +0.025 A 
ATOM      5  C   UNL     1       9.808  -1.187   0.683  0.00  0.00    +0.036 A 
ATOM      6  C   UNL     1       8.694  -0.617   0.096  0.00  0.00    +0.147 A 
ENDROOT
BRANCH   3   7
ATOM      7  N   UNL     1       8.977  -4.761   0.450  0.00  0.00    -0.327 N 
ATOM      8  C   UNL     1       7.821  -5.311   1.170  0.00  0.00    +0.122 C 
ATOM      9  C   UNL     1       7.874  -6.842   1.120  0.00  0.00    +0.128 C 
ATOM     10  N   UNL     1       9.185  -7.280   1.622  0.00  0.00    -0.174 NA
ATOM     11  C   UNL     1      10.391  -6.670   1.043  0.00  0.00    +0.128 C 
ATOM     12  C   UNL     1      10.239  -5.146   1.095  0.00  0.00    +0.122 C 
BRANCH  10  13
ATOM     13  S   UNL     1       9.300  -8.430   2.808  0.00  0.00    +0.061 S 
ATOM     14  O   UNL     1       8.102  -9.192   2.753  0.00  0.00    -0.153 OA
ATOM     15  O   UNL     1      10.586  -9.022   2.677  0.00  0.00    -0.153 OA
BRANCH  13  16
ATOM     16  C   UNL     1       9.290  -7.586   4.355  0.00  0.00    +0.106 A 
ATOM     17  C   UNL     1      10.480  -7.178   4.927  0.00  0.00    +0.030 A 
ATOM     18  C   UNL     1      10.473  -6.511   6.138  0.00  0.00    +0.022 A 
ATOM     19  C   UNL     1       9.274  -6.261   6.782  0.00  0.00    +0.041 A 
ATOM     20  C   UNL     1       8.083  -6.674   6.211  0.00  0.00    +0.022 A 
ATOM     21  C   UNL     1       8.092  -7.337   4.998  0.00  0.00    +0.030 A 
ATOM     22 CL   UNL     1       9.264  -5.429   8.306  0.00  0.00    -0.084 Cl
ENDBRANCH  13  16
ENDBRANCH  10  13
ENDBRANCH   3   7
BRANCH   6  23
ATOM     23  N   UNL     1       8.598   0.854  -0.033  0.00  0.00    +0.058 N 
ATOM     24  O   UNL     1       9.545   1.556   0.276  0.00  0.00    -0.126 OA
ATOM     25  O   UNL     1       7.572   1.364  -0.448  0.00  0.00    -0.126 OA
ENDBRANCH   6  23
BRANCH   1  26
ATOM     26  N   UNL     1       6.535  -0.846  -0.957  0.00  0.00    -0.339 N 
ATOM     27  H   UNL     1       6.433   0.119  -0.966  0.00  0.00    +0.146 HD
BRANCH  26  29
ATOM     28  C   UNL     1       5.903  -2.035  -2.998  0.00  0.00    +0.028 C 
ATOM     29  C   UNL     1       5.506  -1.697  -1.560  0.00  0.00    +0.068 C 
BRANCH  29  30
ATOM     30  C   UNL     1       4.168  -0.957  -1.560  0.00  0.00    +0.026 C 
BRANCH  30  31
ATOM     31  C   UNL     1       3.710  -0.729  -0.118  0.00  0.00    +0.037 C 
BRANCH  31  32
ATOM     32  C   UNL     1       2.391  -0.000  -0.118  0.00  0.00    -0.047 A 
ATOM     33  C   UNL     1       1.207  -0.713  -0.137  0.00  0.00    +0.003 A 
ATOM     34  C   UNL     1      -0.003  -0.044  -0.137  0.00  0.00    +0.000 A 
ATOM     35  C   UNL     1      -0.028   1.338  -0.119  0.00  0.00    +0.000 A 
ATOM     36  C   UNL     1       1.156   2.051  -0.100  0.00  0.00    +0.000 A 
ATOM     37  C   UNL     1       2.366   1.382  -0.100  0.00  0.00    +0.003 A 
ENDBRANCH  31  32
ENDBRANCH  30  31
ENDBRANCH  29  30
ENDBRANCH  26  29
ENDBRANCH   1  26
TORSDOF 9
