REMARK  Name = ZINC40733416
REMARK  9 active torsions:
REMARK  status: ('A' for Active; 'I' for Inactive)
REMARK    1  A    between atoms: C_1  and  C_2
REMARK    2  A    between atoms: C_7  and  C_8
REMARK    3  A    between atoms: C_8  and  O_9
REMARK    4  A    between atoms: O_9  and  C_10
REMARK    5  A    between atoms: C_11  and  O_29
REMARK    6  A    between atoms: C_13  and  C_17
REMARK    7  A    between atoms: C_17  and  N_18
REMARK    8  A    between atoms: N_18  and  C_19
REMARK    9  A    between atoms: O_29  and  C_30
REMARK                            x       y       z     vdW  Elec       q    Type
REMARK                         _______ _______ _______ _____ _____    ______ ____
ROOT
ATOM      1  C   UNL     1       0.053  -0.376   4.845  0.00  0.00    +0.176 A 
ATOM      2  C   UNL     1       1.260  -0.092   5.477  0.00  0.00    +0.163 A 
ATOM      3  C   UNL     1       1.260   0.431   6.760  0.00  0.00    +0.051 A 
ATOM      4  C   UNL     1       0.063   0.668   7.410  0.00  0.00    -0.060 A 
ATOM      5  C   UNL     1      -1.136   0.386   6.783  0.00  0.00    +0.021 A 
ATOM      6  C   UNL     1      -1.143  -0.131   5.500  0.00  0.00    +0.063 A 
ATOM      7 BR   UNL     1      -2.786  -0.508   4.642  0.00  0.00    -0.046 Br
ENDROOT
BRANCH   2   8
ATOM      8  O   UNL     1       2.436  -0.326   4.837  0.00  0.00    -0.491 OA
ATOM      9  C   UNL     1       3.636  -0.010   5.547  0.00  0.00    +0.277 C 
ENDBRANCH   2   8
BRANCH   1  10
ATOM     10  O   UNL     1       0.048  -0.889   3.585  0.00  0.00    -0.483 OA
BRANCH  10  11
ATOM     11  C   UNL     1       0.025   0.045   2.504  0.00  0.00    +0.265 C 
BRANCH  11  18
ATOM     12  C   UNL     1      -0.018   1.503   0.010  0.00  0.00    +0.044 C 
ATOM     13  C   UNL     1       0.002  -0.004   0.002  0.00  0.00    -0.044 A 
ATOM     14  C   UNL     1       0.006  -0.689  -1.199  0.00  0.00    +0.004 A 
ATOM     15  C   UNL     1       0.025  -2.071  -1.207  0.00  0.00    +0.000 A 
ATOM     16  C   UNL     1       0.040  -2.768  -0.013  0.00  0.00    +0.000 A 
ATOM     17  C   UNL     1       0.037  -2.084   1.188  0.00  0.00    +0.007 A 
ATOM     18  C   UNL     1       0.023  -0.702   1.195  0.00  0.00    -0.007 A 
ENDBRANCH  11  18
ENDBRANCH  10  11
ENDBRANCH   1  10
BRANCH   4  19
ATOM     19  C   UNL     1       0.065   1.237   8.806  0.00  0.00    -0.046 C 
BRANCH  19  20
ATOM     20  N   UNL     1       0.037   2.704   8.737  0.00  0.00    +0.384 N 
ATOM     21  H   UNL     1       0.850   3.033   8.239  0.00  0.00    -0.085 HD
ATOM     22  H   UNL     1      -0.797   3.002   8.254  0.00  0.00    -0.085 HD
BRANCH  20  23
ATOM     23  C   UNL     1       0.039   3.258  10.098  0.00  0.00    -0.065 C 
ATOM     24  C   UNL     1       1.360   2.910  10.788  0.00  0.00    -0.024 C 
ATOM     25  C   UNL     1       1.362   3.487  12.205  0.00  0.00    +0.005 C 
ATOM     26  C   UNL     1       1.207   5.008  12.137  0.00  0.00    -0.010 C 
ATOM     27  C   UNL     1       2.371   5.604  11.341  0.00  0.00    +0.007 C 
ATOM     28  C   UNL     1       2.368   5.027   9.924  0.00  0.00    -0.010 C 
ATOM     29  C   UNL     1       2.523   3.506   9.992  0.00  0.00    +0.005 C 
ATOM     30  C   UNL     1       1.048   5.375   9.234  0.00  0.00    +0.005 C 
ATOM     31  C   UNL     1      -0.116   4.779  10.030  0.00  0.00    -0.024 C 
ATOM     32  C   UNL     1      -0.113   5.356  11.447  0.00  0.00    +0.005 C 
ENDBRANCH  20  23
ENDBRANCH  19  20
ENDBRANCH   4  19
TORSDOF 7
