REMARK  Name = ZINC50606985
REMARK  6 active torsions:
REMARK  status: ('A' for Active; 'I' for Inactive)
REMARK    1  A    between atoms: C_1  and  N_2
REMARK    2  A    between atoms: N_7  and  C_8
REMARK    3  A    between atoms: N_7  and  C_16
REMARK    4  A    between atoms: C_8  and  C_9
REMARK    5  A    between atoms: C_12  and  N_15
REMARK    6  A    between atoms: C_16  and  C_17
REMARK                            x       y       z     vdW  Elec       q    Type
REMARK                         _______ _______ _______ _____ _____    ______ ____
ROOT
ATOM      1  C   UNL     1      -0.601   1.394   0.095  0.00  0.00    +0.151 C 
ATOM      2  N   UNL     1      -0.295  -0.037   0.045  0.00  0.00    -0.323 N 
ATOM      3  C   UNL     1      -0.326  -0.843  -1.071  0.00  0.00    +0.106 A 
ATOM      4  C   UNL     1       0.021  -2.078  -0.672  0.00  0.00    +0.103 A 
ATOM      5  N   UNL     1       0.261  -2.044   0.650  0.00  0.00    -0.334 N 
ATOM      6  C   UNL     1       0.080  -0.822   1.091  0.00  0.00    +0.176 A 
ATOM      7  N   UNL     1       0.241  -0.402   2.401  0.00  0.00    -0.289 N 
ATOM      8  H   UNL     1       0.529  -2.802   1.192  0.00  0.00    +0.168 HD
ENDROOT
BRANCH   7   9
ATOM      9  C   UNL     1       0.509  -1.381   3.457  0.00  0.00    +0.143 C 
BRANCH   9  10
ATOM     10  C   UNL     1       1.998  -1.570   3.600  0.00  0.00    -0.030 A 
ATOM     11  C   UNL     1       2.647  -2.534   2.852  0.00  0.00    +0.007 A 
ATOM     12  C   UNL     1       4.010  -2.709   2.981  0.00  0.00    +0.023 A 
ATOM     13  C   UNL     1       4.730  -1.915   3.864  0.00  0.00    +0.025 A 
ATOM     14  C   UNL     1       4.075  -0.947   4.615  0.00  0.00    +0.023 A 
ATOM     15  C   UNL     1       2.712  -0.773   4.477  0.00  0.00    +0.007 A 
BRANCH  13  16
ATOM     16  N   UNL     1       6.110  -2.090   3.997  0.00  0.00    -0.358 N 
ATOM     17  H   UNL     1       6.566  -2.766   3.473  0.00  0.00    +0.142 HD
ATOM     18  H   UNL     1       6.611  -1.535   4.615  0.00  0.00    +0.142 HD
ENDBRANCH  13  16
ENDBRANCH   9  10
ENDBRANCH   7   9
BRANCH   7  19
ATOM     19  C   UNL     1       0.142   1.022   2.732  0.00  0.00    +0.203 C 
BRANCH  19  20
ATOM     20  C   UNL     1      -1.273   1.347   3.138  0.00  0.00    +0.228 C 
ATOM     21  O   UNL     1      -2.115   0.474   3.150  0.00  0.00    -0.274 OA
ATOM     22  N   UNL     1      -1.602   2.606   3.487  0.00  0.00    -0.328 N 
ATOM     23  H   UNL     1      -0.928   3.304   3.477  0.00  0.00    +0.145 HD
ATOM     24  H   UNL     1      -2.513   2.815   3.748  0.00  0.00    +0.145 HD
ENDBRANCH  19  20
ENDBRANCH   7  19
TORSDOF 5
