REMARK  Name = ZINC12711097
REMARK  11 active torsions:
REMARK  status: ('A' for Active; 'I' for Inactive)
REMARK    1  A    between atoms: C_1  and  C_2
REMARK    2  A    between atoms: C_5  and  N_8
REMARK    3  A    between atoms: N_8  and  C_9
REMARK    4  A    between atoms: C_9  and  C_11
REMARK    5  A    between atoms: C_9  and  C_19
REMARK    6  A    between atoms: C_14  and  O_17
REMARK    7  A    between atoms: O_17  and  C_18
REMARK    8  A    between atoms: N_21  and  C_22
REMARK    9  A    between atoms: C_28  and  C_30
REMARK   10  A    between atoms: C_31  and  N_38
REMARK   11  A    between atoms: C_32  and  C_35
REMARK                            x       y       z     vdW  Elec       q    Type
REMARK                         _______ _______ _______ _____ _____    ______ ____
ROOT
ATOM      1  N   UNL     1      -1.034   1.080   1.110  0.00  0.00    -0.251 N 
ATOM      2  C   UNL     1      -0.851   0.362   2.236  0.00  0.00    +0.262 C 
ATOM      3  O   UNL     1       0.223  -0.171   2.450  0.00  0.00    -0.269 OA
ENDROOT
BRANCH   1   8
ATOM      4  C   UNL     1      -6.174   3.123  -0.145  0.00  0.00    +0.044 C 
ATOM      5  C   UNL     1      -4.809   2.580   0.188  0.00  0.00    -0.050 A 
ATOM      6  C   UNL     1      -4.350   1.435  -0.436  0.00  0.00    +0.005 A 
ATOM      7  C   UNL     1      -3.099   0.935  -0.133  0.00  0.00    +0.024 A 
ATOM      8  C   UNL     1      -2.301   1.584   0.801  0.00  0.00    +0.038 A 
ATOM      9  C   UNL     1      -2.767   2.731   1.431  0.00  0.00    +0.024 A 
ATOM     10  C   UNL     1      -4.017   3.229   1.118  0.00  0.00    +0.005 A 
ENDBRANCH   1   8
BRANCH   2  11
ATOM     11  C   UNL     1      -1.943   0.222   3.201  0.00  0.00    +0.116 A 
ATOM     12  C   UNL     1      -1.940  -0.383   4.459  0.00  0.00    +0.076 A 
ATOM     13  C   UNL     1      -3.183  -0.314   5.088  0.00  0.00    +0.155 A 
ATOM     14  N   UNL     1      -4.185   0.271   4.469  0.00  0.00    -0.203 NA
ATOM     15  S   UNL     1      -3.633   0.770   3.080  0.00  0.00    +0.019 S 
BRANCH  13  16
ATOM     16  C   UNL     1      -3.373  -0.896   6.429  0.00  0.00    +0.262 C 
ATOM     17  O   UNL     1      -2.442  -1.437   6.995  0.00  0.00    -0.269 OA
ATOM     18  N   UNL     1      -4.579  -0.830   7.028  0.00  0.00    -0.324 N 
ATOM     19  H   UNL     1      -5.321  -0.399   6.576  0.00  0.00    +0.145 HD
ATOM     20  H   UNL     1      -4.704  -1.213   7.910  0.00  0.00    +0.145 HD
ENDBRANCH  13  16
BRANCH  12  21
ATOM     21  N   UNL     1      -0.822  -0.984   5.024  0.00  0.00    -0.355 N 
ATOM     22  H   UNL     1       0.017  -0.999   4.538  0.00  0.00    +0.142 HD
ATOM     23  H   UNL     1      -0.882  -1.389   5.903  0.00  0.00    +0.142 HD
ENDBRANCH  12  21
ENDBRANCH   2  11
BRANCH   1  24
ATOM     24  C   UNL     1       0.095   1.333   0.211  0.00  0.00    +0.197 C 
BRANCH  24  25
ATOM     25  C   UNL     1      -0.402   2.014  -1.038  0.00  0.00    -0.018 A 
ATOM     26  C   UNL     1      -1.111   3.197  -0.944  0.00  0.00    +0.009 A 
ATOM     27  C   UNL     1      -1.562   3.826  -2.088  0.00  0.00    +0.046 A 
ATOM     28  C   UNL     1      -1.313   3.264  -3.332  0.00  0.00    +0.120 A 
ATOM     29  C   UNL     1      -0.605   2.074  -3.423  0.00  0.00    +0.046 A 
ATOM     30  C   UNL     1      -0.151   1.452  -2.277  0.00  0.00    +0.009 A 
BRANCH  28  31
ATOM     31  O   UNL     1      -1.761   3.878  -4.458  0.00  0.00    -0.495 OA
ATOM     32  C   UNL     1      -2.482   5.100  -4.288  0.00  0.00    +0.277 C 
ENDBRANCH  28  31
ENDBRANCH  24  25
BRANCH  24  33
ATOM     33  C   UNL     1       1.098   2.220   0.902  0.00  0.00    +0.239 C 
ATOM     34  O   UNL     1       0.891   2.603   2.034  0.00  0.00    -0.273 OA
ATOM     35  N   UNL     1       2.226   2.587   0.262  0.00  0.00    -0.311 N 
ATOM     36  H   UNL     1       2.392   2.281  -0.644  0.00  0.00    +0.149 HD
BRANCH  35  37
ATOM     37  C   UNL     1       3.202   3.449   0.933  0.00  0.00    +0.073 C 
ATOM     38  C   UNL     1       2.797   4.914   0.753  0.00  0.00    +0.022 C 
ATOM     39  C   UNL     1       3.816   5.814   1.455  0.00  0.00    +0.002 C 
ATOM     40  C   UNL     1       5.201   5.589   0.844  0.00  0.00    +0.000 C 
ATOM     41  C   UNL     1       5.606   4.125   1.024  0.00  0.00    +0.002 C 
ATOM     42  C   UNL     1       4.587   3.224   0.323  0.00  0.00    +0.022 C 
ENDBRANCH  35  37
ENDBRANCH  24  33
ENDBRANCH   1  24
TORSDOF 9
