REMARK  Name = ZINC12050577
REMARK  13 active torsions:
REMARK  status: ('A' for Active; 'I' for Inactive)
REMARK    1  A    between atoms: C_1  and  C_2
REMARK    2  A    between atoms: C_2  and  O_3
REMARK    3  A    between atoms: O_3  and  C_4
REMARK    4  A    between atoms: C_4  and  C_6
REMARK    5  A    between atoms: N_9  and  C_12
REMARK    6  A    between atoms: C_13  and  C_25
REMARK    7  A    between atoms: C_16  and  O_23
REMARK    8  A    between atoms: C_19  and  O_21
REMARK    9  A    between atoms: O_21  and  C_22
REMARK   10  A    between atoms: O_23  and  C_24
REMARK   11  A    between atoms: C_25  and  N_64
REMARK   12  A    between atoms: C_26  and  C_27
REMARK   13  A    between atoms: C_26  and  N_64
REMARK                            x       y       z     vdW  Elec       q    Type
REMARK                         _______ _______ _______ _____ _____    ______ ____
ROOT
ATOM      1  C   UNL     1      -3.959   2.145   4.403  0.00  0.00    +0.101 A 
ATOM      2  C   UNL     1      -2.754   2.861   4.403  0.00  0.00    -0.026 A 
ATOM      3  C   UNL     1      -1.778   2.546   3.505  0.00  0.00    +0.018 A 
ATOM      4  C   UNL     1      -2.018   1.497   2.597  0.00  0.00    +0.044 A 
ATOM      5  C   UNL     1      -1.052   1.120   1.644  0.00  0.00    +0.129 A 
ATOM      6  C   UNL     1      -1.327   0.092   0.770  0.00  0.00    +0.050 A 
ATOM      7  C   UNL     1      -2.543  -0.582   0.826  0.00  0.00    +0.051 A 
ATOM      8  C   UNL     1      -3.498  -0.238   1.739  0.00  0.00    +0.144 A 
ATOM      9  C   UNL     1      -3.256   0.811   2.647  0.00  0.00    +0.093 A 
ATOM     10  N   UNL     1      -4.245   1.127   3.553  0.00  0.00    -0.340 N 
ATOM     11  H   UNL     1      -5.140   0.625   3.583  0.00  0.00    +0.167 HD
ENDROOT
BRANCH   1  15
ATOM     12  C   UNL     1      -7.523   2.327   6.612  0.00  0.00    +0.101 C 
ATOM     13  C   UNL     1      -7.143   3.490   5.692  0.00  0.00    +0.033 C 
ATOM     14  C   UNL     1      -6.138   3.001   4.647  0.00  0.00    +0.107 C 
ATOM     15  N   UNL     1      -4.944   2.477   5.322  0.00  0.00    -0.316 N 
ATOM     16  C   UNL     1      -5.277   1.328   6.174  0.00  0.00    +0.107 C 
ATOM     17  C   UNL     1      -6.256   1.768   7.265  0.00  0.00    +0.033 C 
BRANCH  12  18
ATOM     18  C   UNL     1      -8.468   2.816   7.679  0.00  0.00    +0.310 C 
ATOM     19  O   UNL     1      -8.804   3.977   7.703  0.00  0.00    -0.251 OA
BRANCH  18  20
ATOM     20  O   UNL     1      -8.936   1.963   8.604  0.00  0.00    -0.465 OA
BRANCH  20  22
ATOM     21  C   UNL     1     -10.267   1.391  10.561  0.00  0.00    +0.048 C 
ATOM     22  C   UNL     1      -9.842   2.504   9.601  0.00  0.00    +0.229 C 
ENDBRANCH  20  22
ENDBRANCH  18  20
ENDBRANCH  12  18
ENDBRANCH   1  15
BRANCH   8  23
ATOM     23  O   UNL     1      -4.681  -0.908   1.773  0.00  0.00    -0.493 OA
ATOM     24  C   UNL     1      -4.857  -1.961   0.823  0.00  0.00    +0.277 C 
ENDBRANCH   8  23
BRANCH   5  25
ATOM     25  O   UNL     1       0.140   1.769   1.585  0.00  0.00    -0.494 OA
ATOM     26  C   UNL     1       1.069   1.330   0.592  0.00  0.00    +0.277 C 
ENDBRANCH   5  25
BRANCH   2  27
ATOM     27  C   UNL     1      -2.538   3.977   5.392  0.00  0.00    -0.043 C 
BRANCH  27  28
ATOM     28  N   UNL     1      -2.206   3.399   6.708  0.00  0.00    +0.385 N 
ATOM     29  H   UNL     1      -1.397   2.774   6.609  0.00  0.00    -0.085 HD
ATOM     30  H   UNL     1      -3.010   2.865   7.056  0.00  0.00    -0.085 HD
BRANCH  28  31
ATOM     31  C   UNL     1      -1.879   4.469   7.670  0.00  0.00    -0.039 C 
BRANCH  31  32
ATOM     32  C   UNL     1      -1.544   3.849   9.002  0.00  0.00    -0.027 A 
ATOM     33  C   UNL     1      -0.342   3.437   9.474  0.00  0.00    +0.009 A 
ATOM     34  C   UNL     1      -0.271   2.895  10.743  0.00  0.00    +0.008 A 
ATOM     35  C   UNL     1      -1.406   2.783  11.475  0.00  0.00    +0.045 A 
ATOM     36  S   UNL     1      -2.629   3.462  10.366  0.00  0.00    -0.104 S 
ENDBRANCH  31  32
ENDBRANCH  28  31
ENDBRANCH  27  28
ENDBRANCH   2  27
TORSDOF 10
