REMARK  Name = ZINC38511337
REMARK  7 active torsions:
REMARK  status: ('A' for Active; 'I' for Inactive)
REMARK    1  A    between atoms: C_1  and  C_2
REMARK    2  A    between atoms: N_5  and  S_11
REMARK    3  A    between atoms: C_7  and  C_10
REMARK    4  A    between atoms: S_11  and  C_14
REMARK    5  A    between atoms: C_17  and  C_20
REMARK    6  A    between atoms: N_22  and  C_23
REMARK    7  A    between atoms: N_35  and  C_38
REMARK                            x       y       z     vdW  Elec       q    Type
REMARK                         _______ _______ _______ _____ _____    ______ ____
ROOT
ATOM      1  C   UNL     1       1.559  -4.292  -5.322  0.00  0.00    +0.248 C 
ATOM      2  O   UNL     1       1.693  -3.527  -6.258  0.00  0.00    -0.270 OA
ATOM      3  N   UNL     1       2.239  -5.455  -5.299  0.00  0.00    -0.281 N 
ATOM      4  H   UNL     1       2.191  -6.029  -4.519  0.00  0.00    +0.155 HD
ENDROOT
BRANCH   3   5
ATOM      5  C   UNL     1       3.014  -5.835  -6.402  0.00  0.00    +0.035 A 
ATOM      6  C   UNL     1       4.181  -6.573  -6.223  0.00  0.00    +0.025 A 
ATOM      7  C   UNL     1       4.952  -6.954  -7.277  0.00  0.00    +0.031 A 
ATOM      8  C   UNL     1       4.592  -6.612  -8.601  0.00  0.00    +0.080 A 
ATOM      9  C   UNL     1       3.403  -5.864  -8.754  0.00  0.00    +0.043 A 
ATOM     10  C   UNL     1       2.624  -5.486  -7.689  0.00  0.00    +0.040 A 
ATOM     11  S   UNL     1       3.313  -5.650 -10.515  0.00  0.00    -0.052 S 
ATOM     12  C   UNL     1       4.809  -6.537 -10.926  0.00  0.00    +0.162 A 
ATOM     13  N   UNL     1       5.246  -6.913  -9.746  0.00  0.00    -0.225 NA
ATOM     14  N   UNL     1       5.365  -6.769 -12.169  0.00  0.00    -0.313 N 
ATOM     15  C   UNL     1       4.725  -6.257 -13.391  0.00  0.00    +0.088 C 
ATOM     16  C   UNL     1       5.781  -5.515 -14.217  0.00  0.00    -0.060 C 
ATOM     17  N   UNL     1       6.926  -6.402 -14.458  0.00  0.00    +0.380 N 
ATOM     18  C   UNL     1       7.580  -6.732 -13.185  0.00  0.00    -0.060 C 
ATOM     19  C   UNL     1       6.616  -7.530 -12.308  0.00  0.00    +0.088 C 
ATOM     20  C   UNL     1       7.887  -5.729 -15.341  0.00  0.00    -0.096 C 
ATOM     21  H   UNL     1       6.604  -7.251 -14.899  0.00  0.00    -0.082 HD
ENDBRANCH   3   5
BRANCH   1  25
ATOM     22  C   UNL     1      -1.055  -3.296  -2.126  0.00  0.00    +0.106 A 
ATOM     23  C   UNL     1      -0.904  -2.423  -3.189  0.00  0.00    +0.029 A 
ATOM     24  C   UNL     1      -0.056  -2.741  -4.230  0.00  0.00    +0.015 A 
ATOM     25  C   UNL     1       0.649  -3.945  -4.210  0.00  0.00    +0.037 A 
ATOM     26  C   UNL     1       0.492  -4.821  -3.134  0.00  0.00    +0.015 A 
ATOM     27  C   UNL     1      -0.355  -4.489  -2.097  0.00  0.00    +0.029 A 
BRANCH  22  28
ATOM     28  S   UNL     1      -2.139  -2.882  -0.800  0.00  0.00    +0.061 S 
ATOM     29  O   UNL     1      -2.517  -4.108  -0.187  0.00  0.00    -0.153 OA
ATOM     30  O   UNL     1      -3.091  -1.967  -1.324  0.00  0.00    -0.153 OA
BRANCH  28  34
ATOM     31  C   UNL     1       0.496   1.305   0.470  0.00  0.00    +0.039 C 
ATOM     32  C   UNL     1       0.354  -0.213   0.339  0.00  0.00    +0.131 C 
ATOM     33  C   UNL     1      -1.131  -0.584   0.256  0.00  0.00    +0.140 C 
ATOM     34  N   UNL     1      -1.248  -2.049   0.320  0.00  0.00    -0.172 NA
ATOM     35  C   UNL     1      -0.549  -2.752   1.408  0.00  0.00    +0.140 C 
ATOM     36  C   UNL     1       0.907  -2.276   1.434  0.00  0.00    +0.131 C 
ATOM     37  O   UNL     1       0.936  -0.847   1.481  0.00  0.00    -0.371 OA
ATOM     38  C   UNL     1       1.608  -2.842   2.671  0.00  0.00    +0.039 C 
ENDBRANCH  28  34
ENDBRANCH  22  28
ENDBRANCH   1  25
TORSDOF 4
