REMARK  Name = ZINC37969472
REMARK  5 active torsions:
REMARK  status: ('A' for Active; 'I' for Inactive)
REMARK    1  A    between atoms: C_1  and  C_2
REMARK    2  A    between atoms: C_2  and  C_3
REMARK    3  A    between atoms: C_2  and  C_10
REMARK    4  A    between atoms: C_2  and  N_13
REMARK    5  A    between atoms: N_13  and  C_14
REMARK                            x       y       z     vdW  Elec       q    Type
REMARK                         _______ _______ _______ _____ _____    ______ ____
ROOT
ATOM      1  C   UNL     1      -0.340   1.784  -0.027  0.00  0.00    +0.004 C 
ATOM      2  C   UNL     1      -0.247   0.259   0.065  0.00  0.00    +0.033 C 
ENDROOT
BRANCH   2   3
ATOM      3  C   UNL     1       0.381  -0.127   1.379  0.00  0.00    -0.049 A 
ATOM      4  C   UNL     1      -0.317  -0.917   2.274  0.00  0.00    +0.003 A 
ATOM      5  C   UNL     1       0.259  -1.272   3.479  0.00  0.00    +0.001 A 
ATOM      6  C   UNL     1       1.534  -0.836   3.791  0.00  0.00    +0.015 A 
ATOM      7  C   UNL     1       2.232  -0.045   2.897  0.00  0.00    +0.018 A 
ATOM      8  C   UNL     1       1.657   0.305   1.688  0.00  0.00    +0.018 A 
ATOM      9 BR   UNL     1       3.975   0.551   3.323  0.00  0.00    -0.050 Br
ENDBRANCH   2   3
BRANCH   2  10
ATOM     10  C   UNL     1       0.597  -0.263  -1.068  0.00  0.00    +0.204 C 
ATOM     11  O   UNL     1       1.298   0.498  -1.702  0.00  0.00    -0.277 OA
ATOM     12  N   UNL     1       0.574  -1.574  -1.378  0.00  0.00    -0.330 N 
ATOM     13  H   UNL     1      -0.037  -2.170  -0.917  0.00  0.00    +0.145 HD
ATOM     14  H   UNL     1       1.168  -1.922  -2.062  0.00  0.00    +0.145 HD
ENDBRANCH   2  10
BRANCH   2  15
ATOM     15  N   UNL     1      -1.595  -0.319  -0.021  0.00  0.00    +0.393 N 
ATOM     16  H   UNL     1      -1.527  -1.325  -0.073  0.00  0.00    -0.084 HD
ATOM     17  H   UNL     1      -2.126  -0.060   0.796  0.00  0.00    -0.084 HD
BRANCH  15  18
ATOM     18  C   UNL     1      -2.269   0.189  -1.224  0.00  0.00    -0.070 C 
ATOM     19  C   UNL     1      -1.667  -0.457  -2.497  0.00  0.00    -0.016 C 
ATOM     20  C   UNL     1      -2.815  -0.317  -3.527  0.00  0.00    -0.002 C 
ATOM     21  C   UNL     1      -4.095  -0.573  -2.704  0.00  0.00    -0.002 C 
ATOM     22  C   UNL     1      -3.748  -0.251  -1.240  0.00  0.00    -0.016 C 
ENDBRANCH  15  18
ENDBRANCH   2  15
TORSDOF 4
