REMARK  Name = ZINC35361890
REMARK  5 active torsions:
REMARK  status: ('A' for Active; 'I' for Inactive)
REMARK    1  A    between atoms: C_1  and  O_2
REMARK    2  A    between atoms: O_2  and  C_3
REMARK    3  A    between atoms: C_6  and  C_9
REMARK    4  A    between atoms: N_10  and  N_11
REMARK    5  A    between atoms: C_12  and  C_31
REMARK                            x       y       z     vdW  Elec       q    Type
REMARK                         _______ _______ _______ _____ _____    ______ ____
ROOT
ATOM      1  N   UNL     1       3.271  -4.466   5.413  0.00  0.00    -0.170 N 
ATOM      2  C   UNL     1       3.414  -5.930   5.586  0.00  0.00    +0.202 C 
ATOM      3  N   UNL     1       3.602  -6.092   7.040  0.00  0.00    -0.262 NA
ATOM      4  C   UNL     1       4.297  -7.311   7.453  0.00  0.00    +0.140 C 
ATOM      5  C   UNL     1       4.641  -7.131   8.919  0.00  0.00    +0.035 A 
ATOM      6  C   UNL     1       4.649  -5.926   9.537  0.00  0.00    -0.016 A 
ATOM      7  C   UNL     1       5.005  -6.155  10.918  0.00  0.00    +0.003 A 
ATOM      8  C   UNL     1       5.161  -5.302  12.015  0.00  0.00    +0.010 A 
ATOM      9  C   UNL     1       5.514  -5.882  13.208  0.00  0.00    +0.001 A 
ATOM     10  C   UNL     1       5.709  -7.248  13.334  0.00  0.00    +0.002 A 
ATOM     11  C   UNL     1       5.563  -8.116  12.265  0.00  0.00    +0.026 A 
ATOM     12  C   UNL     1       5.204  -7.555  11.041  0.00  0.00    +0.047 A 
ATOM     13  N   UNL     1       4.979  -8.109   9.813  0.00  0.00    -0.357 N 
ATOM     14  H   UNL     1       5.049  -9.054   9.605  0.00  0.00    +0.166 HD
ATOM     15  C   UNL     1       4.348  -4.619   8.831  0.00  0.00    +0.066 C 
ATOM     16  C   UNL     1       4.466  -4.910   7.336  0.00  0.00    +0.151 C 
ATOM     17  C   UNL     1       3.873  -3.839   6.459  0.00  0.00    +0.254 C 
ATOM     18  O   UNL     1       3.922  -2.642   6.651  0.00  0.00    -0.272 OA
ENDROOT
BRANCH   2  19
ATOM     19  C   UNL     1       2.169  -6.642   5.126  0.00  0.00    -0.011 A 
ATOM     20  C   UNL     1       0.973  -6.440   5.789  0.00  0.00    +0.008 A 
ATOM     21  C   UNL     1      -0.171  -7.093   5.368  0.00  0.00    +0.015 A 
ATOM     22  C   UNL     1      -0.118  -7.949   4.283  0.00  0.00    +0.018 A 
ATOM     23  C   UNL     1       1.079  -8.151   3.619  0.00  0.00    +0.015 A 
ATOM     24  C   UNL     1       2.221  -7.493   4.038  0.00  0.00    +0.008 A 
ATOM     25 BR   UNL     1      -1.681  -8.842   3.706  0.00  0.00    -0.050 Br
ENDBRANCH   2  19
BRANCH   1  27
ATOM     26  C   UNL     1       2.569  -2.535   4.298  0.00  0.00    +0.138 C 
ATOM     27  N   UNL     1       2.626  -3.831   4.343  0.00  0.00    -0.183 NA
BRANCH  26  31
ATOM     28  C   UNL     1       0.615  -0.610   1.057  0.00  0.00    +0.120 A 
ATOM     29  C   UNL     1       1.192   0.149   2.067  0.00  0.00    +0.046 A 
ATOM     30  C   UNL     1       1.827  -0.471   3.121  0.00  0.00    +0.013 A 
ATOM     31  C   UNL     1       1.890  -1.866   3.173  0.00  0.00    -0.005 A 
ATOM     32  C   UNL     1       1.308  -2.626   2.154  0.00  0.00    +0.013 A 
ATOM     33  C   UNL     1       0.671  -1.997   1.107  0.00  0.00    +0.046 A 
BRANCH  28  35
ATOM     34  C   UNL     1      -0.031   1.435   0.032  0.00  0.00    +0.277 C 
ATOM     35  O   UNL     1      -0.010   0.006   0.020  0.00  0.00    -0.495 OA
ENDBRANCH  28  35
ENDBRANCH  26  31
ENDBRANCH   1  27
TORSDOF 4
