REMARK  Name = ZINC32927305
REMARK  12 active torsions:
REMARK  status: ('A' for Active; 'I' for Inactive)
REMARK    1  A    between atoms: C_1  and  C_2
REMARK    2  A    between atoms: C_2  and  O_3
REMARK    3  A    between atoms: O_3  and  C_4
REMARK    4  A    between atoms: C_4  and  C_6
REMARK    5  A    between atoms: C_10  and  N_11
REMARK    6  A    between atoms: C_12  and  C_14
REMARK    7  A    between atoms: C_14  and  C_16
REMARK    8  A    between atoms: C_14  and  N_17
REMARK    9  A    between atoms: N_17  and  C_18
REMARK   10  A    between atoms: C_18  and  C_19
REMARK   11  A    between atoms: N_21  and  C_22
REMARK   12  A    between atoms: C_31  and  C_35
REMARK                            x       y       z     vdW  Elec       q    Type
REMARK                         _______ _______ _______ _____ _____    ______ ____
ROOT
ATOM      1  N   UNL     1      -1.281  -2.321  -2.485  0.00  0.00    -0.281 N 
ATOM      2  C   UNL     1      -1.323  -3.176  -3.527  0.00  0.00    +0.203 C 
ATOM      3  O   UNL     1      -1.367  -4.371  -3.329  0.00  0.00    -0.277 OA
ATOM      4  H   UNL     1      -1.241  -1.237  -2.665  0.00  0.00    +0.155 HD
ENDROOT
BRANCH   1   9
ATOM      5  C   UNL     1      -1.248  -2.096   0.003  0.00  0.00    +0.091 A 
ATOM      6  C   UNL     1      -1.260  -2.856   1.241  0.00  0.00    -0.021 A 
ATOM      7  C   UNL     1      -1.319  -4.197   1.093  0.00  0.00    -0.004 A 
ATOM      8  S   UNL     1      -1.345  -4.458  -0.658  0.00  0.00    -0.077 S 
ATOM      9  C   UNL     1      -1.287  -2.809  -1.188  0.00  0.00    +0.086 A 
ATOM     10  C   UNL     1      -1.349  -5.226   2.180  0.00  0.00    +0.046 C 
ATOM     11  C   UNL     1      -1.673  -4.523   3.504  0.00  0.00    -0.009 C 
ATOM     12  C   UNL     1      -0.786  -3.283   3.640  0.00  0.00    +0.008 C 
ATOM     13  C   UNL     1      -1.215  -2.221   2.626  0.00  0.00    +0.037 C 
ATOM     14  C   UNL     1      -1.407  -5.475   4.672  0.00  0.00    +0.008 C 
BRANCH   5  15
ATOM     15  C   UNL     1      -1.191  -0.633   0.010  0.00  0.00    +0.342 C 
ATOM     16  O   UNL     1      -2.220   0.016   0.023  0.00  0.00    -0.245 OA
BRANCH  15  17
ATOM     17  O   UNL     1       0.002  -0.004   0.002  0.00  0.00    -0.461 OA
BRANCH  17  19
ATOM     18  C   UNL     1       1.418   1.977  -0.001  0.00  0.00    +0.048 C 
ATOM     19  C   UNL     1      -0.018   1.448   0.010  0.00  0.00    +0.229 C 
ENDBRANCH  17  19
ENDBRANCH  15  17
ENDBRANCH   5  15
ENDBRANCH   1   9
BRANCH   2  20
ATOM     20  C   UNL     1      -1.317  -2.645  -4.937  0.00  0.00    +0.014 C 
ATOM     21  C   UNL     1      -2.535  -1.743  -5.149  0.00  0.00    -0.004 C 
BRANCH  20  22
ATOM     22  N   UNL     1      -1.369  -3.768  -5.883  0.00  0.00    +0.392 N 
ATOM     23  H   UNL     1      -0.802  -4.617  -5.475  0.00  0.00    -0.084 HD
ATOM     24  H   UNL     1      -2.416  -4.067  -6.040  0.00  0.00    -0.084 HD
BRANCH  22  25
ATOM     25  C   UNL     1      -0.787  -3.392  -7.179  0.00  0.00    +0.016 C 
BRANCH  25  26
ATOM     26  C   UNL     1      -0.858  -4.566  -8.121  0.00  0.00    +0.196 C 
ATOM     27  O   UNL     1      -1.345  -5.613  -7.749  0.00  0.00    -0.278 OA
ATOM     28  N   UNL     1      -0.380  -4.453  -9.376  0.00  0.00    -0.312 N 
ATOM     29  H   UNL     1       0.062  -3.503  -9.713  0.00  0.00    +0.149 HD
BRANCH  28  30
ATOM     30  C   UNL     1      -0.449  -5.594 -10.291  0.00  0.00    +0.095 C 
ATOM     31  C   UNL     1      -1.822  -5.611 -10.984  0.00  0.00    +0.046 C 
ATOM     32  C   UNL     1      -1.758  -6.625 -12.161  0.00  0.00    +0.168 C 
ATOM     33  S   UNL     1      -0.083  -6.256 -12.832  0.00  0.00    -0.029 S 
ATOM     34  O   UNL     1      -0.200  -5.283 -13.861  0.00  0.00    -0.174 OA
ATOM     35  O   UNL     1       0.588  -7.481 -13.100  0.00  0.00    -0.174 OA
ATOM     36  C   UNL     1       0.673  -5.472 -11.350  0.00  0.00    +0.188 C 
ENDBRANCH  28  30
ENDBRANCH  25  26
ENDBRANCH  22  25
ENDBRANCH  20  22
ENDBRANCH   2  20
TORSDOF 9
