REMARK  Name = ZINC08684792
REMARK  6 active torsions:
REMARK  status: ('A' for Active; 'I' for Inactive)
REMARK    1  A    between atoms: C_1  and  C_2
REMARK    2  A    between atoms: C_4  and  C_38
REMARK    3  A    between atoms: C_9  and  C_27
REMARK    4  A    between atoms: C_11  and  C_18
REMARK    5  A    between atoms: C_22  and  N_24
REMARK    6  A    between atoms: C_27  and  C_29
REMARK                            x       y       z     vdW  Elec       q    Type
REMARK                         _______ _______ _______ _____ _____    ______ ____
ROOT
ATOM      1  C   UNL     1       1.788  -1.695   0.293  0.00  0.00    +0.044 C 
ATOM      2  C   UNL     1       2.941  -0.833   0.740  0.00  0.00    -0.050 A 
ATOM      3  C   UNL     1       3.982  -1.388   1.461  0.00  0.00    +0.008 A 
ATOM      4  C   UNL     1       5.040  -0.604   1.873  0.00  0.00    -0.029 A 
ATOM      5  C   UNL     1       5.066   0.755   1.566  0.00  0.00    +0.039 A 
ATOM      6  C   UNL     1       4.013   1.302   0.839  0.00  0.00    -0.027 A 
ATOM      7  C   UNL     1       2.959   0.515   0.430  0.00  0.00    +0.008 A 
ATOM      8  C   UNL     1       4.339   2.760   0.676  0.00  0.00    +0.052 C 
ATOM      9  C   UNL     1       3.251   3.652   1.290  0.00  0.00    +0.069 C 
ATOM     10  C   UNL     1       2.306   3.960   0.108  0.00  0.00    +0.016 C 
ATOM     11  C   UNL     1       3.093   3.581  -1.151  0.00  0.00    -0.047 C 
ATOM     12  C   UNL     1       5.456   4.220  -0.870  0.00  0.00    -0.005 C 
ATOM     13  S   UNL     1       4.867   5.059  -2.405  0.00  0.00    -0.181 S 
ATOM     14  C   UNL     1       3.068   4.723  -2.179  0.00  0.00    +0.052 C 
ATOM     15  C   UNL     1       5.658   2.945   1.378  0.00  0.00    +0.212 C 
ATOM     16  O   UNL     1       6.282   3.979   1.484  0.00  0.00    -0.277 OA
ATOM     17  N   UNL     1       6.009   1.740   1.866  0.00  0.00    -0.286 N 
ATOM     18  C   UNL     1       6.169  -1.218   2.659  0.00  0.00    +0.045 C 
ATOM     19  H   UNL     1       6.823   1.575   2.367  0.00  0.00    +0.155 HD
ATOM     20  N   UNL     1       4.428   3.129  -0.722  0.00  0.00    +0.401 N 
ATOM     21  H   UNL     1       4.712   2.317  -1.284  0.00  0.00    -0.078 HD
ENDROOT
BRANCH  10  22
ATOM     22  C   UNL     1       1.053   3.128   0.211  0.00  0.00    -0.043 A 
ATOM     23  C   UNL     1       0.966   2.123   1.157  0.00  0.00    +0.004 A 
ATOM     24  C   UNL     1      -0.183   1.361   1.252  0.00  0.00    +0.002 A 
ATOM     25  C   UNL     1      -1.243   1.599   0.398  0.00  0.00    +0.033 A 
ATOM     26  C   UNL     1      -1.158   2.607  -0.545  0.00  0.00    +0.126 A 
ATOM     27  C   UNL     1      -0.009   3.370  -0.639  0.00  0.00    +0.036 A 
BRANCH  26  28
ATOM     28  N   UNL     1      -2.295   2.865  -1.457  0.00  0.00    +0.056 N 
ATOM     29  O   UNL     1      -2.219   3.750  -2.290  0.00  0.00    -0.126 OA
ATOM     30  O   UNL     1      -3.307   2.193  -1.374  0.00  0.00    -0.126 OA
ENDBRANCH  26  28
ENDBRANCH  10  22
BRANCH   9  31
ATOM     31  C   UNL     1       3.853   4.924   1.829  0.00  0.00    +0.166 C 
ATOM     32  O   UNL     1       3.992   5.885   1.102  0.00  0.00    -0.292 OA
BRANCH  31  33
ATOM     33  C   UNL     1       4.272   5.001   3.238  0.00  0.00    +0.018 A 
ATOM     34  C   UNL     1       4.108   3.897   4.081  0.00  0.00    +0.011 A 
ATOM     35  C   UNL     1       4.506   3.975   5.399  0.00  0.00    +0.001 A 
ATOM     36  C   UNL     1       5.059   5.145   5.890  0.00  0.00    +0.000 A 
ATOM     37  C   UNL     1       5.220   6.244   5.063  0.00  0.00    +0.001 A 
ATOM     38  C   UNL     1       4.830   6.179   3.742  0.00  0.00    +0.011 A 
ENDBRANCH  31  33
ENDBRANCH   9  31
TORSDOF 4
