REMARK  Name = ZINC48915204
REMARK  7 active torsions:
REMARK  status: ('A' for Active; 'I' for Inactive)
REMARK    1  A    between atoms: C_1  and  C_2
REMARK    2  A    between atoms: C_2  and  C_3
REMARK    3  A    between atoms: C_7  and  C_23
REMARK    4  A    between atoms: C_12  and  C_19
REMARK    5  A    between atoms: C_13  and  C_18
REMARK    6  A    between atoms: C_14  and  C_17
REMARK    7  A    between atoms: N_20  and  O_21
REMARK                            x       y       z     vdW  Elec       q    Type
REMARK                         _______ _______ _______ _____ _____    ______ ____
ROOT
ATOM      1  C   UNL     1      -1.425  -0.860  -0.194  0.00  0.00    +0.100 C 
ATOM      2  C   UNL     1      -1.496  -2.390  -0.166  0.00  0.00    +0.182 C 
ATOM      3  O   UNL     1      -2.856  -2.802  -0.322  0.00  0.00    -0.373 OA
ATOM      4  C   UNL     1      -3.443  -2.422  -1.569  0.00  0.00    +0.132 C 
ATOM      5  C   UNL     1      -3.472  -0.893  -1.669  0.00  0.00    +0.138 C 
ATOM      6  N   UNL     1      -2.117  -0.384  -1.402  0.00  0.00    -0.306 N 
ATOM      7  C   UNL     1      -1.511   0.516  -2.265  0.00  0.00    +0.153 A 
ATOM      8  C   UNL     1      -1.736   1.897  -2.122  0.00  0.00    +0.064 A 
ATOM      9  C   UNL     1      -1.097   2.756  -3.022  0.00  0.00    -0.016 A 
ATOM     10  C   UNL     1      -0.285   2.191  -3.992  0.00  0.00    +0.035 A 
ATOM     11  N   UNL     1      -0.134   0.882  -4.048  0.00  0.00    -0.280 N 
ATOM     12  N   UNL     1      -0.709   0.083  -3.226  0.00  0.00    -0.158 NA
ATOM     13  C   UNL     1       0.426   3.073  -4.985  0.00  0.00    +0.065 C 
ATOM     14  C   UNL     1      -1.285   4.249  -2.939  0.00  0.00    +0.046 C 
ATOM     15  C   UNL     1      -4.871  -2.968  -1.649  0.00  0.00    +0.039 C 
ATOM     16  H   UNL     1       0.440   0.509  -4.736  0.00  0.00    +0.189 HD
ENDROOT
BRANCH   8  17
ATOM     17  C   UNL     1      -2.620   2.423  -1.058  0.00  0.00    +0.166 C 
ATOM     18  N   UNL     1      -2.134   2.685   0.120  0.00  0.00    -0.071 NA
ATOM     19  N   UNL     1      -3.964   2.636  -1.316  0.00  0.00    -0.340 N 
ATOM     20  H   UNL     1      -4.326   2.440  -2.194  0.00  0.00    +0.144 HD
ATOM     21  H   UNL     1      -4.543   2.980  -0.618  0.00  0.00    +0.144 HD
BRANCH  18  22
ATOM     22  O   UNL     1      -2.979   3.188   1.139  0.00  0.00    -0.408 OA
ATOM     23  H   UNL     1      -2.529   3.353   1.978  0.00  0.00    +0.328 HD
ENDBRANCH  18  22
ENDBRANCH   8  17
BRANCH   1  25
ATOM     24  C   UNL     1       0.718  -0.794   1.088  0.00  0.00    +0.006 C 
ATOM     25  C   UNL     1       0.037  -0.412  -0.228  0.00  0.00    +0.021 C 
ENDBRANCH   1  25
TORSDOF 3
