REMARK  Name = ZINC15548536
REMARK  13 active torsions:
REMARK  status: ('A' for Active; 'I' for Inactive)
REMARK    1  A    between atoms: C_1  and  C_2
REMARK    2  A    between atoms: C_2  and  C_3
REMARK    3  A    between atoms: C_3  and  C_4
REMARK    4  A    between atoms: C_4  and  N_5
REMARK    5  A    between atoms: C_6  and  N_37
REMARK    6  A    between atoms: C_7  and  N_14
REMARK    7  A    between atoms: N_14  and  C_15
REMARK    8  A    between atoms: C_20  and  C_22
REMARK    9  A    between atoms: C_22  and  N_75
REMARK   10  A    between atoms: C_26  and  C_28
REMARK   11  A    between atoms: C_31  and  O_34
REMARK   12  A    between atoms: O_34  and  C_35
REMARK   13  A    between atoms: C_35  and  C_36
REMARK                            x       y       z     vdW  Elec       q    Type
REMARK                         _______ _______ _______ _____ _____    ______ ____
ROOT
ATOM      1  N   UNL     1      -0.139   1.174   2.525  0.00  0.00    -0.263 N 
ATOM      2  C   UNL     1      -0.512   1.710   1.344  0.00  0.00    +0.204 C 
ATOM      3  O   UNL     1       0.031   1.356   0.319  0.00  0.00    -0.277 OA
ENDROOT
BRANCH   1   6
ATOM      4  N   UNL     1      -0.916   2.576   5.831  0.00  0.00    -0.280 N 
ATOM      5  C   UNL     1      -0.212   2.252   4.695  0.00  0.00    +0.127 A 
ATOM      6  C   UNL     1      -0.833   1.517   3.705  0.00  0.00    +0.140 A 
ATOM      7  C   UNL     1      -2.166   1.110   3.896  0.00  0.00    +0.277 A 
ATOM      8  O   UNL     1      -2.737   0.455   3.039  0.00  0.00    -0.266 OA
ATOM      9  N   UNL     1      -2.809   1.449   5.030  0.00  0.00    -0.273 N 
ATOM     10  H   UNL     1      -3.756   1.160   5.167  0.00  0.00    +0.173 HD
ATOM     11  C   UNL     1      -2.190   2.171   5.982  0.00  0.00    +0.331 A 
ATOM     12  O   UNL     1      -2.794   2.463   6.996  0.00  0.00    -0.246 OA
BRANCH   5  13
ATOM     13  N   UNL     1       1.091   2.660   4.544  0.00  0.00    -0.343 N 
ATOM     14  H   UNL     1       1.539   2.549   3.691  0.00  0.00    +0.144 HD
ATOM     15  H   UNL     1       1.563   3.060   5.291  0.00  0.00    +0.144 HD
ENDBRANCH   5  13
BRANCH   4  16
ATOM     16  C   UNL     1      -0.273   3.362   6.887  0.00  0.00    +0.128 C 
BRANCH  16  17
ATOM     17  C   UNL     1       0.412   2.419   7.879  0.00  0.00    +0.021 C 
BRANCH  17  19
ATOM     18  C   UNL     1       1.769   2.297   9.973  0.00  0.00    +0.004 C 
ATOM     19  C   UNL     1       1.084   3.240   8.981  0.00  0.00    -0.002 C 
ENDBRANCH  17  19
ENDBRANCH  16  17
ENDBRANCH   4  16
ENDBRANCH   1   6
BRANCH   1  20
ATOM     20  C   UNL     1       0.985   0.236   2.582  0.00  0.00    +0.082 C 
ATOM     21  C   UNL     1       2.251   0.894   1.995  0.00  0.00    +0.023 C 
ATOM     22  C   UNL     1       2.963  -0.259   1.244  0.00  0.00    +0.002 C 
ATOM     23  C   UNL     1       1.781  -1.048   0.627  0.00  0.00    +0.002 C 
ATOM     24  C   UNL     1       0.686  -0.998   1.712  0.00  0.00    +0.023 C 
ENDBRANCH   1  20
BRANCH   2  25
ATOM     25  C   UNL     1      -1.603   2.749   1.298  0.00  0.00    +0.020 C 
BRANCH  25  30
ATOM     26  C   UNL     1      -2.570   1.961  -0.782  0.00  0.00    -0.077 C 
ATOM     27  C   UNL     1      -3.910   2.492  -1.333  0.00  0.00    -0.020 C 
ATOM     28  C   UNL     1      -3.668   4.021  -1.426  0.00  0.00    -0.013 C 
ATOM     29  C   UNL     1      -2.776   4.273  -0.185  0.00  0.00    -0.037 C 
ATOM     30  N   UNL     1      -1.897   3.089  -0.118  0.00  0.00    +0.390 N 
ATOM     31  H   UNL     1      -1.016   3.292  -0.604  0.00  0.00    -0.080 HD
BRANCH  29  32
ATOM     32  C   UNL     1      -1.951   5.520  -0.376  0.00  0.00    -0.061 A 
ATOM     33  C   UNL     1      -0.848   5.496  -1.210  0.00  0.00    +0.005 A 
ATOM     34  C   UNL     1      -0.093   6.638  -1.391  0.00  0.00    +0.046 A 
ATOM     35  C   UNL     1      -0.435   7.807  -0.727  0.00  0.00    +0.121 A 
ATOM     36  C   UNL     1      -1.539   7.827   0.114  0.00  0.00    +0.046 A 
ATOM     37  C   UNL     1      -2.293   6.683   0.288  0.00  0.00    +0.005 A 
BRANCH  35  38
ATOM     38  O   UNL     1       0.309   8.931  -0.899  0.00  0.00    -0.492 OA
BRANCH  38  39
ATOM     39  C   UNL     1       1.431   8.838  -1.780  0.00  0.00    +0.225 C 
ATOM     40  C   UNL     1       2.141  10.191  -1.846  0.00  0.00    +0.048 C 
ENDBRANCH  38  39
ENDBRANCH  35  38
ENDBRANCH  29  32
ENDBRANCH  25  30
ENDBRANCH   2  25
TORSDOF 11
