REMARK  Name = ZINC63375865
REMARK  4 active torsions:
REMARK  status: ('A' for Active; 'I' for Inactive)
REMARK    1  A    between atoms: C_8  and  C_36
REMARK    2  A    between atoms: N_19  and  C_22
REMARK    3  A    between atoms: C_27  and  C_28
REMARK    4  A    between atoms: N_30  and  C_31
REMARK                            x       y       z     vdW  Elec       q    Type
REMARK                         _______ _______ _______ _____ _____    ______ ____
ROOT
ATOM      1  C   UNL     1      -0.016   1.355   0.009  0.00  0.00    +0.001 A 
ATOM      2  C   UNL     1       1.141   2.140   0.003  0.00  0.00    +0.002 A 
ATOM      3  C   UNL     1       2.404   1.645  -0.010  0.00  0.00    +0.026 A 
ATOM      4  C   UNL     1       2.553   0.228  -0.016  0.00  0.00    +0.043 A 
ATOM      5  N   UNL     1       3.625  -0.505  -0.043  0.00  0.00    -0.375 N 
ATOM      6  C   UNL     1       3.226  -1.914   0.024  0.00  0.00    +0.131 C 
ATOM      7  C   UNL     1       3.735  -2.692  -1.197  0.00  0.00    +0.135 C 
ATOM      8  N   UNL     1       2.903  -3.894  -1.330  0.00  0.00    -0.264 N 
ATOM      9  C   UNL     1       1.878  -4.328  -0.358  0.00  0.00    +0.169 C 
ATOM     10  C   UNL     1       0.894  -3.163  -0.152  0.00  0.00    +0.065 C 
ATOM     11  C   UNL     1       1.704  -1.910  -0.032  0.00  0.00    -0.034 C 
ATOM     12  C   UNL     1       1.332  -0.634  -0.014  0.00  0.00    -0.001 A 
ATOM     13  C   UNL     1       0.002  -0.004   0.002  0.00  0.00    +0.010 A 
ATOM     14  C   UNL     1       1.199  -5.483  -1.063  0.00  0.00    +0.248 C 
ATOM     15  O   UNL     1       0.231  -6.105  -0.684  0.00  0.00    -0.273 OA
ATOM     16  N   UNL     1       1.896  -5.674  -2.203  0.00  0.00    -0.192 N 
ATOM     17  C   UNL     1       2.891  -4.785  -2.329  0.00  0.00    +0.317 C 
ATOM     18  O   UNL     1       3.690  -4.788  -3.245  0.00  0.00    -0.252 OA
ATOM     19  H   UNL     1       4.536  -0.176  -0.100  0.00  0.00    +0.160 HD
ENDROOT
BRANCH   7  20
ATOM     20  C   UNL     1       3.611  -1.842  -2.435  0.00  0.00    -0.025 A 
ATOM     21  C   UNL     1       2.388  -1.717  -3.067  0.00  0.00    +0.008 A 
ATOM     22  C   UNL     1       2.272  -0.937  -4.202  0.00  0.00    +0.038 A 
ATOM     23  C   UNL     1       3.382  -0.280  -4.706  0.00  0.00    +0.123 A 
ATOM     24  C   UNL     1       4.607  -0.406  -4.072  0.00  0.00    +0.038 A 
ATOM     25  C   UNL     1       4.719  -1.182  -2.934  0.00  0.00    +0.008 A 
ATOM     26  F   UNL     1       3.271   0.482  -5.816  0.00  0.00    -0.205 F 
ENDBRANCH   7  20
BRANCH  16  27
ATOM     27  C   UNL     1       1.616  -6.676  -3.135  0.00  0.00    +0.058 A 
ATOM     28  C   UNL     1       0.740  -6.428  -4.182  0.00  0.00    +0.025 A 
ATOM     29  C   UNL     1       0.464  -7.419  -5.102  0.00  0.00    +0.002 A 
ATOM     30  C   UNL     1       1.057  -8.666  -4.989  0.00  0.00    +0.001 A 
ATOM     31  C   UNL     1       1.930  -8.930  -3.955  0.00  0.00    +0.015 A 
ATOM     32  C   UNL     1       2.223  -7.934  -3.020  0.00  0.00    +0.059 A 
BRANCH  32  33
ATOM     33  C   UNL     1       3.161  -8.208  -1.915  0.00  0.00    +0.246 C 
ATOM     34  O   UNL     1       3.410  -7.341  -1.099  0.00  0.00    -0.270 OA
ATOM     35  N   UNL     1       3.742  -9.419  -1.808  0.00  0.00    -0.308 N 
ATOM     36  H   UNL     1       3.544 -10.111  -2.458  0.00  0.00    +0.149 HD
BRANCH  35  37
ATOM     37  C   UNL     1       4.674  -9.691  -0.711  0.00  0.00    +0.073 C 
ATOM     38  C   UNL     1       6.104  -9.282  -1.118  0.00  0.00    +0.022 C 
ATOM     39  C   UNL     1       7.007 -10.365  -0.476  0.00  0.00    +0.002 C 
ATOM     40  C   UNL     1       6.170 -11.656  -0.655  0.00  0.00    +0.002 C 
ATOM     41  C   UNL     1       4.716 -11.201  -0.416  0.00  0.00    +0.022 C 
ENDBRANCH  35  37
ENDBRANCH  32  33
ENDBRANCH  16  27
TORSDOF 4
