REMARK  Name = ZINC33752957
REMARK  15 active torsions:
REMARK  status: ('A' for Active; 'I' for Inactive)
REMARK    1  A    between atoms: C_1  and  C_2
REMARK    2  A    between atoms: C_9  and  C_20
REMARK    3  A    between atoms: C_10  and  N_11
REMARK    4  A    between atoms: N_11  and  C_12
REMARK    5  A    between atoms: C_12  and  C_13
REMARK    6  A    between atoms: C_12  and  C_14
REMARK    7  A    between atoms: C_12  and  C_15
REMARK    8  A    between atoms: C_15  and  C_16
REMARK    9  A    between atoms: C_16  and  C_17
REMARK   10  A    between atoms: C_16  and  C_18
REMARK   11  A    between atoms: C_16  and  C_19
REMARK   12  A    between atoms: C_24  and  O_26
REMARK   13  A    between atoms: O_26  and  S_27
REMARK   14  A    between atoms: S_27  and  C_30
REMARK   15  A    between atoms: C_31  and  C_32
REMARK                            x       y       z     vdW  Elec       q    Type
REMARK                         _______ _______ _______ _____ _____    ______ ____
ROOT
ATOM      1  C   UNL     1      -3.140   2.225  -1.785  0.00  0.00    +0.044 C 
ATOM      2  C   UNL     1      -1.683   2.474  -1.492  0.00  0.00    -0.046 A 
ATOM      3  C   UNL     1      -1.238   3.772  -1.184  0.00  0.00    +0.021 A 
ATOM      4  C   UNL     1       0.065   4.001  -0.926  0.00  0.00    +0.094 A 
ATOM      5  N   UNL     1       0.973   2.976  -0.955  0.00  0.00    -0.289 N 
ATOM      6  C   UNL     1       0.565   1.695  -1.249  0.00  0.00    +0.117 A 
ATOM      7  C   UNL     1      -0.797   1.444  -1.520  0.00  0.00    +0.048 A 
ATOM      8  N   UNL     1       1.621   0.898  -1.214  0.00  0.00    -0.338 N 
ATOM      9  C   UNL     1       2.712   1.622  -0.904  0.00  0.00    +0.087 A 
ATOM     10  C   UNL     1       2.322   2.934  -0.738  0.00  0.00    +0.129 A 
ATOM     11  H   UNL     1       1.507  -0.176  -1.422  0.00  0.00    +0.167 HD
ENDROOT
BRANCH   9  12
ATOM     12  C   UNL     1       4.092   1.101  -0.766  0.00  0.00    +0.005 A 
ATOM     13  C   UNL     1       5.178   1.880  -1.164  0.00  0.00    +0.010 A 
ATOM     14  C   UNL     1       6.463   1.394  -1.028  0.00  0.00    +0.004 A 
ATOM     15  C   UNL     1       6.677   0.131  -0.509  0.00  0.00    +0.048 A 
ATOM     16  C   UNL     1       5.601  -0.654  -0.116  0.00  0.00    +0.157 A 
ATOM     17  C   UNL     1       4.309  -0.173  -0.243  0.00  0.00    +0.058 A 
BRANCH  16  18
ATOM     18  O   UNL     1       5.817  -1.896   0.394  0.00  0.00    -0.343 OA
BRANCH  18  19
ATOM     19  S   UNL     1       5.840  -2.999  -0.654  0.00  0.00    +0.144 S 
ATOM     20  O   UNL     1       5.864  -4.231   0.054  0.00  0.00    -0.132 OA
ATOM     21  O   UNL     1       4.827  -2.683  -1.599  0.00  0.00    -0.132 OA
BRANCH  19  22
ATOM     22  C   UNL     1       7.378  -2.878  -1.505  0.00  0.00    +0.178 C 
ATOM     23  C   UNL     1       8.267  -3.857  -1.412  0.00  0.00    +0.030 C 
BRANCH  23  24
ATOM     24  C   UNL     1       9.557  -3.755  -2.125  0.00  0.00    -0.024 A 
ATOM     25  C   UNL     1       9.841  -2.632  -2.903  0.00  0.00    +0.008 A 
ATOM     26  C   UNL     1      11.050  -2.540  -3.562  0.00  0.00    +0.001 A 
ATOM     27  C   UNL     1      11.974  -3.564  -3.463  0.00  0.00    +0.000 A 
ATOM     28  C   UNL     1      11.697  -4.683  -2.698  0.00  0.00    +0.001 A 
ATOM     29  C   UNL     1      10.494  -4.784  -2.029  0.00  0.00    +0.008 A 
ENDBRANCH  23  24
ENDBRANCH  19  22
ENDBRANCH  18  19
ENDBRANCH  16  18
ENDBRANCH   9  12
BRANCH  10  30
ATOM     30  N   UNL     1       3.145   4.012  -0.410  0.00  0.00    -0.323 N 
ATOM     31  H   UNL     1       4.208   4.010  -0.128  0.00  0.00    +0.148 HD
BRANCH  30  32
ATOM     32  C   UNL     1       2.405   5.279  -0.479  0.00  0.00    +0.028 C 
ATOM     33  C   UNL     1       1.679   5.374  -1.822  0.00  0.00    +0.031 C 
ATOM     34  C   UNL     1       1.384   5.336   0.659  0.00  0.00    +0.031 C 
BRANCH  32  35
ATOM     35  C   UNL     1       3.383   6.448  -0.345  0.00  0.00    +0.031 C 
BRANCH  35  36
ATOM     36  C   UNL     1       2.600   7.758  -0.238  0.00  0.00    -0.036 C 
ATOM     37  C   UNL     1       1.989   7.874   1.160  0.00  0.00    +0.010 C 
ATOM     38  C   UNL     1       3.544   8.938  -0.481  0.00  0.00    +0.010 C 
ATOM     39  C   UNL     1       1.485   7.773  -1.285  0.00  0.00    +0.010 C 
ENDBRANCH  35  36
ENDBRANCH  32  35
ENDBRANCH  30  32
ENDBRANCH  10  30
TORSDOF 9
