REMARK  Name = ZINC21473002
REMARK  11 active torsions:
REMARK  status: ('A' for Active; 'I' for Inactive)
REMARK    1  A    between atoms: C_1  and  C_2
REMARK    2  A    between atoms: C_5  and  C_8
REMARK    3  A    between atoms: C_8  and  C_10
REMARK    4  A    between atoms: C_8  and  N_24
REMARK    5  A    between atoms: C_10  and  C_11
REMARK    6  A    between atoms: N_13  and  C_14
REMARK    7  A    between atoms: C_16  and  C_22
REMARK    8  A    between atoms: C_16  and  C_23
REMARK    9  A    between atoms: C_18  and  C_20
REMARK   10  A    between atoms: C_18  and  C_21
REMARK   11  A    between atoms: C_25  and  C_27
REMARK                            x       y       z     vdW  Elec       q    Type
REMARK                         _______ _______ _______ _____ _____    ______ ____
ROOT
ATOM      1  C   UNL     1       1.288   3.902  -4.539  0.00  0.00    +0.215 C 
ATOM      2  O   UNL     1       0.669   4.513  -3.693  0.00  0.00    -0.276 OA
ATOM      3  N   UNL     1       1.902   2.746  -4.221  0.00  0.00    -0.312 N 
ATOM      4  H   UNL     1       2.462   2.192  -4.989  0.00  0.00    +0.149 HD
ENDROOT
BRANCH   3   5
ATOM      5  C   UNL     1       1.823   2.225  -2.851  0.00  0.00    +0.070 C 
ATOM      6  C   UNL     1       3.031   1.326  -2.585  0.00  0.00    +0.009 C 
ATOM      7  C   UNL     1       2.967   0.777  -1.160  0.00  0.00    -0.072 C 
ATOM      8  N   UNL     1       1.688   0.164  -0.861  0.00  0.00    +0.386 N 
ATOM      9  C   UNL     1       0.461   0.797  -1.298  0.00  0.00    -0.072 C 
ATOM     10  C   UNL     1       0.555   1.382  -2.705  0.00  0.00    +0.009 C 
ATOM     11  C   UNL     1      -0.653  -0.274  -1.315  0.00  0.00    -0.010 C 
ATOM     12  C   UNL     1       0.021   1.891  -0.317  0.00  0.00    -0.010 C 
ATOM     13  C   UNL     1       3.302   1.889  -0.161  0.00  0.00    -0.010 C 
ATOM     14  C   UNL     1       4.062  -0.304  -1.028  0.00  0.00    -0.010 C 
ATOM     15  H   UNL     1       1.646  -0.837  -1.315  0.00  0.00    -0.084 HD
ATOM     16  H   UNL     1       1.568   0.078   0.229  0.00  0.00    -0.084 HD
ENDBRANCH   3   5
BRANCH   1  17
ATOM     17  C   UNL     1       1.369   4.437  -5.946  0.00  0.00    +0.122 C 
BRANCH  17  18
ATOM     18  C   UNL     1       0.593   5.752  -6.037  0.00  0.00    +0.112 C 
BRANCH  18  23
ATOM     19  C   UNL     1       1.294   8.040 -11.297  0.00  0.00    +0.044 C 
ATOM     20  C   UNL     1       1.111   7.444  -9.925  0.00  0.00    -0.050 A 
ATOM     21  C   UNL     1       1.841   7.930  -8.857  0.00  0.00    +0.004 A 
ATOM     22  C   UNL     1       1.673   7.382  -7.599  0.00  0.00    +0.006 A 
ATOM     23  C   UNL     1       0.775   6.349  -7.409  0.00  0.00    -0.027 A 
ATOM     24  C   UNL     1       0.049   5.860  -8.478  0.00  0.00    +0.006 A 
ATOM     25  C   UNL     1       0.212   6.410  -9.735  0.00  0.00    +0.004 A 
ENDBRANCH  18  23
BRANCH  18  26
ATOM     26  N   UNL     1      -0.831   5.497  -5.802  0.00  0.00    -0.308 N 
ATOM     27  C   UNL     1      -1.623   6.479  -5.330  0.00  0.00    +0.210 C 
ATOM     28  O   UNL     1      -1.179   7.599  -5.185  0.00  0.00    -0.276 OA
ATOM     29  C   UNL     1      -3.060   6.188  -4.981  0.00  0.00    +0.109 C 
ATOM     30  H   UNL     1      -1.253   4.502  -6.010  0.00  0.00    +0.149 HD
ENDBRANCH  18  26
ENDBRANCH  17  18
ENDBRANCH   1  17
TORSDOF 5
