REMARK  Name = ZINC63531085
REMARK  11 active torsions:
REMARK  status: ('A' for Active; 'I' for Inactive)
REMARK    1  A    between atoms: C_1  and  C_2
REMARK    2  A    between atoms: C_2  and  C_3
REMARK    3  A    between atoms: C_3  and  O_4
REMARK    4  A    between atoms: O_4  and  C_5
REMARK    5  A    between atoms: C_8  and  C_11
REMARK    6  A    between atoms: C_11  and  N_12
REMARK    7  A    between atoms: C_13  and  C_15
REMARK    8  A    between atoms: C_17  and  S_27
REMARK    9  A    between atoms: C_21  and  O_25
REMARK   10  A    between atoms: O_25  and  C_26
REMARK   11  A    between atoms: S_27  and  C_28
REMARK                            x       y       z     vdW  Elec       q    Type
REMARK                         _______ _______ _______ _____ _____    ______ ____
ROOT
ATOM      1  C   UNL     1       6.367  -5.233  -5.846  0.00  0.00    +0.204 C 
ATOM      2  C   UNL     1       6.840  -6.479  -5.129  0.00  0.00    +0.030 C 
ATOM      3  C   UNL     1       7.655  -7.148  -6.034  0.00  0.00    +0.010 A 
ATOM      4  C   UNL     1       8.380  -8.358  -5.947  0.00  0.00    +0.014 A 
ATOM      5  C   UNL     1       9.111  -8.784  -7.007  0.00  0.00    +0.046 A 
ATOM      6  C   UNL     1       9.167  -8.049  -8.199  0.00  0.00    +0.122 A 
ATOM      7  C   UNL     1       8.492  -6.875  -8.349  0.00  0.00    +0.071 A 
ATOM      8  C   UNL     1       7.710  -6.372  -7.283  0.00  0.00    +0.048 A 
ATOM      9  N   UNL     1       6.976  -5.276  -7.179  0.00  0.00    -0.369 N 
ATOM     10  H   UNL     1       6.859  -4.608  -7.873  0.00  0.00    +0.161 HD
ENDROOT
BRANCH   1  12
ATOM     11  N   UNL     1       4.107  -4.853  -4.915  0.00  0.00    -0.309 N 
ATOM     12  C   UNL     1       4.865  -5.240  -5.961  0.00  0.00    +0.241 C 
ATOM     13  O   UNL     1       4.337  -5.593  -6.994  0.00  0.00    -0.273 OA
ATOM     14  H   UNL     1       4.529  -4.571  -4.089  0.00  0.00    +0.149 HD
BRANCH  11  15
ATOM     15  C   UNL     1       2.647  -4.859  -5.027  0.00  0.00    +0.139 C 
BRANCH  15  19
ATOM     16  C   UNL     1       0.930  -3.520  -1.349  0.00  0.00    +0.121 A 
ATOM     17  C   UNL     1       1.235  -2.606  -2.347  0.00  0.00    +0.046 A 
ATOM     18  C   UNL     1       1.790  -3.041  -3.535  0.00  0.00    +0.009 A 
ATOM     19  C   UNL     1       2.042  -4.387  -3.730  0.00  0.00    -0.030 A 
ATOM     20  C   UNL     1       1.738  -5.300  -2.737  0.00  0.00    +0.009 A 
ATOM     21  C   UNL     1       1.189  -4.869  -1.545  0.00  0.00    +0.046 A 
BRANCH  16  22
ATOM     22  O   UNL     1       0.385  -3.095  -0.180  0.00  0.00    -0.492 OA
BRANCH  22  23
ATOM     23  C   UNL     1       0.146  -1.692  -0.048  0.00  0.00    +0.229 C 
BRANCH  23  25
ATOM     24  C   UNL     1      -0.722   0.096   1.466  0.00  0.00    +0.007 C 
ATOM     25  C   UNL     1      -0.466  -1.405   1.325  0.00  0.00    +0.038 C 
ENDBRANCH  23  25
ENDBRANCH  22  23
ENDBRANCH  16  22
ENDBRANCH  15  19
ENDBRANCH  11  15
ENDBRANCH   1  12
BRANCH   6  26
ATOM     26  O   UNL     1       9.913  -8.519  -9.230  0.00  0.00    -0.495 OA
ATOM     27  C   UNL     1      10.601  -9.754  -9.023  0.00  0.00    +0.277 C 
ENDBRANCH   6  26
BRANCH   2  28
ATOM     28  S   UNL     1       6.463  -6.949  -3.583  0.00  0.00    -0.091 S 
BRANCH  28  29
ATOM     29  C   UNL     1       7.258  -5.748  -2.567  0.00  0.00    +0.013 A 
ATOM     30  C   UNL     1       8.093  -4.795  -3.138  0.00  0.00    +0.015 A 
ATOM     31  C   UNL     1       8.714  -3.856  -2.339  0.00  0.00    +0.001 A 
ATOM     32  C   UNL     1       8.505  -3.862  -0.972  0.00  0.00    +0.000 A 
ATOM     33  C   UNL     1       7.674  -4.808  -0.400  0.00  0.00    +0.001 A 
ATOM     34  C   UNL     1       7.045  -5.747  -1.194  0.00  0.00    +0.015 A 
ENDBRANCH  28  29
ENDBRANCH   2  28
TORSDOF 9
