REMARK  Name = ZINC12805429
REMARK  5 active torsions:
REMARK  status: ('A' for Active; 'I' for Inactive)
REMARK    1  A    between atoms: C_1  and  C_2
REMARK    2  A    between atoms: C_2  and  C_4
REMARK    3  A    between atoms: C_2  and  N_45
REMARK    4  A    between atoms: C_10  and  C_15
REMARK    5  A    between atoms: C_20  and  N_45
REMARK                            x       y       z     vdW  Elec       q    Type
REMARK                         _______ _______ _______ _____ _____    ______ ____
ROOT
ATOM      1  C   UNL     1      -2.546   5.708  -3.007  0.00  0.00    +0.097 A 
ATOM      2  N   UNL     1      -2.304   6.967  -3.455  0.00  0.00    -0.312 N 
ATOM      3  H   UNL     1      -2.234   7.694  -2.817  0.00  0.00    +0.170 HD
ATOM      4  C   UNL     1      -2.158   7.226  -4.768  0.00  0.00    +0.260 A 
ATOM      5  O   UNL     1      -1.941   8.361  -5.154  0.00  0.00    -0.267 OA
ATOM      6  C   UNL     1      -2.262   6.148  -5.703  0.00  0.00    +0.083 A 
ATOM      7  C   UNL     1      -2.144   6.173  -7.157  0.00  0.00    +0.039 A 
ATOM      8  C   UNL     1      -2.283   5.009  -7.842  0.00  0.00    +0.059 A 
ATOM      9  S   UNL     1      -2.581   3.809  -6.559  0.00  0.00    -0.076 S 
ATOM     10  C   UNL     1      -2.514   4.883  -5.148  0.00  0.00    +0.116 A 
ATOM     11  N   UNL     1      -2.642   4.703  -3.836  0.00  0.00    -0.228 NA
ENDROOT
BRANCH   7  12
ATOM     12  C   UNL     1      -1.879   7.439  -7.870  0.00  0.00    +0.136 A 
ATOM     13  C   UNL     1      -0.914   7.641  -8.807  0.00  0.00    +0.050 A 
ATOM     14  C   UNL     1      -1.021   8.986  -9.217  0.00  0.00    +0.042 A 
ATOM     15  C   UNL     1      -2.033   9.532  -8.517  0.00  0.00    +0.196 A 
ATOM     16  O   UNL     1      -2.553   8.594  -7.708  0.00  0.00    -0.463 OA
ENDBRANCH   7  12
BRANCH   1  18
ATOM     17  C   UNL     1      -3.795   6.381  -0.973  0.00  0.00    -0.006 C 
ATOM     18  C   UNL     1      -2.702   5.466  -1.528  0.00  0.00    -0.007 C 
BRANCH  18  19
ATOM     19  N   UNL     1      -3.079   4.057  -1.305  0.00  0.00    +0.390 N 
ATOM     20  H   UNL     1      -2.612   3.467  -2.005  0.00  0.00    -0.084 HD
ATOM     21  H   UNL     1      -4.096   3.960  -1.399  0.00  0.00    -0.084 HD
BRANCH  19  22
ATOM     22  C   UNL     1      -2.671   3.625   0.045  0.00  0.00    -0.039 C 
ATOM     23  C   UNL     1      -3.513   2.409   0.486  0.00  0.00    -0.007 C 
ATOM     24  C   UNL     1      -2.640   1.220   0.032  0.00  0.00    +0.034 C 
ATOM     25  C   UNL     1      -1.222   1.749   0.017  0.00  0.00    -0.046 A 
ATOM     26  C   UNL     1      -1.240   3.132   0.029  0.00  0.00    -0.058 A 
ATOM     27  C   UNL     1      -0.048   3.836   0.022  0.00  0.00    +0.002 A 
ATOM     28  C   UNL     1       1.158   3.163   0.008  0.00  0.00    +0.000 A 
ATOM     29  C   UNL     1       1.176   1.780   0.000  0.00  0.00    +0.000 A 
ATOM     30  C   UNL     1      -0.013   1.076   0.008  0.00  0.00    +0.004 A 
ENDBRANCH  19  22
ENDBRANCH  18  19
ENDBRANCH   1  18
TORSDOF 4
