REMARK  Name = ZINC09187391
REMARK  11 active torsions:
REMARK  status: ('A' for Active; 'I' for Inactive)
REMARK    1  A    between atoms: C_1  and  C_2
REMARK    2  A    between atoms: C_2  and  O_3
REMARK    3  A    between atoms: O_3  and  C_4
REMARK    4  A    between atoms: C_4  and  C_6
REMARK    5  A    between atoms: C_8  and  N_13
REMARK    6  A    between atoms: C_14  and  C_16
REMARK    7  A    between atoms: C_16  and  O_17
REMARK    8  A    between atoms: O_17  and  C_18
REMARK    9  A    between atoms: C_21  and  C_24
REMARK   10  A    between atoms: C_25  and  C_26
REMARK   11  A    between atoms: C_25  and  C_28
REMARK                            x       y       z     vdW  Elec       q    Type
REMARK                         _______ _______ _______ _____ _____    ______ ____
ROOT
ATOM      1  C   UNL     1      -0.648   2.104  -3.800  0.00  0.00    +0.121 A 
ATOM      2  C   UNL     1       0.426   1.231  -3.930  0.00  0.00    +0.046 A 
ATOM      3  C   UNL     1       0.797   0.772  -5.174  0.00  0.00    +0.011 A 
ATOM      4  C   UNL     1       0.096   1.195  -6.311  0.00  0.00    -0.023 A 
ATOM      5  C   UNL     1      -0.983   2.080  -6.174  0.00  0.00    +0.011 A 
ATOM      6  C   UNL     1      -1.347   2.528  -4.925  0.00  0.00    +0.046 A 
ENDROOT
BRANCH   4   7
ATOM      7  C   UNL     1       0.488   0.714  -7.639  0.00  0.00    +0.030 C 
ATOM      8  C   UNL     1       1.098  -0.500  -7.772  0.00  0.00    +0.094 C 
BRANCH   8   9
ATOM      9  C   UNL     1       1.659  -0.904  -9.075  0.00  0.00    +0.150 A 
ATOM     10  N   UNL     1       2.291  -2.094  -9.326  0.00  0.00    -0.337 N 
ATOM     11  H   UNL     1       2.451  -2.831  -8.670  0.00  0.00    +0.167 HD
ATOM     12  C   UNL     1       2.664  -2.084 -10.657  0.00  0.00    +0.066 A 
ATOM     13  C   UNL     1       3.323  -2.988 -11.478  0.00  0.00    +0.028 A 
ATOM     14  C   UNL     1       3.549  -2.671 -12.801  0.00  0.00    +0.002 A 
ATOM     15  C   UNL     1       3.122  -1.455 -13.316  0.00  0.00    +0.002 A 
ATOM     16  C   UNL     1       2.472  -0.552 -12.523  0.00  0.00    +0.030 A 
ATOM     17  C   UNL     1       2.232  -0.852 -11.178  0.00  0.00    +0.089 A 
ATOM     18  N   UNL     1       1.623  -0.182 -10.170  0.00  0.00    -0.227 NA
ENDBRANCH   8   9
BRANCH   8  19
ATOM     19  C   UNL     1       1.193  -1.381  -6.647  0.00  0.00    +0.103 C 
ATOM     20  N   UNL     1       1.269  -2.079  -5.755  0.00  0.00    -0.191 NA
ENDBRANCH   8  19
ENDBRANCH   4   7
BRANCH   1  21
ATOM     21  O   UNL     1      -1.011   2.550  -2.571  0.00  0.00    -0.483 OA
BRANCH  21  22
ATOM     22  C   UNL     1      -0.251   2.076  -1.458  0.00  0.00    +0.324 C 
BRANCH  22  24
ATOM     23  N   UNL     1      -0.231   2.366   0.999  0.00  0.00    -0.283 N 
ATOM     24  C   UNL     1      -0.796   2.673  -0.186  0.00  0.00    +0.255 C 
ATOM     25  O   UNL     1      -1.743   3.430  -0.229  0.00  0.00    -0.272 OA
ATOM     26  H   UNL     1       0.571   1.822   1.027  0.00  0.00    +0.155 HD
BRANCH  23  29
ATOM     27  C   UNL     1      -2.727   3.564   3.434  0.00  0.00    +0.079 A 
ATOM     28  C   UNL     1      -2.161   3.099   2.246  0.00  0.00    +0.039 A 
ATOM     29  C   UNL     1      -0.803   2.832   2.188  0.00  0.00    +0.034 A 
ATOM     30  C   UNL     1      -0.008   3.022   3.313  0.00  0.00    +0.025 A 
ATOM     31  C   UNL     1      -0.566   3.488   4.489  0.00  0.00    +0.022 A 
ATOM     32  C   UNL     1      -1.919   3.757   4.558  0.00  0.00    +0.055 A 
ATOM     33 CL   UNL     1      -2.615   4.336   6.039  0.00  0.00    -0.083 Cl
BRANCH  27  34
ATOM     34  C   UNL     1      -4.174   3.851   3.504  0.00  0.00    +0.341 C 
ATOM     35  O   UNL     1      -4.664   4.255   4.539  0.00  0.00    -0.245 OA
BRANCH  34  36
ATOM     36  O   UNL     1      -4.950   3.664   2.419  0.00  0.00    -0.461 OA
BRANCH  36  38
ATOM     37  C   UNL     1      -7.078   3.695   1.234  0.00  0.00    +0.048 C 
ATOM     38  C   UNL     1      -6.364   3.967   2.560  0.00  0.00    +0.229 C 
ENDBRANCH  36  38
ENDBRANCH  34  36
ENDBRANCH  27  34
ENDBRANCH  23  29
ENDBRANCH  22  24
ENDBRANCH  21  22
ENDBRANCH   1  21
TORSDOF 10
