REMARK  Name = ZINC09358155
REMARK  3 active torsions:
REMARK  status: ('A' for Active; 'I' for Inactive)
REMARK    1  A    between atoms: C_7  and  N_11
REMARK    2  A    between atoms: C_8  and  C_9
REMARK    3  A    between atoms: N_11  and  C_12
REMARK                            x       y       z     vdW  Elec       q    Type
REMARK                         _______ _______ _______ _____ _____    ______ ____
ROOT
ATOM      1  C   UNL     1       0.533   1.904   0.651  0.00  0.00    +0.001 C 
ATOM      2  C   UNL     1       1.941   2.389   0.313  0.00  0.00    +0.005 C 
ATOM      3  C   UNL     1       2.395   1.821  -1.026  0.00  0.00    +0.037 C 
ATOM      4  C   UNL     1       3.096   0.483  -0.816  0.00  0.00    -0.018 A 
ATOM      5  C   UNL     1       2.829  -0.313   0.244  0.00  0.00    -0.004 A 
ATOM      6  S   UNL     1       3.872  -1.731   0.027  0.00  0.00    -0.077 S 
ATOM      7  C   UNL     1       4.679  -1.247  -1.487  0.00  0.00    +0.087 A 
ATOM      8  C   UNL     1       4.097  -0.015  -1.750  0.00  0.00    +0.084 A 
ATOM      9  C   UNL     1       1.876  -0.053   1.369  0.00  0.00    +0.043 C 
ATOM     10  C   UNL     1       0.522   0.386   0.795  0.00  0.00    +0.005 C 
ENDROOT
BRANCH   8  11
ATOM     11  C   UNL     1       4.468   0.745  -2.905  0.00  0.00    +0.102 C 
ATOM     12  N   UNL     1       4.763   1.347  -3.822  0.00  0.00    -0.191 NA
ENDBRANCH   8  11
BRANCH   7  13
ATOM     13  N   UNL     1       5.642  -1.926  -2.215  0.00  0.00    -0.313 N 
ATOM     14  H   UNL     1       5.997  -1.538  -3.030  0.00  0.00    +0.152 HD
BRANCH  13  15
ATOM     15  C   UNL     1       6.085  -3.124  -1.792  0.00  0.00    +0.091 C 
ATOM     16  C   UNL     1       7.134  -3.752  -2.455  0.00  0.00    +0.119 C 
ATOM     17  C   UNL     1       7.904  -3.065  -3.502  0.00  0.00    +0.286 C 
ATOM     18  N   UNL     1       8.892  -3.734  -4.090  0.00  0.00    -0.184 NA
ATOM     19  C   UNL     1       9.184  -4.981  -3.753  0.00  0.00    +0.195 C 
ATOM     20  N   UNL     1       8.537  -5.665  -2.822  0.00  0.00    -0.150 NA
ATOM     21  C   UNL     1       7.528  -5.133  -2.139  0.00  0.00    +0.276 C 
ATOM     22  O   UNL     1       6.887  -5.835  -1.196  0.00  0.00    -0.268 OA
ATOM     23  S   UNL     1      10.512  -5.777  -4.594  0.00  0.00    -0.012 SA
ATOM     24  O   UNL     1       7.620  -1.804  -3.853  0.00  0.00    -0.265 OA
ENDBRANCH  13  15
ENDBRANCH   7  13
TORSDOF 3
