REMARK  Name = ZINC24986830
REMARK  10 active torsions:
REMARK  status: ('A' for Active; 'I' for Inactive)
REMARK    1  A    between atoms: C_1  and  S_2
REMARK    2  A    between atoms: S_2  and  C_3
REMARK    3  A    between atoms: C_3  and  C_4
REMARK    4  A    between atoms: C_4  and  C_5
REMARK    5  A    between atoms: C_5  and  C_7
REMARK    6  A    between atoms: C_5  and  N_24
REMARK    7  A    between atoms: C_25  and  C_27
REMARK    8  A    between atoms: C_27  and  C_28
REMARK    9  A    between atoms: C_28  and  C_29
REMARK   10  A    between atoms: C_29  and  C_30
REMARK                            x       y       z     vdW  Elec       q    Type
REMARK                         _______ _______ _______ _____ _____    ______ ____
ROOT
ATOM      1  C   UNL     1      -3.480  -3.884   0.014  0.00  0.00    +0.236 C 
ATOM      2  O   UNL     1      -3.625  -4.476  -1.034  0.00  0.00    -0.274 OA
ATOM      3  N   UNL     1      -3.422  -4.570   1.173  0.00  0.00    -0.300 N 
ATOM      4  C   UNL     1      -3.356  -3.863   2.459  0.00  0.00    +0.110 C 
ATOM      5  C   UNL     1      -2.147  -4.381   3.244  0.00  0.00    +0.047 C 
ATOM      6  C   UNL     1      -2.235  -5.903   3.365  0.00  0.00    +0.064 C 
ATOM      7  C   UNL     1      -2.216  -6.535   1.973  0.00  0.00    +0.047 C 
ATOM      8  C   UNL     1      -3.431  -6.039   1.174  0.00  0.00    +0.110 C 
ATOM      9  C   UNL     1      -1.075  -6.417   4.175  0.00  0.00    +0.057 A 
ATOM     10  C   UNL     1      -1.176  -6.808   5.465  0.00  0.00    +0.039 A 
ATOM     11  N   UNL     1       0.029  -7.205   5.872  0.00  0.00    -0.349 N 
ATOM     12  C   UNL     1       0.879  -7.075   4.886  0.00  0.00    +0.171 A 
ATOM     13  N   UNL     1       0.223  -6.584   3.808  0.00  0.00    -0.348 N 
ATOM     14  H   UNL     1       0.607  -6.388   2.939  0.00  0.00    +0.166 HD
ATOM     15  C   UNL     1      -2.472  -6.767   6.238  0.00  0.00    +0.070 C 
ATOM     16  C   UNL     1      -3.452  -5.871   5.469  0.00  0.00    +0.088 C 
ATOM     17  N   UNL     1      -3.483  -6.269   4.055  0.00  0.00    -0.305 NA
ATOM     18  H   UNL     1      -4.285  -5.875   3.586  0.00  0.00    +0.123 HD
ATOM     19  H   UNL     1       0.243  -7.538   6.758  0.00  0.00    +0.166 HD
ENDROOT
BRANCH   1  20
ATOM     20  C   UNL     1      -3.363  -2.381   0.022  0.00  0.00    +0.160 C 
BRANCH  20  21
ATOM     21  N   UNL     1      -3.995  -1.837  -1.182  0.00  0.00    -0.304 N 
ATOM     22  C   UNL     1      -4.467  -0.574  -1.183  0.00  0.00    +0.214 C 
ATOM     23  O   UNL     1      -4.369   0.111  -0.187  0.00  0.00    -0.276 OA
ATOM     24  H   UNL     1      -4.074  -2.384  -1.979  0.00  0.00    +0.149 HD
BRANCH  22  25
ATOM     25  C   UNL     1      -5.118  -0.014  -2.421  0.00  0.00    +0.096 C 
BRANCH  25  26
ATOM     26  C   UNL     1      -5.562   1.427  -2.157  0.00  0.00    +0.014 C 
BRANCH  26  27
ATOM     27  C   UNL     1      -6.222   1.996  -3.414  0.00  0.00    +0.035 C 
BRANCH  27  28
ATOM     28  C   UNL     1      -6.660   3.414  -3.154  0.00  0.00    -0.047 A 
ATOM     29  C   UNL     1      -7.922   3.667  -2.650  0.00  0.00    +0.003 A 
ATOM     30  C   UNL     1      -8.323   4.968  -2.411  0.00  0.00    +0.000 A 
ATOM     31  C   UNL     1      -7.462   6.016  -2.675  0.00  0.00    +0.000 A 
ATOM     32  C   UNL     1      -6.199   5.763  -3.178  0.00  0.00    +0.000 A 
ATOM     33  C   UNL     1      -5.796   4.462  -3.413  0.00  0.00    +0.003 A 
ENDBRANCH  27  28
ENDBRANCH  26  27
ENDBRANCH  25  26
ENDBRANCH  22  25
ENDBRANCH  20  21
BRANCH  20  34
ATOM     34  C   UNL     1      -1.885  -1.985   0.046  0.00  0.00    +0.042 C 
BRANCH  34  35
ATOM     35  C   UNL     1      -1.767  -0.468   0.206  0.00  0.00    +0.071 C 
BRANCH  35  37
ATOM     36  C   UNL     1      -0.048   1.806   0.426  0.00  0.00    +0.084 C 
ATOM     37  S   UNL     1      -0.015   0.003   0.234  0.00  0.00    -0.164 S 
ENDBRANCH  35  37
ENDBRANCH  34  35
ENDBRANCH  20  34
ENDBRANCH   1  20
TORSDOF 9
