REMARK  Name = ZINC40800869
REMARK  8 active torsions:
REMARK  status: ('A' for Active; 'I' for Inactive)
REMARK    1  A    between atoms: C_1  and  N_2
REMARK    2  A    between atoms: N_2  and  C_3
REMARK    3  A    between atoms: C_8  and  C_9
REMARK    4  A    between atoms: C_9  and  O_11
REMARK    5  A    between atoms: O_11  and  C_12
REMARK    6  A    between atoms: C_14  and  N_31
REMARK    7  A    between atoms: C_15  and  N_19
REMARK    8  A    between atoms: C_23  and  C_26
REMARK                            x       y       z     vdW  Elec       q    Type
REMARK                         _______ _______ _______ _____ _____    ______ ____
ROOT
ATOM      1  C   UNL     1       0.644   0.494   0.770  0.00  0.00    +0.137 C 
ATOM      2  N   UNL     1      -0.482  -0.046   0.006  0.00  0.00    -0.286 N 
ATOM      3  C   UNL     1      -0.264  -0.622  -1.241  0.00  0.00    +0.151 A 
ATOM      4  C   UNL     1      -0.230   0.169  -2.391  0.00  0.00    +0.104 A 
ATOM      5  C   UNL     1      -0.007  -0.459  -3.618  0.00  0.00    +0.127 A 
ATOM      6  N   UNL     1       0.163  -1.779  -3.644  0.00  0.00    -0.333 N 
ATOM      7  C   UNL     1       0.123  -2.489  -2.535  0.00  0.00    +0.200 A 
ATOM      8  N   UNL     1      -0.080  -1.935  -1.357  0.00  0.00    -0.220 NA
ATOM      9  H   UNL     1       0.318  -2.225  -4.491  0.00  0.00    +0.168 HD
ENDROOT
BRANCH   5  10
ATOM     10  N   UNL     1       0.036   0.282  -4.794  0.00  0.00    -0.283 N 
ATOM     11  C   UNL     1       0.125  -0.367  -6.022  0.00  0.00    +0.142 A 
ATOM     12  C   UNL     1       0.258   0.381  -7.189  0.00  0.00    +0.081 A 
ATOM     13  C   UNL     1       0.346  -0.278  -8.403  0.00  0.00    +0.037 A 
ATOM     14  C   UNL     1       0.297  -1.665  -8.410  0.00  0.00    +0.074 A 
ATOM     15  C   UNL     1       0.163  -2.343  -7.214  0.00  0.00    +0.125 A 
ATOM     16  N   UNL     1       0.087  -1.689  -6.070  0.00  0.00    -0.238 NA
ATOM     17 CL   UNL     1       0.313   2.115  -7.122  0.00  0.00    -0.080 Cl
ATOM     18  H   UNL     1       0.004   1.250  -4.758  0.00  0.00    +0.155 HD
BRANCH  14  19
ATOM     19  C   UNL     1       0.388  -2.424  -9.708  0.00  0.00    +0.419 C 
ATOM     20  F   UNL     1       1.729  -2.706  -9.991  0.00  0.00    -0.166 F 
ATOM     21  F   UNL     1      -0.328  -3.622  -9.600  0.00  0.00    -0.166 F 
ATOM     22  F   UNL     1      -0.153  -1.650 -10.740  0.00  0.00    -0.166 F 
ENDBRANCH  14  19
ENDBRANCH   5  10
BRANCH   2  23
ATOM     23  C   UNL     1      -1.769   0.016   0.527  0.00  0.00    +0.049 A 
ATOM     24  C   UNL     1      -2.577   1.115   0.262  0.00  0.00    +0.024 A 
ATOM     25  C   UNL     1      -3.854   1.175   0.781  0.00  0.00    +0.002 A 
ATOM     26  C   UNL     1      -4.342   0.143   1.568  0.00  0.00    +0.001 A 
ATOM     27  C   UNL     1      -3.556  -0.955   1.841  0.00  0.00    +0.017 A 
ATOM     28  C   UNL     1      -2.262  -1.034   1.319  0.00  0.00    +0.080 A 
BRANCH  28  29
ATOM     29  C   UNL     1      -1.418  -2.207   1.603  0.00  0.00    +0.341 C 
ATOM     30  O   UNL     1      -0.291  -2.269   1.151  0.00  0.00    -0.245 OA
BRANCH  29  31
ATOM     31  O   UNL     1      -1.895  -3.212   2.363  0.00  0.00    -0.464 OA
ATOM     32  C   UNL     1      -1.022  -4.319   2.598  0.00  0.00    +0.280 C 
ENDBRANCH  29  31
ENDBRANCH  28  29
ENDBRANCH   2  23
BRANCH   4  33
ATOM     33  N   UNL     1      -0.415   1.558  -2.316  0.00  0.00    -0.353 N 
ATOM     34  H   UNL     1      -0.504   1.990  -1.452  0.00  0.00    +0.143 HD
ATOM     35  H   UNL     1      -0.455   2.087  -3.129  0.00  0.00    +0.143 HD
ENDBRANCH   4  33
TORSDOF 6
