REMARK  Name = ZINC08411308
REMARK  10 active torsions:
REMARK  status: ('A' for Active; 'I' for Inactive)
REMARK    1  A    between atoms: C_1  and  C_2
REMARK    2  A    between atoms: C_2  and  C_3
REMARK    3  A    between atoms: C_2  and  C_4
REMARK    4  A    between atoms: C_2  and  O_5
REMARK    5  A    between atoms: O_5  and  C_6
REMARK    6  A    between atoms: C_15  and  C_27
REMARK    7  A    between atoms: C_17  and  C_23
REMARK    8  A    between atoms: C_17  and  C_25
REMARK    9  A    between atoms: C_18  and  N_22
REMARK   10  A    between atoms: C_19  and  C_20
REMARK                            x       y       z     vdW  Elec       q    Type
REMARK                         _______ _______ _______ _____ _____    ______ ____
ROOT
ATOM      1  C   UNL     1      -0.064   2.002   2.163  0.00  0.00    +0.404 C 
ATOM      2  O   UNL     1       1.128   2.214   2.061  0.00  0.00    -0.226 OA
ATOM      3  N   UNL     1      -0.730   1.402   1.156  0.00  0.00    -0.263 N 
ATOM      4  C   UNL     1      -2.163   1.171   1.261  0.00  0.00    +0.138 C 
ATOM      5  C   UNL     1      -2.813   1.822   0.067  0.00  0.00    -0.003 C 
ATOM      6  C   UNL     1      -2.154   2.001  -1.061  0.00  0.00    -0.026 C 
ATOM      7  C   UNL     1      -0.743   1.552  -1.297  0.00  0.00    +0.048 C 
ATOM      8  C   UNL     1      -0.046   0.994  -0.076  0.00  0.00    +0.120 C 
ATOM      9  C   UNL     1       0.023   2.731  -1.901  0.00  0.00    +0.071 C 
ATOM     10  C   UNL     1      -0.576   3.051  -3.276  0.00  0.00    +0.188 C 
ATOM     11  C   UNL     1      -2.061   3.229  -3.186  0.00  0.00    +0.054 C 
ATOM     12  C   UNL     1      -2.815   2.739  -2.170  0.00  0.00    +0.074 C 
ENDROOT
BRANCH   9  13
ATOM     13  C   UNL     1       1.472   2.356  -2.074  0.00  0.00    -0.005 A 
ATOM     14  C   UNL     1       1.811   1.195  -2.742  0.00  0.00    +0.022 A 
ATOM     15  C   UNL     1       3.141   0.851  -2.901  0.00  0.00    +0.018 A 
ATOM     16  C   UNL     1       4.134   1.669  -2.391  0.00  0.00    +0.018 A 
ATOM     17  C   UNL     1       3.796   2.830  -1.723  0.00  0.00    +0.040 A 
ATOM     18  C   UNL     1       2.465   3.178  -1.568  0.00  0.00    +0.127 A 
ATOM     19  F   UNL     1       2.134   4.316  -0.919  0.00  0.00    -0.205 F 
ATOM     20 BR   UNL     1       3.604  -0.738  -3.816  0.00  0.00    -0.050 Br
ENDBRANCH   9  13
BRANCH  11  21
ATOM     21  N   UNL     1      -2.690   3.923  -4.181  0.00  0.00    -0.358 N 
ATOM     22  H   UNL     1      -3.779   4.072  -4.144  0.00  0.00    +0.142 HD
ATOM     23  H   UNL     1      -2.107   4.333  -5.019  0.00  0.00    +0.142 HD
ENDBRANCH  11  21
BRANCH  12  24
ATOM     24  C   UNL     1      -4.234   2.930  -2.166  0.00  0.00    +0.101 C 
ATOM     25  N   UNL     1      -5.360   3.082  -2.163  0.00  0.00    -0.191 NA
ENDBRANCH  12  24
BRANCH  10  26
ATOM     26  C   UNL     1      -0.279   1.960  -4.220  0.00  0.00    +0.091 C 
ATOM     27  N   UNL     1      -0.051   1.118  -4.947  0.00  0.00    -0.194 NA
ENDBRANCH  10  26
BRANCH  10  28
ATOM     28  C   UNL     1       0.028   4.296  -3.778  0.00  0.00    +0.091 C 
ATOM     29  N   UNL     1       0.494   5.257  -4.165  0.00  0.00    -0.194 NA
ENDBRANCH  10  28
BRANCH   1  30
ATOM     30  O   UNL     1      -0.720   2.365   3.281  0.00  0.00    -0.445 OA
BRANCH  30  32
ATOM     31  C   UNL     1       0.684   4.291   3.778  0.00  0.00    +0.055 C 
ATOM     32  C   UNL     1       0.060   3.005   4.324  0.00  0.00    +0.107 C 
ATOM     33  C   UNL     1      -0.849   3.343   5.507  0.00  0.00    +0.055 C 
ATOM     34  C   UNL     1       1.169   2.057   4.787  0.00  0.00    +0.055 C 
ENDBRANCH  30  32
ENDBRANCH   1  30
TORSDOF 7
