REMARK  Name = ZINC66109679
REMARK  13 active torsions:
REMARK  status: ('A' for Active; 'I' for Inactive)
REMARK    1  A    between atoms: C_1  and  C_2
REMARK    2  A    between atoms: C_2  and  C_3
REMARK    3  A    between atoms: C_3  and  C_4
REMARK    4  A    between atoms: N_6  and  C_7
REMARK    5  A    between atoms: C_11  and  N_13
REMARK    6  A    between atoms: C_14  and  C_16
REMARK    7  A    between atoms: C_16  and  N_17
REMARK    8  A    between atoms: N_17  and  C_18
REMARK    9  A    between atoms: C_18  and  C_19
REMARK   10  A    between atoms: C_22  and  O_25
REMARK   11  A    between atoms: O_25  and  C_26
REMARK   12  A    between atoms: C_26  and  C_27
REMARK   13  A    between atoms: C_26  and  C_28
REMARK                            x       y       z     vdW  Elec       q    Type
REMARK                         _______ _______ _______ _____ _____    ______ ____
ROOT
ATOM      1  N   UNL     1       2.429  -6.969  -4.253  0.00  0.00    -0.287 N 
ATOM      2  C   UNL     1       2.276  -8.307  -4.314  0.00  0.00    +0.200 C 
ATOM      3  O   UNL     1       1.674  -8.889  -3.436  0.00  0.00    -0.278 OA
ATOM      4  H   UNL     1       2.966  -6.512  -4.918  0.00  0.00    +0.155 HD
ENDROOT
BRANCH   1   9
ATOM      5  C   UNL     1       0.718  -4.246  -2.462  0.00  0.00    +0.035 A 
ATOM      6  C   UNL     1       0.596  -4.804  -1.196  0.00  0.00    +0.023 A 
ATOM      7  C   UNL     1       1.081  -6.073  -0.949  0.00  0.00    +0.004 A 
ATOM      8  C   UNL     1       1.689  -6.792  -1.960  0.00  0.00    +0.023 A 
ATOM      9  C   UNL     1       1.814  -6.240  -3.229  0.00  0.00    +0.035 A 
ATOM     10  C   UNL     1       1.322  -4.968  -3.481  0.00  0.00    +0.046 A 
BRANCH   5  13
ATOM     11  C   UNL     1      -0.321  -2.668  -3.909  0.00  0.00    +0.217 C 
ATOM     12  O   UNL     1      -0.310  -3.493  -4.798  0.00  0.00    -0.275 OA
ATOM     13  N   UNL     1       0.225  -2.960  -2.712  0.00  0.00    -0.285 N 
ATOM     14  H   UNL     1       0.277  -2.279  -2.023  0.00  0.00    +0.155 HD
BRANCH  11  15
ATOM     15  C   UNL     1      -0.944  -1.316  -4.143  0.00  0.00    +0.096 C 
BRANCH  15  17
ATOM     16  C   UNL     1      -2.117   0.129  -5.809  0.00  0.00    +0.004 C 
ATOM     17  C   UNL     1      -1.485  -1.244  -5.572  0.00  0.00    +0.006 C 
ENDBRANCH  15  17
ENDBRANCH  11  15
ENDBRANCH   5  13
ENDBRANCH   1   9
BRANCH   2  18
ATOM     18  C   UNL     1       2.852  -9.079  -5.473  0.00  0.00    +0.016 C 
BRANCH  18  19
ATOM     19  N   UNL     1       2.551 -10.507  -5.307  0.00  0.00    +0.387 N 
ATOM     20  H   UNL     1       2.958 -10.839  -4.446  0.00  0.00    -0.085 HD
ATOM     21  H   UNL     1       1.551 -10.639  -5.278  0.00  0.00    -0.085 HD
BRANCH  19  22
ATOM     22  C   UNL     1       3.112 -11.260  -6.436  0.00  0.00    -0.046 C 
BRANCH  22  23
ATOM     23  C   UNL     1       2.804 -12.726  -6.266  0.00  0.00    -0.064 A 
ATOM     24  C   UNL     1       3.683 -13.541  -5.578  0.00  0.00    +0.005 A 
ATOM     25  C   UNL     1       3.403 -14.884  -5.421  0.00  0.00    +0.046 A 
ATOM     26  C   UNL     1       2.237 -15.415  -5.955  0.00  0.00    +0.121 A 
ATOM     27  C   UNL     1       1.356 -14.595  -6.645  0.00  0.00    +0.046 A 
ATOM     28  C   UNL     1       1.639 -13.251  -6.794  0.00  0.00    +0.005 A 
BRANCH  26  29
ATOM     29  O   UNL     1       1.960 -16.737  -5.802  0.00  0.00    -0.489 OA
BRANCH  29  30
ATOM     30  C   UNL     1       2.852 -17.497  -4.985  0.00  0.00    +0.167 C 
ATOM     31  C   UNL     1       2.115 -18.713  -4.420  0.00  0.00    +0.051 C 
ATOM     32  C   UNL     1       4.040 -17.967  -5.828  0.00  0.00    +0.051 C 
ENDBRANCH  29  30
ENDBRANCH  26  29
ENDBRANCH  22  23
ENDBRANCH  19  22
ENDBRANCH  18  19
ENDBRANCH   2  18
TORSDOF 10
