REMARK  Name = ZINC37711616
REMARK  9 active torsions:
REMARK  status: ('A' for Active; 'I' for Inactive)
REMARK    1  A    between atoms: C_1  and  O_2
REMARK    2  A    between atoms: O_2  and  C_3
REMARK    3  A    between atoms: C_5  and  C_19
REMARK    4  A    between atoms: C_7  and  O_17
REMARK    5  A    between atoms: C_8  and  O_9
REMARK    6  A    between atoms: O_9  and  C_10
REMARK    7  A    between atoms: C_10  and  C_11
REMARK    8  A    between atoms: O_17  and  C_18
REMARK    9  A    between atoms: C_19  and  N_20
REMARK                            x       y       z     vdW  Elec       q    Type
REMARK                         _______ _______ _______ _____ _____    ______ ____
ROOT
ATOM      1  C   UNL     1       0.626  -0.619   1.042  0.00  0.00    +0.165 A 
ATOM      2  C   UNL     1       1.202   0.138   2.051  0.00  0.00    +0.051 A 
ATOM      3  C   UNL     1       1.837  -0.486   3.109  0.00  0.00    -0.058 A 
ATOM      4  C   UNL     1       1.900  -1.866   3.166  0.00  0.00    +0.051 A 
ATOM      5  C   UNL     1       1.327  -2.630   2.160  0.00  0.00    +0.165 A 
ATOM      6  C   UNL     1       0.683  -2.006   1.098  0.00  0.00    +0.204 A 
ENDROOT
BRANCH   1   8
ATOM      7  C   UNL     1      -0.017   1.425   0.010  0.00  0.00    +0.277 C 
ATOM      8  O   UNL     1       0.002  -0.004   0.002  0.00  0.00    -0.491 OA
ENDBRANCH   1   8
BRANCH   5   9
ATOM      9  O   UNL     1       1.390  -3.987   2.217  0.00  0.00    -0.491 OA
ATOM     10  C   UNL     1       2.062  -4.559   3.340  0.00  0.00    +0.277 C 
ENDBRANCH   5   9
BRANCH   6  11
ATOM     11  O   UNL     1       0.114  -2.753   0.113  0.00  0.00    -0.480 OA
BRANCH  11  12
ATOM     12  C   UNL     1       0.939  -3.090  -1.004  0.00  0.00    +0.272 C 
BRANCH  12  13
ATOM     13  C   UNL     1       0.144  -3.912  -1.986  0.00  0.00    +0.028 A 
ATOM     14  C   UNL     1      -0.606  -3.497  -3.036  0.00  0.00    +0.016 A 
ATOM     15  C   UNL     1      -1.256  -4.441  -3.810  0.00  0.00    +0.023 A 
ATOM     16  C   UNL     1      -1.123  -5.753  -3.495  0.00  0.00    +0.055 A 
ATOM     17  S   UNL     1      -0.047  -5.685  -2.072  0.00  0.00    -0.083 S 
ATOM     18 BR   UNL     1      -1.875  -7.265  -4.348  0.00  0.00    -0.043 Br
ENDBRANCH  12  13
ENDBRANCH  11  12
ENDBRANCH   6  11
BRANCH   3  19
ATOM     19  C   UNL     1       2.462   0.340   4.203  0.00  0.00    -0.050 C 
BRANCH  19  20
ATOM     20  N   UNL     1       1.471   0.583   5.260  0.00  0.00    +0.381 N 
ATOM     21  H   UNL     1       0.682   1.079   4.874  0.00  0.00    -0.090 HD
ATOM     22  H   UNL     1       1.161  -0.299   5.640  0.00  0.00    -0.090 HD
ATOM     23  H   UNL     1       1.890   1.136   5.993  0.00  0.00    -0.090 HD
ENDBRANCH  19  20
ENDBRANCH   3  19
TORSDOF 7
