REMARK  Name = ZINC42135901
REMARK  4 active torsions:
REMARK  status: ('A' for Active; 'I' for Inactive)
REMARK    1  A    between atoms: C_1  and  N_2
REMARK    2  A    between atoms: N_2  and  C_3
REMARK    3  A    between atoms: C_7  and  N_10
REMARK    4  A    between atoms: N_10  and  C_11
REMARK                            x       y       z     vdW  Elec       q    Type
REMARK                         _______ _______ _______ _____ _____    ______ ____
ROOT
ATOM      1  N   UNL     1      -0.008  -2.657  -4.836  0.00  0.00    -0.328 N 
ATOM      2  H   UNL     1       0.001  -3.626  -4.882  0.00  0.00    +0.147 HD
ENDROOT
BRANCH   1   3
ATOM      3  C   UNL     1      -0.025  -1.865  -6.069  0.00  0.00    +0.191 C 
ATOM      4  C   UNL     1      -0.581  -2.679  -7.214  0.00  0.00    +0.021 A 
ATOM      5  C   UNL     1       0.434  -2.768  -8.159  0.00  0.00    +0.040 A 
ATOM      6  C   UNL     1       0.198  -3.473  -9.337  0.00  0.00    +0.024 A 
ATOM      7  C   UNL     1      -1.026  -4.071  -9.555  0.00  0.00    +0.003 A 
ATOM      8  C   UNL     1      -2.029  -3.976  -8.607  0.00  0.00    +0.020 A 
ATOM      9  C   UNL     1      -1.802  -3.277  -7.433  0.00  0.00    +0.048 A 
ATOM     10 CL   UNL     1      -3.057  -3.154  -6.239  0.00  0.00    -0.083 Cl
ATOM     11  N   UNL     1       1.568  -2.088  -7.714  0.00  0.00    -0.283 N 
ATOM     12  C   UNL     1       1.386  -1.529  -6.503  0.00  0.00    +0.242 C 
ATOM     13  O   UNL     1       2.197  -0.880  -5.876  0.00  0.00    -0.273 OA
ATOM     14  H   UNL     1       2.393  -2.024  -8.220  0.00  0.00    +0.155 HD
ENDBRANCH   1   3
BRANCH   1  21
ATOM     15  C   UNL     1      -0.018   1.461   0.010  0.00  0.00    +0.130 C 
ATOM     16  N   UNL     1       0.002  -0.004   0.002  0.00  0.00    -0.323 N 
ATOM     17  C   UNL     1       0.024  -0.743   1.267  0.00  0.00    +0.130 C 
ATOM     18  C   UNL     1       0.000  -0.694  -1.208  0.00  0.00    +0.098 A 
ATOM     19  C   UNL     1       0.013  -2.085  -1.207  0.00  0.00    +0.043 A 
ATOM     20  C   UNL     1       0.011  -2.760  -2.413  0.00  0.00    +0.028 A 
ATOM     21  C   UNL     1      -0.005  -2.015  -3.591  0.00  0.00    +0.044 A 
ATOM     22  C   UNL     1      -0.018  -0.631  -3.516  0.00  0.00    +0.107 A 
ATOM     23  N   UNL     1      -0.020  -0.019  -2.346  0.00  0.00    -0.348 N 
ATOM     24  H   UNL     1      -0.033   0.951  -2.320  0.00  0.00    +0.167 HD
ENDBRANCH   1  21
TORSDOF 2
