REMARK  Name = ZINC42075832
REMARK  5 active torsions:
REMARK  status: ('A' for Active; 'I' for Inactive)
REMARK    1  A    between atoms: C_1  and  C_2
REMARK    2  A    between atoms: C_7  and  C_8
REMARK    3  A    between atoms: C_12  and  N_14
REMARK    4  A    between atoms: N_14  and  C_15
REMARK    5  A    between atoms: C_15  and  C_22
REMARK                            x       y       z     vdW  Elec       q    Type
REMARK                         _______ _______ _______ _____ _____    ______ ____
ROOT
ATOM      1  C   UNL     1       1.573   0.408   1.306  0.00  0.00    +0.044 C 
ATOM      2  C   UNL     1       1.157  -1.004   0.983  0.00  0.00    -0.046 A 
ATOM      3  C   UNL     1       1.022  -1.397  -0.336  0.00  0.00    +0.004 A 
ATOM      4  C   UNL     1       0.641  -2.693  -0.633  0.00  0.00    +0.004 A 
ATOM      5  C   UNL     1       0.398  -3.588   0.385  0.00  0.00    -0.031 A 
ATOM      6  C   UNL     1       0.530  -3.206   1.714  0.00  0.00    +0.039 A 
ATOM      7  C   UNL     1       0.920  -1.900   2.005  0.00  0.00    -0.026 A 
ATOM      8  C   UNL     1       1.077  -1.464   3.439  0.00  0.00    +0.046 C 
ATOM      9  N   UNL     1       0.233  -4.278   2.556  0.00  0.00    -0.286 N 
ATOM     10  C   UNL     1      -0.100  -5.385   1.871  0.00  0.00    +0.208 C 
ATOM     11  O   UNL     1      -0.404  -6.460   2.344  0.00  0.00    -0.277 OA
ATOM     12  C   UNL     1      -0.024  -5.039   0.400  0.00  0.00    +0.050 C 
ATOM     13  H   UNL     1       0.263  -4.230   3.524  0.00  0.00    +0.155 HD
ENDROOT
BRANCH  12  14
ATOM     14  N   UNL     1      -1.338  -5.200  -0.236  0.00  0.00    +0.394 N 
ATOM     15  H   UNL     1      -1.284  -4.906  -1.200  0.00  0.00    -0.083 HD
ATOM     16  H   UNL     1      -1.615  -6.169  -0.195  0.00  0.00    -0.083 HD
BRANCH  14  17
ATOM     17  C   UNL     1      -2.328  -4.377   0.472  0.00  0.00    -0.049 C 
ATOM     18  C   UNL     1      -2.059  -2.907   0.155  0.00  0.00    +0.011 C 
ATOM     19  C   UNL     1      -2.861  -2.470  -1.102  0.00  0.00    +0.164 C 
ATOM     20  S   UNL     1      -4.442  -3.371  -0.787  0.00  0.00    -0.032 S 
ATOM     21  O   UNL     1      -5.228  -2.628   0.134  0.00  0.00    -0.174 OA
ATOM     22  O   UNL     1      -5.006  -3.773  -2.028  0.00  0.00    -0.174 OA
ATOM     23  C   UNL     1      -3.740  -4.844   0.066  0.00  0.00    +0.153 C 
ATOM     24  C   UNL     1      -2.155  -4.591   1.977  0.00  0.00    -0.008 C 
ENDBRANCH  14  17
ENDBRANCH  12  14
TORSDOF 2
