REMARK  Name = ZINC62729859
REMARK  12 active torsions:
REMARK  status: ('A' for Active; 'I' for Inactive)
REMARK    1  A    between atoms: C_1  and  C_2
REMARK    2  A    between atoms: C_2  and  C_3
REMARK    3  A    between atoms: C_2  and  N_4
REMARK    4  A    between atoms: C_5  and  C_7
REMARK    5  A    between atoms: C_7  and  O_8
REMARK    6  A    between atoms: O_8  and  C_9
REMARK    7  A    between atoms: C_14  and  C_15
REMARK    8  A    between atoms: C_15  and  N_16
REMARK    9  A    between atoms: N_16  and  C_17
REMARK   10  A    between atoms: C_17  and  C_18
REMARK   11  A    between atoms: C_17  and  C_19
REMARK   12  A    between atoms: C_17  and  C_20
REMARK                            x       y       z     vdW  Elec       q    Type
REMARK                         _______ _______ _______ _____ _____    ______ ____
ROOT
ATOM      1  C   UNL     1      -4.296  -4.181  -1.117  0.00  0.00    +0.123 A 
ATOM      2  C   UNL     1      -5.431  -3.539  -0.643  0.00  0.00    +0.047 A 
ATOM      3  C   UNL     1      -6.658  -4.168  -0.713  0.00  0.00    +0.019 A 
ATOM      4  C   UNL     1      -6.757  -5.437  -1.254  0.00  0.00    +0.018 A 
ATOM      5  C   UNL     1      -5.626  -6.079  -1.726  0.00  0.00    +0.020 A 
ATOM      6  C   UNL     1      -4.397  -5.451  -1.665  0.00  0.00    -0.022 A 
ATOM      7 BR   UNL     1      -8.439  -6.296  -1.347  0.00  0.00    -0.050 Br
ENDROOT
BRANCH   1   8
ATOM      8  O   UNL     1      -3.087  -3.563  -1.050  0.00  0.00    -0.483 OA
BRANCH   8   9
ATOM      9  C   UNL     1      -3.057  -2.256  -0.474  0.00  0.00    +0.324 C 
BRANCH   9  11
ATOM     10  N   UNL     1      -1.372  -0.511   0.012  0.00  0.00    -0.310 N 
ATOM     11  C   UNL     1      -1.643  -1.734  -0.485  0.00  0.00    +0.251 C 
ATOM     12  O   UNL     1      -0.749  -2.415  -0.941  0.00  0.00    -0.272 OA
ATOM     13  H   UNL     1      -2.087   0.033   0.377  0.00  0.00    +0.149 HD
BRANCH  10  15
ATOM     14  C   UNL     1      -0.019   1.526   0.010  0.00  0.00    +0.027 C 
ATOM     15  C   UNL     1       0.002  -0.004   0.002  0.00  0.00    +0.067 C 
ATOM     16  C   UNL     1       0.742  -0.511   1.242  0.00  0.00    +0.027 C 
ENDBRANCH  10  15
ENDBRANCH   9  11
ENDBRANCH   8   9
ENDBRANCH   1   8
BRANCH   6  17
ATOM     17  C   UNL     1      -3.167  -6.148  -2.186  0.00  0.00    -0.042 C 
BRANCH  17  18
ATOM     18  N   UNL     1      -2.422  -6.732  -1.063  0.00  0.00    +0.385 N 
ATOM     19  H   UNL     1      -2.148  -6.000  -0.424  0.00  0.00    -0.085 HD
ATOM     20  H   UNL     1      -3.007  -7.398  -0.581  0.00  0.00    -0.085 HD
BRANCH  18  21
ATOM     21  C   UNL     1      -1.223  -7.411  -1.572  0.00  0.00    -0.077 C 
ATOM     22  C   UNL     1      -0.336  -6.401  -2.302  0.00  0.00    -0.011 C 
ATOM     23  C   UNL     1      -0.446  -8.019  -0.402  0.00  0.00    -0.011 C 
ATOM     24  C   UNL     1      -1.637  -8.521  -2.540  0.00  0.00    -0.011 C 
ENDBRANCH  18  21
ENDBRANCH  17  18
ENDBRANCH   6  17
TORSDOF 7
