REMARK  Name = ZINC12654281
REMARK  15 active torsions:
REMARK  status: ('A' for Active; 'I' for Inactive)
REMARK    1  A    between atoms: C_1  and  C_2
REMARK    2  A    between atoms: C_19  and  C_21
REMARK    3  A    between atoms: C_21  and  N_67
REMARK    4  A    between atoms: C_22  and  N_67
REMARK    5  A    between atoms: C_23  and  C_24
REMARK    6  A    between atoms: C_23  and  N_67
REMARK    7  A    between atoms: C_24  and  C_26
REMARK    8  A    between atoms: C_24  and  O_37
REMARK    9  A    between atoms: C_26  and  C_28
REMARK   10  A    between atoms: C_26  and  O_36
REMARK   11  A    between atoms: C_28  and  C_30
REMARK   12  A    between atoms: C_28  and  O_35
REMARK   13  A    between atoms: C_30  and  C_32
REMARK   14  A    between atoms: C_30  and  O_34
REMARK   15  A    between atoms: C_32  and  O_33
REMARK                            x       y       z     vdW  Elec       q    Type
REMARK                         _______ _______ _______ _____ _____    ______ ____
ROOT
ATOM      1  C   UNL     1       3.356   1.528  -3.715  0.00  0.00    -0.096 C 
ATOM      2  N   UNL     1       1.994   0.961  -3.629  0.00  0.00    +0.380 N 
ATOM      3  H   UNL     1       2.063  -0.052  -3.481  0.00  0.00    -0.082 HD
ENDROOT
BRANCH   2   4
ATOM      4  C   UNL     1       1.261   1.214  -4.887  0.00  0.00    -0.064 C 
BRANCH   4  20
ATOM      5  C   UNL     1       1.846  -2.069  -9.346  0.00  0.00    +0.012 C 
ATOM      6  C   UNL     1       0.945  -0.926  -9.818  0.00  0.00    -0.022 C 
ATOM      7  C   UNL     1       0.438  -1.202 -11.233  0.00  0.00    +0.007 C 
ATOM      8  C   UNL     1       1.626  -1.413 -12.174  0.00  0.00    +0.005 C 
ATOM      9  C   UNL     1       2.457  -0.128 -12.249  0.00  0.00    +0.030 C 
ATOM     10  C   UNL     1       2.835   0.289 -10.845  0.00  0.00    -0.073 C 
ATOM     11  C   UNL     1       4.079   0.552 -10.531  0.00  0.00    +0.008 C 
ATOM     12  C   UNL     1       1.735   0.391  -9.813  0.00  0.00    +0.021 C 
ATOM     13  C   UNL     1       2.322   0.591  -8.439  0.00  0.00    +0.016 C 
ATOM     14  C   UNL     1       1.230   0.713  -7.374  0.00  0.00    +0.042 C 
ATOM     15  C   UNL     1       0.243  -0.467  -7.455  0.00  0.00    +0.181 C 
ATOM     16  C   UNL     1      -0.232  -0.768  -8.856  0.00  0.00    +0.052 C 
ATOM     17  O   UNL     1       0.986  -1.574  -6.869  0.00  0.00    -0.461 OA
ATOM     18  C   UNL     1       1.652  -1.084  -5.800  0.00  0.00    +0.309 C 
ATOM     19  O   UNL     1       1.991  -1.724  -4.833  0.00  0.00    -0.251 OA
ATOM     20  C   UNL     1       1.907   0.397  -6.007  0.00  0.00    +0.088 C 
ENDBRANCH   4  20
ENDBRANCH   2   4
BRANCH   2  21
ATOM     21  C   UNL     1       1.268   1.564  -2.491  0.00  0.00    -0.045 C 
BRANCH  21  22
ATOM     22  C   UNL     1       0.086   0.661  -2.131  0.00  0.00    +0.129 C 
BRANCH  22  23
ATOM     23  O   UNL     1       0.569  -0.635  -1.773  0.00  0.00    -0.391 OA
ATOM     24  H   UNL     1       1.170  -0.636  -1.016  0.00  0.00    +0.210 HD
ENDBRANCH  22  23
BRANCH  22  25
ATOM     25  C   UNL     1      -0.675   1.265  -0.949  0.00  0.00    +0.172 C 
BRANCH  25  26
ATOM     26  O   UNL     1      -1.159   2.562  -1.307  0.00  0.00    -0.387 OA
ATOM     27  H   UNL     1      -1.760   2.562  -2.064  0.00  0.00    +0.210 HD
ENDBRANCH  25  26
BRANCH  25  28
ATOM     28  C   UNL     1      -1.857   0.362  -0.589  0.00  0.00    +0.176 C 
BRANCH  28  29
ATOM     29  O   UNL     1      -1.374  -0.934  -0.231  0.00  0.00    -0.387 OA
ATOM     30  H   UNL     1      -0.773  -0.935   0.526  0.00  0.00    +0.210 HD
ENDBRANCH  28  29
BRANCH  28  31
ATOM     31  C   UNL     1      -2.619   0.967   0.593  0.00  0.00    +0.171 C 
BRANCH  31  32
ATOM     32  O   UNL     1      -3.102   2.263   0.235  0.00  0.00    -0.387 OA
ATOM     33  H   UNL     1      -3.703   2.264  -0.522  0.00  0.00    +0.210 HD
ENDBRANCH  31  32
BRANCH  31  34
ATOM     34  C   UNL     1      -3.800   0.064   0.954  0.00  0.00    +0.189 C 
BRANCH  34  35
ATOM     35  O   UNL     1      -4.442   0.565   2.128  0.00  0.00    -0.392 OA
ATOM     36  H   UNL     1      -5.202   0.041   2.415  0.00  0.00    +0.210 HD
ENDBRANCH  34  35
ENDBRANCH  31  34
ENDBRANCH  28  31
ENDBRANCH  25  28
ENDBRANCH  22  25
ENDBRANCH  21  22
ENDBRANCH   2  21
TORSDOF 13
