REMARK  Name = ZINC43288482
REMARK  9 active torsions:
REMARK  status: ('A' for Active; 'I' for Inactive)
REMARK    1  A    between atoms: C_1  and  C_2
REMARK    2  A    between atoms: C_5  and  C_19
REMARK    3  A    between atoms: C_6  and  O_8
REMARK    4  A    between atoms: O_8  and  C_9
REMARK    5  A    between atoms: C_9  and  C_11
REMARK    6  A    between atoms: C_9  and  C_13
REMARK    7  A    between atoms: C_11  and  N_12
REMARK    8  A    between atoms: C_19  and  C_20
REMARK    9  A    between atoms: C_19  and  C_21
REMARK                            x       y       z     vdW  Elec       q    Type
REMARK                         _______ _______ _______ _____ _____    ______ ____
ROOT
ATOM      1  C   UNL     1       0.162  -2.009   3.559  0.00  0.00    +0.193 C 
ENDROOT
BRANCH   1   2
ATOM      2  C   UNL     1      -0.433  -2.783   4.707  0.00  0.00    +0.029 A 
ATOM      3  C   UNL     1      -1.198  -2.335   5.733  0.00  0.00    +0.030 A 
ATOM      4  C   UNL     1      -1.638  -3.237   6.684  0.00  0.00    +0.025 A 
ATOM      5  C   UNL     1      -1.290  -4.542   6.563  0.00  0.00    +0.060 A 
ATOM      6  S   UNL     1      -0.320  -4.528   5.065  0.00  0.00    -0.097 S 
ATOM      7 BR   UNL     1      -2.707  -2.659   8.133  0.00  0.00    -0.050 Br
ENDBRANCH   1   2
BRANCH   1   8
ATOM      8  O   UNL     1       0.050  -2.776   2.358  0.00  0.00    -0.485 OA
BRANCH   8  14
ATOM      9  C   UNL     1      -0.510   1.496   0.065  0.00  0.00    +0.044 C 
ATOM     10  C   UNL     1      -0.377  -0.004   0.040  0.00  0.00    -0.047 A 
ATOM     11  C   UNL     1      -0.408  -0.681  -1.166  0.00  0.00    +0.004 A 
ATOM     12  C   UNL     1      -0.287  -2.058  -1.192  0.00  0.00    +0.008 A 
ATOM     13  C   UNL     1      -0.133  -2.761  -0.013  0.00  0.00    -0.003 A 
ATOM     14  C   UNL     1      -0.101  -2.085   1.198  0.00  0.00    +0.125 A 
ATOM     15  C   UNL     1      -0.217  -0.703   1.221  0.00  0.00    +0.049 A 
BRANCH  13  16
ATOM     16  C   UNL     1      -0.002  -4.262  -0.043  0.00  0.00    +0.016 C 
ATOM     17  C   UNL     1      -1.254  -4.872  -0.676  0.00  0.00    +0.012 C 
ATOM     18  C   UNL     1       1.228  -4.650  -0.867  0.00  0.00    +0.012 C 
ENDBRANCH  13  16
ENDBRANCH   8  14
ENDBRANCH   1   8
BRANCH   1  19
ATOM     19  C   UNL     1       1.638  -1.724   3.846  0.00  0.00    -0.036 C 
BRANCH  19  20
ATOM     20  N   UNL     1       2.187  -0.869   2.786  0.00  0.00    +0.381 N 
ATOM     21  H   UNL     1       3.160  -0.681   2.975  0.00  0.00    -0.090 HD
ATOM     22  H   UNL     1       2.102  -1.338   1.897  0.00  0.00    -0.090 HD
ATOM     23  H   UNL     1       1.676   0.001   2.757  0.00  0.00    -0.090 HD
ENDBRANCH  19  20
ENDBRANCH   1  19
TORSDOF 6
