REMARK  Name = ZINC01628559
REMARK  11 active torsions:
REMARK  status: ('A' for Active; 'I' for Inactive)
REMARK    1  A    between atoms: C_1  and  C_2
REMARK    2  A    between atoms: C_3  and  C_19
REMARK    3  A    between atoms: C_5  and  C_7
REMARK    4  A    between atoms: C_9  and  C_18
REMARK    5  A    between atoms: C_10  and  C_12
REMARK    6  A    between atoms: N_14  and  N_15
REMARK    7  A    between atoms: N_15  and  C_16
REMARK    8  A    between atoms: N_15  and  C_17
REMARK    9  A    between atoms: N_21  and  N_22
REMARK   10  A    between atoms: N_22  and  C_23
REMARK   11  A    between atoms: N_22  and  C_24
REMARK                            x       y       z     vdW  Elec       q    Type
REMARK                         _______ _______ _______ _____ _____    ______ ____
ROOT
ATOM      1  C   UNL     1       1.446  -8.334  -2.399  0.00  0.00    +0.067 C 
ATOM      2  C   UNL     1       0.739  -7.855  -1.157  0.00  0.00    +0.058 A 
ATOM      3  C   UNL     1       0.225  -8.756  -0.231  0.00  0.00    +0.098 A 
ATOM      4  S   UNL     1      -0.460  -7.630   0.977  0.00  0.00    -0.060 S 
ATOM      5  C   UNL     1      -0.031  -6.150   0.175  0.00  0.00    +0.134 A 
ATOM      6  N   UNL     1       0.589  -6.583  -0.916  0.00  0.00    -0.241 NA
ENDROOT
BRANCH   5   7
ATOM      7  C   UNL     1      -0.286  -4.764   0.601  0.00  0.00    +0.134 A 
ATOM      8  N   UNL     1      -0.907  -4.332   1.692  0.00  0.00    -0.241 NA
ATOM      9  C   UNL     1      -1.057  -3.059   1.933  0.00  0.00    +0.058 A 
ATOM     10  C   UNL     1      -0.543  -2.159   1.006  0.00  0.00    +0.098 A 
ATOM     11  S   UNL     1       0.142  -3.285  -0.201  0.00  0.00    -0.060 S 
ATOM     12  C   UNL     1      -1.763  -2.580   3.175  0.00  0.00    +0.067 C 
BRANCH  10  13
ATOM     13  C   UNL     1      -0.563  -0.691   1.015  0.00  0.00    +0.266 C 
ATOM     14  O   UNL     1      -1.089  -0.095   1.935  0.00  0.00    -0.268 OA
ATOM     15  N   UNL     1       0.002  -0.004   0.002  0.00  0.00    -0.244 N 
ATOM     16  H   UNL     1       0.422  -0.479  -0.732  0.00  0.00    +0.170 HD
BRANCH  15  17
ATOM     17  N   UNL     1      -0.016   1.362   0.009  0.00  0.00    -0.233 NA
ATOM     18  C   UNL     1       1.348   1.907  -0.001  0.00  0.00    +0.127 C 
ATOM     19  C   UNL     1      -0.800   1.884  -1.118  0.00  0.00    +0.127 C 
ENDBRANCH  15  17
ENDBRANCH  10  13
ENDBRANCH   5   7
BRANCH   3  20
ATOM     20  C   UNL     1       0.245 -10.223  -0.238  0.00  0.00    +0.266 C 
ATOM     21  O   UNL     1       0.771 -10.820  -1.159  0.00  0.00    -0.268 OA
ATOM     22  N   UNL     1      -0.320 -10.911   0.774  0.00  0.00    -0.244 N 
ATOM     23  H   UNL     1      -0.739 -10.435   1.508  0.00  0.00    +0.170 HD
BRANCH  22  24
ATOM     24  N   UNL     1      -0.301 -12.276   0.766  0.00  0.00    -0.233 NA
ATOM     25  C   UNL     1       0.403 -12.800   1.945  0.00  0.00    +0.127 C 
ATOM     26  C   UNL     1      -1.663 -12.821   0.682  0.00  0.00    +0.127 C 
ENDBRANCH  22  24
ENDBRANCH   3  20
TORSDOF 5
