REMARK  Name = ZINC14537752
REMARK  9 active torsions:
REMARK  status: ('A' for Active; 'I' for Inactive)
REMARK    1  A    between atoms: C_2  and  C_3
REMARK    2  A    between atoms: C_3  and  N_4
REMARK    3  A    between atoms: C_7  and  C_9
REMARK    4  A    between atoms: C_19  and  N_68
REMARK    5  A    between atoms: C_23  and  C_24
REMARK    6  A    between atoms: C_23  and  N_68
REMARK    7  A    between atoms: C_24  and  C_25
REMARK    8  A    between atoms: C_28  and  S_31
REMARK    9  A    between atoms: S_31  and  N_34
REMARK                            x       y       z     vdW  Elec       q    Type
REMARK                         _______ _______ _______ _____ _____    ______ ____
ROOT
ATOM      1  N   UNL     1      -1.339   2.709   7.584  0.00  0.00    -0.264 N 
ATOM      2  C   UNL     1      -1.215   2.494   6.263  0.00  0.00    +0.043 A 
ATOM      3  C   UNL     1      -1.005   1.166   6.091  0.00  0.00    +0.004 A 
ATOM      4  C   UNL     1      -1.007   0.604   7.378  0.00  0.00    +0.151 A 
ATOM      5  N   UNL     1      -1.214   1.598   8.225  0.00  0.00    -0.166 NA
ATOM      6  C   UNL     1      -0.816   0.497   4.757  0.00  0.00    +0.023 C 
ATOM      7  C   UNL     1      -1.300   1.459   3.663  0.00  0.00    -0.067 C 
ATOM      8  C   UNL     1      -0.675   2.840   3.883  0.00  0.00    -0.009 C 
ATOM      9  C   UNL     1      -1.283   3.488   5.133  0.00  0.00    +0.054 C 
ENDROOT
BRANCH   4  10
ATOM     10  C   UNL     1      -0.814  -0.820   7.720  0.00  0.00    +0.267 C 
ATOM     11  O   UNL     1      -0.527  -1.620   6.851  0.00  0.00    -0.268 OA
ATOM     12  N   UNL     1      -0.956  -1.232   8.995  0.00  0.00    -0.296 N 
ATOM     13  C   UNL     1      -1.412  -0.281   9.984  0.00  0.00    +0.108 C 
ATOM     14  C   UNL     1      -0.204   0.453  10.603  0.00  0.00    +0.019 C 
ATOM     15  C   UNL     1       0.556  -0.457  11.473  0.00  0.00    +0.002 C 
ATOM     16  C   UNL     1       1.169  -1.652  10.749  0.00  0.00    +0.002 C 
ATOM     17  C   UNL     1       0.144  -2.755  10.648  0.00  0.00    +0.019 C 
ATOM     18  C   UNL     1      -0.634  -2.634   9.325  0.00  0.00    +0.108 C 
ENDBRANCH   4  10
BRANCH   7  19
ATOM     19  N   UNL     1      -0.892   0.938   2.345  0.00  0.00    +0.381 N 
ATOM     20  H   UNL     1      -0.933  -0.088   2.359  0.00  0.00    -0.086 HD
ATOM     21  H   UNL     1       0.069   1.239   2.145  0.00  0.00    -0.086 HD
BRANCH  19  22
ATOM     22  C   UNL     1      -1.791   1.447   1.292  0.00  0.00    -0.078 C 
BRANCH  22  23
ATOM     23  C   UNL     1      -1.344   0.890  -0.061  0.00  0.00    +0.016 C 
BRANCH  23  24
ATOM     24  C   UNL     1      -2.258   1.406  -1.143  0.00  0.00    -0.049 A 
ATOM     25  C   UNL     1      -3.390   0.692  -1.489  0.00  0.00    +0.005 A 
ATOM     26  C   UNL     1      -4.230   1.167  -2.479  0.00  0.00    +0.029 A 
ATOM     27  C   UNL     1      -3.934   2.352  -3.127  0.00  0.00    +0.105 A 
ATOM     28  C   UNL     1      -2.800   3.063  -2.784  0.00  0.00    +0.029 A 
ATOM     29  C   UNL     1      -1.961   2.590  -1.792  0.00  0.00    +0.005 A 
BRANCH  27  30
ATOM     30  S   UNL     1      -5.003   2.955  -4.391  0.00  0.00    +0.056 S 
ATOM     31  O   UNL     1      -6.283   2.387  -4.146  0.00  0.00    -0.153 OA
ATOM     32  O   UNL     1      -4.795   4.359  -4.464  0.00  0.00    -0.153 OA
BRANCH  30  33
ATOM     33  N   UNL     1      -4.471   2.322  -5.826  0.00  0.00    -0.204 NA
ATOM     34  H   UNL     1      -3.698   1.737  -5.841  0.00  0.00    +0.144 HD
ATOM     35  H   UNL     1      -4.932   2.538  -6.652  0.00  0.00    +0.144 HD
ENDBRANCH  30  33
ENDBRANCH  27  30
ENDBRANCH  23  24
ENDBRANCH  22  23
ENDBRANCH  19  22
ENDBRANCH   7  19
BRANCH   1  36
ATOM     36  C   UNL     1      -1.579   4.014   8.204  0.00  0.00    +0.170 C 
BRANCH  36  38
ATOM     37  C   UNL     1      -0.004   5.873   8.052  0.00  0.00    +0.006 C 
ATOM     38  C   UNL     1      -0.260   4.674   8.513  0.00  0.00    -0.012 C 
ENDBRANCH  36  38
ENDBRANCH   1  36
TORSDOF 9
