REMARK  Name = ZINC32851117
REMARK  9 active torsions:
REMARK  status: ('A' for Active; 'I' for Inactive)
REMARK    1  A    between atoms: C_1  and  C_2
REMARK    2  A    between atoms: C_4  and  S_26
REMARK    3  A    between atoms: C_6  and  N_9
REMARK    4  A    between atoms: C_7  and  C_8
REMARK    5  A    between atoms: C_10  and  C_12
REMARK    6  A    between atoms: C_12  and  N_13
REMARK    7  A    between atoms: C_16  and  C_19
REMARK    8  A    between atoms: C_22  and  O_25
REMARK    9  A    between atoms: S_26  and  N_29
REMARK                            x       y       z     vdW  Elec       q    Type
REMARK                         _______ _______ _______ _____ _____    ______ ____
ROOT
ATOM      1  N   UNL     1       1.013   9.559   1.857  0.00  0.00    -0.287 N 
ATOM      2  C   UNL     1       1.123   8.237   1.616  0.00  0.00    +0.201 C 
ATOM      3  O   UNL     1       1.143   7.452   2.541  0.00  0.00    -0.278 OA
ATOM      4  H   UNL     1       0.906  10.263   1.018  0.00  0.00    +0.155 HD
ENDROOT
BRANCH   1  10
ATOM      5  C   UNL     1       2.034  13.168   5.035  0.00  0.00    +0.044 C 
ATOM      6  C   UNL     1       1.524  11.780   4.741  0.00  0.00    -0.044 A 
ATOM      7  C   UNL     1       1.078  10.976   5.774  0.00  0.00    +0.032 A 
ATOM      8  C   UNL     1       0.610   9.702   5.509  0.00  0.00    +0.107 A 
ATOM      9  C   UNL     1       0.587   9.229   4.211  0.00  0.00    +0.052 A 
ATOM     10  C   UNL     1       1.035  10.035   3.172  0.00  0.00    +0.038 A 
ATOM     11  C   UNL     1       1.509  11.312   3.442  0.00  0.00    -0.026 A 
ATOM     12  C   UNL     1       2.001  12.187   2.319  0.00  0.00    +0.046 C 
BRANCH   8  13
ATOM     13  S   UNL     1       0.043   8.681   6.828  0.00  0.00    +0.056 S 
ATOM     14  O   UNL     1      -0.342   9.554   7.881  0.00  0.00    -0.153 OA
ATOM     15  O   UNL     1      -0.852   7.737   6.255  0.00  0.00    -0.153 OA
BRANCH  13  16
ATOM     16  N   UNL     1       1.347   7.822   7.378  0.00  0.00    -0.204 NA
ATOM     17  H   UNL     1       1.034   7.169   8.206  0.00  0.00    +0.144 HD
ATOM     18  H   UNL     1       2.121   8.518   7.733  0.00  0.00    +0.144 HD
ENDBRANCH  13  16
ENDBRANCH   8  13
ENDBRANCH   1  10
BRANCH   2  19
ATOM     19  C   UNL     1       1.221   7.735   0.199  0.00  0.00    +0.019 C 
BRANCH  19  20
ATOM     20  N   UNL     1       1.471   6.287   0.208  0.00  0.00    +0.388 N 
ATOM     21  C   UNL     1       2.797   5.985   0.771  0.00  0.00    -0.073 C 
ATOM     22  C   UNL     1       2.876   4.482   1.052  0.00  0.00    +0.017 C 
ATOM     23  C   UNL     1       2.420   3.716  -0.159  0.00  0.00    -0.048 C 
ATOM     24  C   UNL     1       1.741   4.273  -1.138  0.00  0.00    -0.041 C 
ATOM     25  C   UNL     1       1.351   5.723  -1.142  0.00  0.00    -0.050 C 
ATOM     26  H   UNL     1       0.706   5.822   0.847  0.00  0.00    -0.081 HD
BRANCH  23  27
ATOM     27  C   UNL     1       2.755   2.280  -0.257  0.00  0.00    -0.022 A 
ATOM     28  C   UNL     1       3.608   1.827  -1.264  0.00  0.00    +0.012 A 
ATOM     29  C   UNL     1       3.919   0.487  -1.351  0.00  0.00    +0.046 A 
ATOM     30  C   UNL     1       3.383  -0.412  -0.439  0.00  0.00    +0.117 A 
ATOM     31  C   UNL     1       2.533   0.034   0.565  0.00  0.00    +0.046 A 
ATOM     32  C   UNL     1       2.218   1.373   0.658  0.00  0.00    +0.012 A 
BRANCH  30  33
ATOM     33  O   UNL     1       3.690  -1.733  -0.528  0.00  0.00    -0.507 OA
ATOM     34  H   UNL     1       3.267  -2.446   0.194  0.00  0.00    +0.292 HD
ENDBRANCH  30  33
ENDBRANCH  23  27
ENDBRANCH  19  20
ENDBRANCH   2  19
TORSDOF 7
