REMARK  Name = ZINC10066590
REMARK  8 active torsions:
REMARK  status: ('A' for Active; 'I' for Inactive)
REMARK    1  A    between atoms: C_1  and  C_2
REMARK    2  A    between atoms: C_2  and  N_53
REMARK    3  A    between atoms: C_3  and  C_4
REMARK    4  A    between atoms: C_3  and  N_53
REMARK    5  A    between atoms: C_5  and  C_6
REMARK    6  A    between atoms: C_5  and  N_53
REMARK    7  A    between atoms: C_6  and  N_7
REMARK    8  A    between atoms: C_18  and  C_20
REMARK                            x       y       z     vdW  Elec       q    Type
REMARK                         _______ _______ _______ _____ _____    ______ ____
ROOT
ATOM      1  N   UNL     1       2.451  -1.703  -0.390  0.00  0.00    -0.248 N 
ATOM      2  C   UNL     1       1.856  -0.488  -0.096  0.00  0.00    +0.168 A 
ATOM      3  N   UNL     1       2.376   0.717  -0.148  0.00  0.00    -0.224 NA
ATOM      4  C   UNL     1       1.672   1.825   0.170  0.00  0.00    +0.080 A 
ATOM      5  C   UNL     1       2.108   3.170   0.157  0.00  0.00    +0.030 A 
ATOM      6  C   UNL     1       1.259   4.186   0.511  0.00  0.00    +0.017 A 
ATOM      7  C   UNL     1      -0.052   3.934   0.894  0.00  0.00    +0.019 A 
ATOM      8  C   UNL     1      -0.511   2.630   0.923  0.00  0.00    +0.032 A 
ATOM      9  C   UNL     1       0.332   1.607   0.565  0.00  0.00    +0.042 A 
ATOM     10  S   UNL     1       0.187  -0.160   0.450  0.00  0.00    -0.052 S 
ATOM     11 BR   UNL     1      -1.196   5.360   1.378  0.00  0.00    -0.050 Br
ATOM     12  C   UNL     1       1.744  -2.844  -0.274  0.00  0.00    +0.259 C 
ATOM     13  O   UNL     1       0.574  -2.804   0.052  0.00  0.00    -0.269 OA
ENDROOT
BRANCH  12  14
ATOM     14  C   UNL     1       2.390  -4.140  -0.542  0.00  0.00    +0.122 A 
ATOM     15  C   UNL     1       3.755  -4.296  -0.370  0.00  0.00    +0.031 A 
ATOM     16  C   UNL     1       4.333  -5.563  -0.635  0.00  0.00    +0.018 A 
ATOM     17  C   UNL     1       5.713  -5.758  -0.466  0.00  0.00    +0.011 A 
ATOM     18  C   UNL     1       6.264  -6.979  -0.729  0.00  0.00    +0.001 A 
ATOM     19  C   UNL     1       5.470  -8.031  -1.163  0.00  0.00    +0.004 A 
ATOM     20  C   UNL     1       4.112  -7.862  -1.336  0.00  0.00    +0.047 A 
ATOM     21  C   UNL     1       3.527  -6.628  -1.075  0.00  0.00    +0.139 A 
ATOM     22  O   UNL     1       2.197  -6.465  -1.245  0.00  0.00    -0.422 OA
ATOM     23  C   UNL     1       1.599  -5.287  -1.002  0.00  0.00    +0.350 A 
ATOM     24  O   UNL     1       0.399  -5.171  -1.164  0.00  0.00    -0.244 OA
ENDBRANCH  12  14
BRANCH   1  25
ATOM     25  C   UNL     1       3.849  -1.748  -0.827  0.00  0.00    +0.097 C 
BRANCH  25  26
ATOM     26  C   UNL     1       4.763  -1.405   0.351  0.00  0.00    -0.059 C 
BRANCH  26  27
ATOM     27  N   UNL     1       6.169  -1.506  -0.093  0.00  0.00    +0.380 N 
ATOM     28  H   UNL     1       6.290  -2.378  -0.622  0.00  0.00    -0.082 HD
BRANCH  27  30
ATOM     29  C   UNL     1       7.881  -0.607  -1.591  0.00  0.00    -0.017 C 
ATOM     30  C   UNL     1       6.505  -0.364  -0.969  0.00  0.00    -0.082 C 
ENDBRANCH  27  30
BRANCH  27  31
ATOM     31  C   UNL     1       7.069  -1.526   1.079  0.00  0.00    -0.082 C 
ATOM     32  C   UNL     1       7.029  -2.922   1.704  0.00  0.00    -0.017 C 
ENDBRANCH  27  31
ENDBRANCH  26  27
ENDBRANCH  25  26
ENDBRANCH   1  25
TORSDOF 6
