REMARK  Name = ZINC31890939
REMARK  8 active torsions:
REMARK  status: ('A' for Active; 'I' for Inactive)
REMARK    1  A    between atoms: C_1  and  C_2
REMARK    2  A    between atoms: C_2  and  C_3
REMARK    3  A    between atoms: C_3  and  C_5
REMARK    4  A    between atoms: C_3  and  N_6
REMARK    5  A    between atoms: C_7  and  N_23
REMARK    6  A    between atoms: C_8  and  C_15
REMARK    7  A    between atoms: C_15  and  N_16
REMARK    8  A    between atoms: N_19  and  C_22
REMARK                            x       y       z     vdW  Elec       q    Type
REMARK                         _______ _______ _______ _____ _____    ______ ____
ROOT
ATOM      1  N   UNL     1       1.168   1.929   0.058  0.00  0.00    -0.279 N 
ATOM      2  C   UNL     1       1.127   3.293  -0.096  0.00  0.00    +0.110 A 
ATOM      3  C   UNL     1      -0.083   3.928  -0.137  0.00  0.00    +0.069 A 
ATOM      4  C   UNL     1      -1.256   3.167  -0.020  0.00  0.00    +0.260 A 
ATOM      5  O   UNL     1      -2.347   3.712  -0.054  0.00  0.00    -0.267 OA
ATOM      6  N   UNL     1      -1.171   1.830   0.124  0.00  0.00    -0.275 N 
ATOM      7  H   UNL     1      -2.086   1.226   0.208  0.00  0.00    +0.173 HD
ATOM      8  C   UNL     1       0.029   1.222   0.167  0.00  0.00    +0.331 A 
ATOM      9  O   UNL     1       0.083   0.015   0.302  0.00  0.00    -0.246 OA
ENDROOT
BRANCH   2  10
ATOM     10  N   UNL     1       2.290   4.012  -0.208  0.00  0.00    -0.344 N 
ATOM     11  H   UNL     1       2.251   5.104  -0.331  0.00  0.00    +0.144 HD
ATOM     12  H   UNL     1       3.261   3.496  -0.175  0.00  0.00    +0.144 HD
ENDBRANCH   2  10
BRANCH   1  13
ATOM     13  C   UNL     1       2.460   1.239   0.103  0.00  0.00    +0.090 C 
ATOM     14  C   UNL     1       2.539   0.228  -1.043  0.00  0.00    +0.031 C 
BRANCH  13  16
ATOM     15  C   UNL     1       2.647   1.529   2.578  0.00  0.00    +0.006 C 
ATOM     16  C   UNL     1       2.601   0.508   1.439  0.00  0.00    +0.021 C 
ENDBRANCH  13  16
ENDBRANCH   1  13
BRANCH   3  17
ATOM     17  C   UNL     1      -0.156   5.424  -0.305  0.00  0.00    +0.128 C 
BRANCH  17  18
ATOM     18  N   UNL     1      -0.336   5.749  -1.726  0.00  0.00    -0.301 NA
ATOM     19  C   UNL     1       0.850   5.370  -2.507  0.00  0.00    +0.066 C 
ATOM     20  C   UNL     1       0.592   5.650  -3.990  0.00  0.00    -0.064 C 
ATOM     21  N   UNL     1       0.281   7.075  -4.169  0.00  0.00    +0.379 N 
ATOM     22  C   UNL     1      -0.905   7.454  -3.388  0.00  0.00    -0.064 C 
ATOM     23  C   UNL     1      -0.647   7.173  -1.906  0.00  0.00    +0.066 C 
ATOM     24  C   UNL     1       0.101   7.400  -5.590  0.00  0.00    -0.096 C 
ATOM     25  H   UNL     1       1.135   7.659  -3.795  0.00  0.00    -0.082 HD
ENDBRANCH  17  18
ENDBRANCH   3  17
TORSDOF 5
