REMARK  Name = ZINC40759396
REMARK  12 active torsions:
REMARK  status: ('A' for Active; 'I' for Inactive)
REMARK    1  A    between atoms: C_1  and  C_2
REMARK    2  A    between atoms: C_2  and  N_3
REMARK    3  A    between atoms: N_3  and  C_4
REMARK    4  A    between atoms: N_3  and  S_6
REMARK    5  A    between atoms: C_4  and  C_5
REMARK    6  A    between atoms: S_6  and  C_9
REMARK    7  A    between atoms: C_12  and  N_15
REMARK    8  A    between atoms: C_17  and  N_36
REMARK    9  A    between atoms: C_18  and  N_22
REMARK   10  A    between atoms: N_22  and  N_23
REMARK   11  A    between atoms: N_23  and  C_24
REMARK   12  A    between atoms: N_23  and  C_30
REMARK                            x       y       z     vdW  Elec       q    Type
REMARK                         _______ _______ _______ _____ _____    ______ ____
ROOT
ATOM      1  N   UNL     1      -0.576   3.093  -6.724  0.00  0.00    -0.299 N 
ATOM      2  C   UNL     1       0.420   3.668  -7.505  0.00  0.00    +0.126 A 
ATOM      3  C   UNL     1       0.324   5.002  -7.907  0.00  0.00    +0.105 A 
ATOM      4  C   UNL     1       1.351   5.530  -8.691  0.00  0.00    +0.161 A 
ATOM      5  N   UNL     1       2.376   4.748  -9.023  0.00  0.00    -0.219 NA
ATOM      6  C   UNL     1       2.428   3.493  -8.622  0.00  0.00    +0.200 A 
ATOM      7  N   UNL     1       1.482   2.958  -7.878  0.00  0.00    -0.333 N 
ATOM      8  H   UNL     1      -1.298   3.641  -6.377  0.00  0.00    +0.154 HD
ATOM      9  H   UNL     1       1.559   2.032  -7.599  0.00  0.00    +0.168 HD
ENDROOT
BRANCH   1  13
ATOM     10  C   UNL     1      -0.460  -0.981  -5.869  0.00  0.00    +0.106 A 
ATOM     11  C   UNL     1      -0.827  -0.080  -4.886  0.00  0.00    +0.030 A 
ATOM     12  C   UNL     1      -0.866   1.272  -5.166  0.00  0.00    +0.025 A 
ATOM     13  C   UNL     1      -0.537   1.726  -6.437  0.00  0.00    +0.032 A 
ATOM     14  C   UNL     1      -0.169   0.819  -7.422  0.00  0.00    +0.025 A 
ATOM     15  C   UNL     1      -0.126  -0.531  -7.133  0.00  0.00    +0.030 A 
BRANCH  10  16
ATOM     16  S   UNL     1      -0.411  -2.704  -5.507  0.00  0.00    +0.061 S 
ATOM     17  O   UNL     1      -0.559  -3.384  -6.746  0.00  0.00    -0.153 OA
ATOM     18  O   UNL     1      -1.293  -2.915  -4.413  0.00  0.00    -0.153 OA
BRANCH  16  19
ATOM     19  N   UNL     1       1.114  -3.047  -4.959  0.00  0.00    -0.177 NA
BRANCH  19  21
ATOM     20  C   UNL     1       2.005  -1.583  -3.213  0.00  0.00    +0.022 C 
ATOM     21  C   UNL     1       1.414  -2.959  -3.527  0.00  0.00    +0.106 C 
ENDBRANCH  19  21
BRANCH  19  22
ATOM     22  C   UNL     1       2.162  -3.437  -5.905  0.00  0.00    +0.106 C 
ATOM     23  C   UNL     1       2.241  -4.963  -5.978  0.00  0.00    +0.022 C 
ENDBRANCH  19  22
ENDBRANCH  16  19
ENDBRANCH  10  16
ENDBRANCH   1  13
BRANCH   3  24
ATOM     24  N   UNL     1      -0.776   5.791  -7.534  0.00  0.00    -0.353 N 
ATOM     25  H   UNL     1      -1.483   5.410  -6.990  0.00  0.00    +0.143 HD
ATOM     26  H   UNL     1      -0.830   6.716  -7.821  0.00  0.00    +0.143 HD
ENDBRANCH   3  24
BRANCH   4  27
ATOM     27  N   UNL     1       1.305   6.851  -9.119  0.00  0.00    -0.242 N 
ATOM     28  H   UNL     1       0.555   7.415  -8.873  0.00  0.00    +0.172 HD
BRANCH  27  29
ATOM     29  N   UNL     1       2.342   7.370  -9.905  0.00  0.00    -0.221 N 
BRANCH  29  30
ATOM     30  C   UNL     1       2.147   7.573 -11.274  0.00  0.00    +0.053 A 
ATOM     31  C   UNL     1       1.231   6.794 -11.969  0.00  0.00    +0.025 A 
ATOM     32  C   UNL     1       1.040   6.997 -13.322  0.00  0.00    +0.002 A 
ATOM     33  C   UNL     1       1.761   7.974 -13.984  0.00  0.00    +0.000 A 
ATOM     34  C   UNL     1       2.675   8.751 -13.295  0.00  0.00    +0.002 A 
ATOM     35  C   UNL     1       2.866   8.557 -11.941  0.00  0.00    +0.025 A 
ENDBRANCH  29  30
BRANCH  29  36
ATOM     36  C   UNL     1       3.572   7.684  -9.321  0.00  0.00    +0.053 A 
ATOM     37  C   UNL     1       3.616   8.442  -8.157  0.00  0.00    +0.025 A 
ATOM     38  C   UNL     1       4.833   8.751  -7.582  0.00  0.00    +0.002 A 
ATOM     39  C   UNL     1       6.007   8.306  -8.163  0.00  0.00    +0.000 A 
ATOM     40  C   UNL     1       5.967   7.552  -9.322  0.00  0.00    +0.002 A 
ATOM     41  C   UNL     1       4.753   7.235  -9.898  0.00  0.00    +0.025 A 
ENDBRANCH  29  36
ENDBRANCH  27  29
ENDBRANCH   4  27
TORSDOF 10
