REMARK  Name = ZINC12750529
REMARK  6 active torsions:
REMARK  status: ('A' for Active; 'I' for Inactive)
REMARK    1  A    between atoms: C_4  and  C_7
REMARK    2  A    between atoms: C_7  and  C_9
REMARK    3  A    between atoms: C_7  and  N_51
REMARK    4  A    between atoms: N_11  and  C_12
REMARK    5  A    between atoms: C_16  and  C_18
REMARK    6  A    between atoms: C_22  and  N_51
REMARK                            x       y       z     vdW  Elec       q    Type
REMARK                         _______ _______ _______ _____ _____    ______ ____
ROOT
ATOM      1  C   UNL     1      -2.406   6.051   0.194  0.00  0.00    +0.048 C 
ENDROOT
BRANCH   1   5
ATOM      2  C   UNL     1      -3.834   2.074   0.820  0.00  0.00    +0.000 A 
ATOM      3  C   UNL     1      -3.998   2.682  -0.411  0.00  0.00    +0.000 A 
ATOM      4  C   UNL     1      -3.536   3.969  -0.614  0.00  0.00    +0.002 A 
ATOM      5  C   UNL     1      -2.910   4.648   0.415  0.00  0.00    -0.053 A 
ATOM      6  C   UNL     1      -2.741   4.039   1.644  0.00  0.00    +0.002 A 
ATOM      7  C   UNL     1      -3.208   2.754   1.848  0.00  0.00    +0.000 A 
ENDBRANCH   1   5
BRANCH   1   8
ATOM      8  C   UNL     1      -3.308   7.027   0.905  0.00  0.00    +0.207 C 
ATOM      9  O   UNL     1      -2.858   7.750   1.768  0.00  0.00    -0.277 OA
ATOM     10  N   UNL     1      -4.614   7.096   0.582  0.00  0.00    -0.287 N 
ATOM     11  H   UNL     1      -4.959   6.572  -0.158  0.00  0.00    +0.155 HD
BRANCH  10  12
ATOM     12  C   UNL     1      -5.474   7.922   1.314  0.00  0.00    +0.034 A 
ATOM     13  C   UNL     1      -5.262   8.116   2.673  0.00  0.00    +0.023 A 
ATOM     14  C   UNL     1      -6.109   8.936   3.392  0.00  0.00    +0.002 A 
ATOM     15  C   UNL     1      -7.173   9.557   2.763  0.00  0.00    +0.012 A 
ATOM     16  C   UNL     1      -7.389   9.361   1.411  0.00  0.00    +0.057 A 
ATOM     17  C   UNL     1      -6.543   8.546   0.685  0.00  0.00    +0.035 A 
BRANCH  16  18
ATOM     18  C   UNL     1      -8.550  10.039   0.729  0.00  0.00    +0.417 C 
ATOM     19  F   UNL     1      -9.675   9.210   0.791  0.00  0.00    -0.166 F 
ATOM     20  F   UNL     1      -8.826  11.250   1.372  0.00  0.00    -0.166 F 
ATOM     21  F   UNL     1      -8.225  10.285  -0.609  0.00  0.00    -0.166 F 
ENDBRANCH  16  18
ENDBRANCH  10  12
ENDBRANCH   1   8
BRANCH   1  22
ATOM     22  N   UNL     1      -1.038   6.174   0.733  0.00  0.00    +0.394 N 
ATOM     23  H   UNL     1      -0.948   5.578   1.564  0.00  0.00    -0.083 HD
ATOM     24  H   UNL     1      -0.863   7.152   0.992  0.00  0.00    -0.083 HD
BRANCH  22  25
ATOM     25  C   UNL     1      -0.050   5.753  -0.277  0.00  0.00    -0.033 C 
ATOM     26  C   UNL     1       0.217   6.910  -1.244  0.00  0.00    +0.030 C 
ATOM     27  C   UNL     1       1.451   6.560  -2.085  0.00  0.00    +0.228 C 
ATOM     28  O   UNL     1       2.582   6.485  -1.217  0.00  0.00    -0.492 OA
ATOM     29  C   UNL     1       2.466   5.742  -0.086  0.00  0.00    +0.122 A 
ATOM     30  C   UNL     1       1.232   5.366   0.416  0.00  0.00    -0.020 A 
ATOM     31  C   UNL     1       1.160   4.618   1.579  0.00  0.00    +0.005 A 
ATOM     32  C   UNL     1       2.314   4.237   2.236  0.00  0.00    +0.000 A 
ATOM     33  C   UNL     1       3.548   4.612   1.738  0.00  0.00    +0.004 A 
ATOM     34  C   UNL     1       3.626   5.359   0.580  0.00  0.00    +0.046 A 
ENDBRANCH  22  25
ENDBRANCH   1  22
TORSDOF 6
