REMARK  Name = ZINC48845547
REMARK  10 active torsions:
REMARK  status: ('A' for Active; 'I' for Inactive)
REMARK    1  A    between atoms: C_1  and  C_2
REMARK    2  A    between atoms: C_2  and  C_3
REMARK    3  A    between atoms: C_3  and  C_4
REMARK    4  A    between atoms: C_3  and  C_11
REMARK    5  A    between atoms: C_3  and  N_14
REMARK    6  A    between atoms: N_14  and  C_15
REMARK    7  A    between atoms: C_15  and  C_16
REMARK    8  A    between atoms: C_16  and  C_17
REMARK    9  A    between atoms: C_17  and  N_18
REMARK   10  A    between atoms: N_18  and  C_19
REMARK                            x       y       z     vdW  Elec       q    Type
REMARK                         _______ _______ _______ _____ _____    ______ ____
ROOT
ATOM      1  C   UNL     1      -1.482  -0.592  -0.014  0.00  0.00    +0.061 C 
ENDROOT
BRANCH   1   2
ATOM      2  C   UNL     1      -2.099   0.104   1.171  0.00  0.00    -0.048 A 
ATOM      3  C   UNL     1      -3.092   1.047   0.979  0.00  0.00    +0.004 A 
ATOM      4  C   UNL     1      -3.659   1.686   2.066  0.00  0.00    +0.015 A 
ATOM      5  C   UNL     1      -3.232   1.382   3.346  0.00  0.00    +0.018 A 
ATOM      6  C   UNL     1      -2.239   0.438   3.538  0.00  0.00    +0.015 A 
ATOM      7  C   UNL     1      -1.677  -0.204   2.451  0.00  0.00    +0.004 A 
ATOM      8 BR   UNL     1      -4.007   2.256   4.834  0.00  0.00    -0.050 Br
ENDBRANCH   1   2
BRANCH   1   9
ATOM      9  C   UNL     1      -1.715  -2.077   0.098  0.00  0.00    +0.350 C 
ATOM     10  O   UNL     1      -1.162  -2.716   0.977  0.00  0.00    -0.248 OA
ATOM     11  O   UNL     1      -2.457  -2.639  -0.690  0.00  0.00    -0.248 OA
ENDBRANCH   1   9
BRANCH   1  12
ATOM     12  N   UNL     1      -2.098  -0.092  -1.251  0.00  0.00    +0.393 N 
ATOM     13  H   UNL     1      -3.070  -0.363  -1.277  0.00  0.00    -0.084 HD
ATOM     14  H   UNL     1      -2.029   0.914  -1.278  0.00  0.00    -0.084 HD
BRANCH  12  15
ATOM     15  C   UNL     1      -1.399  -0.662  -2.411  0.00  0.00    -0.082 C 
BRANCH  15  16
ATOM     16  C   UNL     1      -2.013  -0.108  -3.698  0.00  0.00    -0.038 C 
BRANCH  16  17
ATOM     17  C   UNL     1      -1.285  -0.702  -4.906  0.00  0.00    -0.084 C 
BRANCH  17  18
ATOM     18  N   UNL     1      -1.874  -0.170  -6.143  0.00  0.00    +0.381 N 
ATOM     19  H   UNL     1      -2.851  -0.417  -6.183  0.00  0.00    -0.086 HD
ATOM     20  H   UNL     1      -1.781   0.835  -6.154  0.00  0.00    -0.086 HD
BRANCH  18  21
ATOM     21  C   UNL     1      -1.175  -0.740  -7.302  0.00  0.00    -0.072 C 
ATOM     22  C   UNL     1      -0.407   0.224  -8.209  0.00  0.00    -0.017 C 
ATOM     23  C   UNL     1      -1.718  -0.399  -8.692  0.00  0.00    -0.017 C 
ENDBRANCH  18  21
ENDBRANCH  17  18
ENDBRANCH  16  17
ENDBRANCH  15  16
ENDBRANCH  12  15
ENDBRANCH   1  12
BRANCH   1  25
ATOM     24  C   UNL     1       0.258   1.195  -0.158  0.00  0.00    +0.003 C 
ATOM     25  C   UNL     1       0.021  -0.312  -0.044  0.00  0.00    -0.000 C 
ENDBRANCH   1  25
TORSDOF 9
