REMARK  Name = ZINC43548602
REMARK  14 active torsions:
REMARK  status: ('A' for Active; 'I' for Inactive)
REMARK    1  A    between atoms: C_1  and  C_2
REMARK    2  A    between atoms: C_2  and  C_3
REMARK    3  A    between atoms: C_3  and  C_4
REMARK    4  A    between atoms: C_4  and  N_5
REMARK    5  A    between atoms: C_12  and  C_35
REMARK    6  A    between atoms: C_15  and  C_25
REMARK    7  A    between atoms: C_17  and  O_24
REMARK    8  A    between atoms: C_21  and  C_23
REMARK    9  A    between atoms: C_25  and  C_27
REMARK   10  A    between atoms: C_25  and  C_28
REMARK   11  A    between atoms: N_30  and  C_31
REMARK   12  A    between atoms: N_30  and  C_33
REMARK   13  A    between atoms: C_31  and  C_32
REMARK   14  A    between atoms: C_33  and  C_34
REMARK                            x       y       z     vdW  Elec       q    Type
REMARK                         _______ _______ _______ _____ _____    ______ ____
ROOT
ATOM      1  N   UNL     1       3.421  -1.390  -0.005  0.00  0.00    -0.325 N 
ATOM      2  C   UNL     1       3.146  -2.662   0.472  0.00  0.00    +0.136 A 
ATOM      3  N   UNL     1       3.355  -3.147   1.676  0.00  0.00    -0.340 N 
ATOM      4  C   UNL     1       3.038  -4.399   1.995  0.00  0.00    +0.031 A 
ATOM      5  C   UNL     1       2.489  -5.124   0.987  0.00  0.00    +0.013 A 
ATOM      6  S   UNL     1       2.455  -3.962  -0.349  0.00  0.00    -0.059 S 
ATOM      7  C   UNL     1       2.034  -6.541   1.028  0.00  0.00    +0.051 C 
ATOM      8  C   UNL     1       1.919  -6.981   2.499  0.00  0.00    -0.022 C 
ATOM      9  C   UNL     1       1.855  -8.515   2.530  0.00  0.00    +0.008 C 
ATOM     10  C   UNL     1       3.081  -9.077   1.806  0.00  0.00    +0.007 C 
ATOM     11  C   UNL     1       4.358  -8.610   2.506  0.00  0.00    +0.029 C 
ATOM     12  C   UNL     1       4.413  -7.080   2.515  0.00  0.00    +0.123 C 
ATOM     13  C   UNL     1       3.183  -6.541   3.244  0.00  0.00    +0.033 C 
ATOM     14  C   UNL     1       3.249  -5.023   3.366  0.00  0.00    +0.039 C 
ATOM     15  C   UNL     1       2.155  -4.539   4.321  0.00  0.00    +0.014 C 
ATOM     16  C   UNL     1       0.675  -6.368   3.146  0.00  0.00    +0.012 C 
ATOM     17  H   UNL     1       3.824  -0.729   0.580  0.00  0.00    +0.148 HD
ATOM     18  H   UNL     1       3.753  -2.575   2.352  0.00  0.00    +0.167 HD
ENDROOT
BRANCH  12  19
ATOM     19  O   UNL     1       4.425  -6.594   1.171  0.00  0.00    -0.391 OA
ATOM     20  H   UNL     1       5.177  -6.903   0.648  0.00  0.00    +0.210 HD
ENDBRANCH  12  19
BRANCH  11  21
ATOM     21  C   UNL     1       5.576  -9.158   1.759  0.00  0.00    +0.078 C 
ATOM     22  C   UNL     1       5.527 -10.687   1.754  0.00  0.00    +0.017 C 
BRANCH  21  23
ATOM     23  C   UNL     1       6.835  -8.698   2.448  0.00  0.00    +0.219 C 
ATOM     24  O   UNL     1       6.772  -8.169   3.537  0.00  0.00    -0.275 OA
ATOM     25  N   UNL     1       8.032  -8.876   1.854  0.00  0.00    -0.302 N 
BRANCH  25  26
ATOM     26  C   UNL     1       9.261  -8.496   2.554  0.00  0.00    +0.104 C 
ATOM     27  C   UNL     1       9.812  -9.706   3.312  0.00  0.00    +0.024 C 
ENDBRANCH  25  26
BRANCH  25  28
ATOM     28  C   UNL     1       8.103  -9.450   0.507  0.00  0.00    +0.104 C 
ATOM     29  C   UNL     1       7.878  -8.348  -0.529  0.00  0.00    +0.024 C 
ENDBRANCH  25  28
ENDBRANCH  21  23
ENDBRANCH  11  21
BRANCH   1  30
ATOM     30  C   UNL     1       3.103  -1.043  -1.393  0.00  0.00    +0.103 C 
BRANCH  30  31
ATOM     31  C   UNL     1       3.503   0.409  -1.660  0.00  0.00    +0.018 C 
BRANCH  31  33
ATOM     32  C   UNL     1       3.571   2.224  -3.376  0.00  0.00    +0.004 C 
ATOM     33  C   UNL     1       3.171   0.772  -3.108  0.00  0.00    -0.002 C 
ENDBRANCH  31  33
ENDBRANCH  30  31
ENDBRANCH   1  30
TORSDOF 8
