REMARK  Name = ZINC02130566
REMARK  9 active torsions:
REMARK  status: ('A' for Active; 'I' for Inactive)
REMARK    1  A    between atoms: C_1  and  C_2
REMARK    2  A    between atoms: C_7  and  C_8
REMARK    3  A    between atoms: C_17  and  C_19
REMARK    4  A    between atoms: C_19  and  C_20
REMARK    5  A    between atoms: C_20  and  C_21
REMARK    6  A    between atoms: N_26  and  C_29
REMARK    7  A    between atoms: C_29  and  C_30
REMARK    8  A    between atoms: C_33  and  O_36
REMARK    9  A    between atoms: O_36  and  C_37
REMARK                            x       y       z     vdW  Elec       q    Type
REMARK                         _______ _______ _______ _____ _____    ______ ____
ROOT
ATOM      1  C   UNL     1       6.677   4.195  -2.808  0.00  0.00    +0.044 C 
ATOM      2  C   UNL     1       5.357   3.578  -2.422  0.00  0.00    -0.046 A 
ATOM      3  C   UNL     1       4.329   4.381  -1.963  0.00  0.00    +0.004 A 
ATOM      4  C   UNL     1       3.118   3.815  -1.608  0.00  0.00    +0.005 A 
ATOM      5  C   UNL     1       2.938   2.454  -1.711  0.00  0.00    -0.027 A 
ATOM      6  C   UNL     1       3.964   1.635  -2.173  0.00  0.00    +0.039 A 
ATOM      7  C   UNL     1       5.180   2.214  -2.528  0.00  0.00    -0.026 A 
ATOM      8  C   UNL     1       6.306   1.347  -3.031  0.00  0.00    +0.046 C 
ATOM      9  N   UNL     1       3.547   0.302  -2.193  0.00  0.00    -0.286 N 
ATOM     10  C   UNL     1       2.278   0.161  -1.764  0.00  0.00    +0.211 C 
ATOM     11  O   UNL     1       1.655  -0.876  -1.675  0.00  0.00    -0.277 OA
ATOM     12  C   UNL     1       1.783   1.538  -1.417  0.00  0.00    +0.050 C 
ATOM     13  C   UNL     1       0.543   1.912  -2.237  0.00  0.00    +0.088 C 
ATOM     14  C   UNL     1      -0.654   1.621  -1.289  0.00  0.00    +0.073 C 
ATOM     15  C   UNL     1      -0.013   1.086   0.008  0.00  0.00    -0.057 C 
ATOM     16  C   UNL     1      -1.236   2.992  -1.031  0.00  0.00    +0.224 C 
ATOM     17  O   UNL     1      -2.192   3.225  -0.322  0.00  0.00    -0.275 OA
ATOM     18  N   UNL     1      -0.532   3.908  -1.705  0.00  0.00    -0.237 N 
ATOM     19  C   UNL     1       0.486   3.413  -2.417  0.00  0.00    +0.225 C 
ATOM     20  O   UNL     1       1.246   4.065  -3.100  0.00  0.00    -0.275 OA
ATOM     21  H   UNL     1       4.106  -0.436  -2.482  0.00  0.00    +0.155 HD
ATOM     22  N   UNL     1       1.355   1.610  -0.031  0.00  0.00    +0.394 N 
ATOM     23  H   UNL     1       1.371   2.583   0.296  0.00  0.00    -0.083 HD
ATOM     24  H   UNL     1       1.970   1.039   0.561  0.00  0.00    -0.083 HD
ENDROOT
BRANCH  15  25
ATOM     25  C   UNL     1      -0.773   1.600   1.232  0.00  0.00    -0.006 C 
BRANCH  25  26
ATOM     26  C   UNL     1      -0.172   0.989   2.499  0.00  0.00    +0.094 C 
BRANCH  26  27
ATOM     27  C   UNL     1      -0.921   1.495   3.705  0.00  0.00    +0.210 C 
ATOM     28  O   UNL     1      -1.844   2.269   3.565  0.00  0.00    -0.276 OA
ATOM     29  N   UNL     1      -0.565   1.089   4.940  0.00  0.00    -0.329 N 
ATOM     30  H   UNL     1       0.174   0.470   5.052  0.00  0.00    +0.145 HD
ATOM     31  H   UNL     1      -1.047   1.415   5.716  0.00  0.00    +0.145 HD
ENDBRANCH  26  27
ENDBRANCH  25  26
ENDBRANCH  15  25
BRANCH  18  32
ATOM     32  C   UNL     1      -0.850   5.338  -1.667  0.00  0.00    +0.151 C 
BRANCH  32  33
ATOM     33  C   UNL     1      -1.820   5.666  -2.773  0.00  0.00    -0.029 A 
ATOM     34  C   UNL     1      -1.347   6.046  -4.015  0.00  0.00    +0.009 A 
ATOM     35  C   UNL     1      -2.234   6.342  -5.032  0.00  0.00    +0.046 A 
ATOM     36  C   UNL     1      -3.600   6.269  -4.803  0.00  0.00    +0.120 A 
ATOM     37  C   UNL     1      -4.072   5.893  -3.553  0.00  0.00    +0.046 A 
ATOM     38  C   UNL     1      -3.181   5.593  -2.541  0.00  0.00    +0.009 A 
BRANCH  36  39
ATOM     39  O   UNL     1      -4.475   6.565  -5.800  0.00  0.00    -0.495 OA
ATOM     40  C   UNL     1      -3.918   6.944  -7.060  0.00  0.00    +0.277 C 
ENDBRANCH  36  39
ENDBRANCH  32  33
ENDBRANCH  18  32
TORSDOF 6
