REMARK  Name = ZINC37929234
REMARK  4 active torsions:
REMARK  status: ('A' for Active; 'I' for Inactive)
REMARK    1  A    between atoms: C_1  and  N_2
REMARK    2  A    between atoms: N_6  and  S_9
REMARK    3  A    between atoms: S_9  and  C_12
REMARK    4  A    between atoms: C_17  and  N_18
REMARK                            x       y       z     vdW  Elec       q    Type
REMARK                         _______ _______ _______ _____ _____    ______ ____
ROOT
ATOM      1  S   UNL     1       0.854  -3.803   0.349  0.00  0.00    +0.063 S 
ATOM      2  O   UNL     1       1.503  -3.796  -0.915  0.00  0.00    -0.153 OA
ATOM      3  O   UNL     1       1.530  -3.470   1.554  0.00  0.00    -0.153 OA
ENDROOT
BRANCH   1   9
ATOM      4  C   UNL     1      -1.596   1.373   0.102  0.00  0.00    -0.096 C 
ATOM      5  N   UNL     1      -1.264  -0.047  -0.068  0.00  0.00    +0.379 N 
ATOM      6  C   UNL     1      -0.278  -0.213  -1.110  0.00  0.00    -0.078 C 
ATOM      7  C   UNL     1      -0.605  -1.473  -1.946  0.00  0.00    -0.002 C 
ATOM      8  C   UNL     1      -1.122  -2.603  -1.025  0.00  0.00    +0.107 C 
ATOM      9  N   UNL     1      -0.432  -2.767   0.227  0.00  0.00    -0.178 NA
ATOM     10  C   UNL     1      -0.896  -1.982   1.421  0.00  0.00    +0.091 C 
ATOM     11  C   UNL     1      -0.617  -0.568   1.132  0.00  0.00    -0.062 C 
ATOM     12  H   UNL     1      -2.095  -0.579  -0.279  0.00  0.00    -0.082 HD
ENDBRANCH   1   9
BRANCH   1  13
ATOM     13  C   UNL     1       0.199  -5.423   0.571  0.00  0.00    +0.127 A 
ATOM     14  C   UNL     1       0.378  -6.381  -0.408  0.00  0.00    +0.045 A 
ATOM     15  C   UNL     1      -0.137  -7.653  -0.235  0.00  0.00    +0.020 A 
ATOM     16  C   UNL     1      -0.833  -7.970   0.919  0.00  0.00    +0.017 A 
ATOM     17  C   UNL     1      -1.015  -7.016   1.901  0.00  0.00    +0.026 A 
ATOM     18  C   UNL     1      -0.494  -5.740   1.732  0.00  0.00    +0.051 A 
ATOM     19 BR   UNL     1       0.110  -8.962  -1.577  0.00  0.00    -0.050 Br
BRANCH  18  20
ATOM     20  N   UNL     1      -0.672  -4.774   2.727  0.00  0.00    -0.356 N 
ATOM     21  H   UNL     1      -0.202  -3.928   2.671  0.00  0.00    +0.142 HD
ATOM     22  H   UNL     1      -1.266  -4.951   3.473  0.00  0.00    +0.142 HD
ENDBRANCH  18  20
ENDBRANCH   1  13
TORSDOF 3
