REMARK  Name = ZINC42403367
REMARK  7 active torsions:
REMARK  status: ('A' for Active; 'I' for Inactive)
REMARK    1  A    between atoms: C_1  and  C_2
REMARK    2  A    between atoms: C_2  and  C_4
REMARK    3  A    between atoms: C_2  and  N_22
REMARK    4  A    between atoms: C_7  and  N_10
REMARK    5  A    between atoms: N_13  and  C_14
REMARK    6  A    between atoms: N_13  and  C_15
REMARK    7  A    between atoms: C_15  and  C_16
REMARK                            x       y       z     vdW  Elec       q    Type
REMARK                         _______ _______ _______ _____ _____    ______ ____
ROOT
ATOM      1  N   UNL     1      -5.321  -1.967   0.042  0.00  0.00    -0.269 N 
ATOM      2  C   UNL     1      -5.839  -2.485   1.173  0.00  0.00    +0.307 C 
ATOM      3  O   UNL     1      -5.200  -2.449   2.207  0.00  0.00    -0.252 OA
ATOM      4  N   UNL     1      -7.066  -3.042   1.159  0.00  0.00    -0.284 N 
ATOM      5  C   UNL     1      -7.836  -3.086  -0.087  0.00  0.00    +0.134 C 
ATOM      6  H   UNL     1      -5.855  -1.936  -0.766  0.00  0.00    +0.156 HD
ENDROOT
BRANCH   1  10
ATOM      7  C   UNL     1      -1.420  -0.504   0.020  0.00  0.00    -0.062 A 
ATOM      8  C   UNL     1      -2.205  -0.359   1.149  0.00  0.00    +0.004 A 
ATOM      9  C   UNL     1      -3.498  -0.843   1.159  0.00  0.00    +0.023 A 
ATOM     10  C   UNL     1      -4.010  -1.476   0.035  0.00  0.00    +0.035 A 
ATOM     11  C   UNL     1      -3.220  -1.620  -1.098  0.00  0.00    +0.023 A 
ATOM     12  C   UNL     1      -1.929  -1.129  -1.104  0.00  0.00    +0.004 A 
BRANCH   7  14
ATOM     13  C   UNL     1       0.912  -0.966   0.726  0.00  0.00    -0.009 C 
ATOM     14  C   UNL     1      -0.009   0.025   0.011  0.00  0.00    -0.047 C 
BRANCH  14  15
ATOM     15  N   UNL     1       0.033   1.319   0.705  0.00  0.00    +0.382 N 
ATOM     16  H   UNL     1       0.978   1.674   0.700  0.00  0.00    -0.089 HD
ATOM     17  H   UNL     1      -0.574   1.973   0.234  0.00  0.00    -0.089 HD
ATOM     18  H   UNL     1      -0.276   1.200   1.658  0.00  0.00    -0.089 HD
ENDBRANCH  14  15
ENDBRANCH   7  14
ENDBRANCH   1  10
BRANCH   4  19
ATOM     19  C   UNL     1      -7.630  -3.605   2.388  0.00  0.00    +0.151 C 
BRANCH  19  20
ATOM     20  C   UNL     1      -8.400  -2.538   3.122  0.00  0.00    +0.008 A 
ATOM     21  C   UNL     1      -9.710  -2.206   3.018  0.00  0.00    +0.028 A 
ATOM     22  C   UNL     1     -10.206  -1.179   3.800  0.00  0.00    +0.025 A 
ATOM     23  C   UNL     1      -9.367  -0.535   4.647  0.00  0.00    +0.060 A 
ATOM     24  S   UNL     1      -7.825  -1.387   4.360  0.00  0.00    -0.099 S 
ATOM     25 BR   UNL     1     -12.027  -0.681   3.689  0.00  0.00    -0.050 Br
ENDBRANCH  19  20
ENDBRANCH   4  19
TORSDOF 5
