REMARK  Name = ZINC32542233
REMARK  10 active torsions:
REMARK  status: ('A' for Active; 'I' for Inactive)
REMARK    1  A    between atoms: C_1  and  C_2
REMARK    2  A    between atoms: C_2  and  C_4
REMARK    3  A    between atoms: C_2  and  N_14
REMARK    4  A    between atoms: C_7  and  S_10
REMARK    5  A    between atoms: S_10  and  N_13
REMARK    6  A    between atoms: N_14  and  C_15
REMARK    7  A    between atoms: N_14  and  C_16
REMARK    8  A    between atoms: C_16  and  C_17
REMARK    9  A    between atoms: N_19  and  C_20
REMARK   10  A    between atoms: C_25  and  C_26
REMARK                            x       y       z     vdW  Elec       q    Type
REMARK                         _______ _______ _______ _____ _____    ______ ____
ROOT
ATOM      1  N   UNL     1      -3.510   4.484   4.791  0.00  0.00    +0.388 N 
ATOM      2  C   UNL     1      -4.274   4.704   3.556  0.00  0.00    -0.095 C 
ATOM      3  H   UNL     1      -2.595   5.092   4.735  0.00  0.00    -0.081 HD
ENDROOT
BRANCH   1   5
ATOM      4  C   UNL     1      -2.234   2.906   6.163  0.00  0.00    -0.008 C 
ATOM      5  C   UNL     1      -3.109   3.076   4.919  0.00  0.00    -0.041 C 
BRANCH   5   6
ATOM      6  C   UNL     1      -2.331   2.663   3.697  0.00  0.00    -0.061 A 
ATOM      7  C   UNL     1      -2.530   1.413   3.141  0.00  0.00    +0.004 A 
ATOM      8  C   UNL     1      -1.816   1.033   2.020  0.00  0.00    +0.029 A 
ATOM      9  C   UNL     1      -0.904   1.904   1.454  0.00  0.00    +0.105 A 
ATOM     10  C   UNL     1      -0.701   3.152   2.012  0.00  0.00    +0.029 A 
ATOM     11  C   UNL     1      -1.418   3.533   3.131  0.00  0.00    +0.004 A 
BRANCH   9  12
ATOM     12  S   UNL     1       0.006   1.420   0.025  0.00  0.00    +0.056 S 
ATOM     13  O   UNL     1       0.035  -0.001   0.023  0.00  0.00    -0.153 OA
ATOM     14  O   UNL     1       1.190   2.206   0.012  0.00  0.00    -0.153 OA
BRANCH  12  15
ATOM     15  N   UNL     1      -0.879   1.877  -1.298  0.00  0.00    -0.204 NA
ATOM     16  H   UNL     1      -0.343   1.592  -2.215  0.00  0.00    +0.144 HD
ATOM     17  H   UNL     1      -1.025   2.967  -1.282  0.00  0.00    +0.144 HD
ENDBRANCH  12  15
ENDBRANCH   9  12
ENDBRANCH   5   6
ENDBRANCH   1   5
BRANCH   1  18
ATOM     18  C   UNL     1      -4.272   4.923   5.968  0.00  0.00    +0.019 C 
BRANCH  18  19
ATOM     19  C   UNL     1      -4.453   6.418   5.919  0.00  0.00    +0.201 C 
ATOM     20  O   UNL     1      -3.993   7.056   4.996  0.00  0.00    -0.278 OA
ATOM     21  N   UNL     1      -5.128   7.048   6.902  0.00  0.00    -0.287 N 
ATOM     22  H   UNL     1      -5.623   6.463   7.691  0.00  0.00    +0.155 HD
BRANCH  21  23
ATOM     23  C   UNL     1      -5.197   8.443   6.919  0.00  0.00    +0.041 A 
ATOM     24  C   UNL     1      -4.213   9.197   6.295  0.00  0.00    +0.024 A 
ATOM     25  C   UNL     1      -4.284  10.577   6.313  0.00  0.00    +0.002 A 
ATOM     26  C   UNL     1      -5.334  11.214   6.951  0.00  0.00    +0.001 A 
ATOM     27  C   UNL     1      -6.320  10.477   7.575  0.00  0.00    +0.010 A 
ATOM     28  C   UNL     1      -6.262   9.086   7.559  0.00  0.00    +0.003 A 
BRANCH  28  29
ATOM     29  C   UNL     1      -7.322   8.289   8.223  0.00  0.00    -0.016 A 
ATOM     30  C   UNL     1      -7.948   7.249   7.538  0.00  0.00    +0.008 A 
ATOM     31  C   UNL     1      -8.931   6.508   8.163  0.00  0.00    +0.001 A 
ATOM     32  C   UNL     1      -9.302   6.803   9.462  0.00  0.00    +0.000 A 
ATOM     33  C   UNL     1      -8.688   7.837  10.145  0.00  0.00    +0.001 A 
ATOM     34  C   UNL     1      -7.700   8.581   9.533  0.00  0.00    +0.008 A 
ENDBRANCH  28  29
ENDBRANCH  21  23
ENDBRANCH  18  19
ENDBRANCH   1  18
TORSDOF 8
