REMARK  Name = ZINC07750569
REMARK  6 active torsions:
REMARK  status: ('A' for Active; 'I' for Inactive)
REMARK    1  A    between atoms: C_1  and  C_2
REMARK    2  A    between atoms: C_2  and  C_4
REMARK    3  A    between atoms: C_2  and  N_48
REMARK    4  A    between atoms: C_17  and  C_19
REMARK    5  A    between atoms: C_17  and  C_25
REMARK    6  A    between atoms: C_17  and  N_48
REMARK                            x       y       z     vdW  Elec       q    Type
REMARK                         _______ _______ _______ _____ _____    ______ ____
ROOT
ATOM      1  C   UNL     1       0.832   1.173  -2.949  0.00  0.00    -0.004 C 
ATOM      2  C   UNL     1      -0.484   0.711  -2.320  0.00  0.00    +0.015 C 
ENDROOT
BRANCH   2   3
ATOM      3  C   UNL     1      -1.593   0.828  -3.333  0.00  0.00    +0.206 C 
ATOM      4  O   UNL     1      -2.289   1.821  -3.359  0.00  0.00    -0.277 OA
ATOM      5  N   UNL     1      -1.812  -0.172  -4.211  0.00  0.00    -0.262 N 
ATOM      6  C   UNL     1      -1.049  -1.426  -4.138  0.00  0.00    +0.209 C 
ATOM      7  C   UNL     1      -0.668  -1.851  -5.533  0.00  0.00    +0.235 C 
ATOM      8  O   UNL     1       0.345  -2.496  -5.707  0.00  0.00    -0.274 OA
ATOM      9  N   UNL     1      -1.437  -1.524  -6.588  0.00  0.00    -0.283 N 
ATOM     10  C   UNL     1      -2.582  -0.738  -6.422  0.00  0.00    +0.055 A 
ATOM     11  C   UNL     1      -2.780  -0.050  -5.220  0.00  0.00    +0.058 A 
ATOM     12  C   UNL     1      -3.901   0.737  -5.047  0.00  0.00    +0.025 A 
ATOM     13  C   UNL     1      -4.836   0.835  -6.063  0.00  0.00    +0.002 A 
ATOM     14  C   UNL     1      -4.648   0.150  -7.249  0.00  0.00    +0.002 A 
ATOM     15  C   UNL     1      -3.525  -0.636  -7.432  0.00  0.00    +0.025 A 
ATOM     16  H   UNL     1      -1.194  -1.836  -7.474  0.00  0.00    +0.155 HD
ENDBRANCH   2   3
BRANCH   2  17
ATOM     17  N   UNL     1      -0.799   1.562  -1.157  0.00  0.00    +0.394 N 
ATOM     18  H   UNL     1      -1.813   1.556  -0.998  0.00  0.00    -0.083 HD
ATOM     19  H   UNL     1      -0.487   2.522  -1.345  0.00  0.00    -0.083 HD
BRANCH  17  20
ATOM     20  C   UNL     1      -0.115   1.056   0.049  0.00  0.00    -0.002 C 
BRANCH  20  21
ATOM     21  C   UNL     1      -0.876   1.498   1.272  0.00  0.00    -0.057 A 
ATOM     22  C   UNL     1      -1.412   2.771   1.329  0.00  0.00    +0.002 A 
ATOM     23  C   UNL     1      -2.114   3.175   2.450  0.00  0.00    +0.000 A 
ATOM     24  C   UNL     1      -2.273   2.310   3.516  0.00  0.00    +0.000 A 
ATOM     25  C   UNL     1      -1.732   1.038   3.460  0.00  0.00    +0.000 A 
ATOM     26  C   UNL     1      -1.034   0.633   2.338  0.00  0.00    +0.002 A 
ENDBRANCH  20  21
BRANCH  20  27
ATOM     27  C   UNL     1       1.286   1.608   0.102  0.00  0.00    -0.020 A 
ATOM     28  C   UNL     1       2.433   0.992   0.476  0.00  0.00    +0.010 A 
ATOM     29  C   UNL     1       3.618   1.703   0.444  0.00  0.00    +0.008 A 
ATOM     30  C   UNL     1       3.597   2.997   0.040  0.00  0.00    +0.045 A 
ATOM     31  S   UNL     1       1.866   3.243  -0.320  0.00  0.00    -0.103 S 
ENDBRANCH  20  27
ENDBRANCH  17  20
ENDBRANCH   2  17
TORSDOF 5
