REMARK  Name = ZINC37612922
REMARK  8 active torsions:
REMARK  status: ('A' for Active; 'I' for Inactive)
REMARK    1  A    between atoms: C_1  and  C_2
REMARK    2  A    between atoms: C_2  and  O_3
REMARK    3  A    between atoms: O_3  and  C_4
REMARK    4  A    between atoms: C_5  and  N_12
REMARK    5  A    between atoms: C_13  and  C_15
REMARK    6  A    between atoms: C_15  and  C_16
REMARK    7  A    between atoms: C_16  and  N_17
REMARK    8  A    between atoms: N_17  and  C_18
REMARK                            x       y       z     vdW  Elec       q    Type
REMARK                         _______ _______ _______ _____ _____    ______ ____
ROOT
ATOM      1  N   UNL     1      -1.511  -1.838  -2.414  0.00  0.00    -0.283 N 
ATOM      2  C   UNL     1      -1.495  -2.513  -3.581  0.00  0.00    +0.215 C 
ATOM      3  O   UNL     1      -1.636  -3.717  -3.587  0.00  0.00    -0.276 OA
ATOM      4  H   UNL     1      -1.463  -0.869  -2.414  0.00  0.00    +0.155 HD
ENDROOT
BRANCH   1   6
ATOM      5  C   UNL     1      -0.936  -2.059  -0.073  0.00  0.00    +0.156 A 
ATOM      6  C   UNL     1      -1.598  -2.536  -1.202  0.00  0.00    +0.078 A 
ATOM      7  C   UNL     1      -2.343  -3.703  -1.124  0.00  0.00    +0.047 A 
ATOM      8  C   UNL     1      -2.428  -4.391   0.073  0.00  0.00    +0.044 A 
ATOM      9  C   UNL     1      -1.771  -3.917   1.194  0.00  0.00    +0.039 A 
ATOM     10  C   UNL     1      -1.021  -2.756   1.122  0.00  0.00    +0.063 A 
ATOM     11 BR   UNL     1      -0.118  -2.116   2.655  0.00  0.00    -0.046 Br
ATOM     12 CL   UNL     1      -3.361  -5.851   0.169  0.00  0.00    -0.083 Cl
BRANCH   5  13
ATOM     13  O   UNL     1      -0.203  -0.916  -0.145  0.00  0.00    -0.489 OA
BRANCH  13  15
ATOM     14  C   UNL     1       1.829   0.334  -0.530  0.00  0.00    +0.048 C 
ATOM     15  C   UNL     1       1.174  -1.049  -0.501  0.00  0.00    +0.226 C 
ENDBRANCH  13  15
ENDBRANCH   5  13
ENDBRANCH   1   6
BRANCH   2  16
ATOM     16  C   UNL     1      -1.300  -1.771  -4.878  0.00  0.00    +0.077 C 
BRANCH  16  17
ATOM     17  C   UNL     1      -1.322  -2.763  -6.042  0.00  0.00    -0.073 C 
BRANCH  17  18
ATOM     18  N   UNL     1      -1.132  -2.040  -7.306  0.00  0.00    +0.381 N 
ATOM     19  H   UNL     1      -1.876  -1.368  -7.424  0.00  0.00    -0.086 HD
ATOM     20  H   UNL     1      -0.245  -1.560  -7.290  0.00  0.00    -0.086 HD
BRANCH  18  21
ATOM     21  C   UNL     1      -1.153  -2.993  -8.424  0.00  0.00    -0.072 C 
ATOM     22  C   UNL     1       0.126  -3.140  -9.250  0.00  0.00    -0.017 C 
ATOM     23  C   UNL     1      -1.088  -2.421  -9.841  0.00  0.00    -0.017 C 
ENDBRANCH  18  21
ENDBRANCH  17  18
ENDBRANCH  16  17
ENDBRANCH   2  16
TORSDOF 7
