REMARK  Name = ZINC46817892
REMARK  11 active torsions:
REMARK  status: ('A' for Active; 'I' for Inactive)
REMARK    1  A    between atoms: C_1  and  C_2
REMARK    2  A    between atoms: C_2  and  C_4
REMARK    3  A    between atoms: C_2  and  N_15
REMARK    4  A    between atoms: C_7  and  O_10
REMARK    5  A    between atoms: O_10  and  C_11
REMARK    6  A    between atoms: N_15  and  C_16
REMARK    7  A    between atoms: C_16  and  C_18
REMARK    8  A    between atoms: C_16  and  C_19
REMARK    9  A    between atoms: N_24  and  C_25
REMARK   10  A    between atoms: C_25  and  C_26
REMARK   11  A    between atoms: C_25  and  C_27
REMARK                            x       y       z     vdW  Elec       q    Type
REMARK                         _______ _______ _______ _____ _____    ______ ____
ROOT
ATOM      1  N   UNL     1      -1.371  -0.618  -0.013  0.00  0.00    +0.391 N 
ATOM      2  H   UNL     1      -1.374  -1.613   0.150  0.00  0.00    -0.084 HD
ATOM      3  H   UNL     1      -1.907  -0.157   0.707  0.00  0.00    -0.084 HD
ENDROOT
BRANCH   1   5
ATOM      4  C   UNL     1       0.586  -0.285   1.421  0.00  0.00    -0.009 C 
ATOM      5  C   UNL     1       0.011  -0.121   0.012  0.00  0.00    -0.043 C 
BRANCH   5   6
ATOM      6  C   UNL     1       0.846  -0.909  -0.965  0.00  0.00    -0.061 A 
ATOM      7  C   UNL     1       0.659  -2.273  -1.090  0.00  0.00    +0.005 A 
ATOM      8  C   UNL     1       1.423  -2.997  -1.984  0.00  0.00    +0.046 A 
ATOM      9  C   UNL     1       2.378  -2.354  -2.759  0.00  0.00    +0.130 A 
ATOM     10  C   UNL     1       2.563  -0.985  -2.632  0.00  0.00    +0.046 A 
ATOM     11  C   UNL     1       1.793  -0.265  -1.739  0.00  0.00    +0.005 A 
BRANCH   9  12
ATOM     12  O   UNL     1       3.131  -3.064  -3.639  0.00  0.00    -0.406 OA
BRANCH  12  13
ATOM     13  C   UNL     1       4.095  -2.336  -4.403  0.00  0.00    +0.575 C 
ATOM     14  F   UNL     1       5.007  -1.722  -3.538  0.00  0.00    -0.133 F 
ATOM     15  F   UNL     1       4.777  -3.215  -5.252  0.00  0.00    -0.133 F 
ATOM     16  F   UNL     1       3.445  -1.360  -5.166  0.00  0.00    -0.133 F 
ENDBRANCH  12  13
ENDBRANCH   9  12
ENDBRANCH   5   6
ENDBRANCH   1   5
BRANCH   1  17
ATOM     17  C   UNL     1      -1.968  -0.335  -1.325  0.00  0.00    +0.014 C 
ATOM     18  C   UNL     1      -2.097   1.179  -1.512  0.00  0.00    -0.004 C 
BRANCH  17  19
ATOM     19  C   UNL     1      -3.334  -0.968  -1.403  0.00  0.00    +0.206 C 
ATOM     20  O   UNL     1      -3.767  -1.593  -0.459  0.00  0.00    -0.277 OA
ATOM     21  N   UNL     1      -4.074  -0.839  -2.522  0.00  0.00    -0.242 N 
ATOM     22  C   UNL     1      -5.295  -1.405  -2.591  0.00  0.00    +0.306 C 
ATOM     23  O   UNL     1      -5.729  -2.032  -1.644  0.00  0.00    -0.252 OA
ATOM     24  N   UNL     1      -6.035  -1.277  -3.710  0.00  0.00    -0.297 N 
ATOM     25  H   UNL     1      -3.728  -0.339  -3.277  0.00  0.00    +0.159 HD
ATOM     26  H   UNL     1      -5.689  -0.776  -4.466  0.00  0.00    +0.151 HD
BRANCH  24  27
ATOM     27  C   UNL     1      -7.362  -1.892  -3.785  0.00  0.00    +0.068 C 
ATOM     28  C   UNL     1      -8.397  -0.949  -3.168  0.00  0.00    +0.027 C 
ATOM     29  C   UNL     1      -7.720  -2.155  -5.250  0.00  0.00    +0.027 C 
ENDBRANCH  24  27
ENDBRANCH  17  19
ENDBRANCH   1  17
TORSDOF 7
