REMARK  Name = ZINC12789537
REMARK  8 active torsions:
REMARK  status: ('A' for Active; 'I' for Inactive)
REMARK    1  A    between atoms: C_1  and  N_44
REMARK    2  A    between atoms: C_2  and  C_3
REMARK    3  A    between atoms: C_2  and  N_44
REMARK    4  A    between atoms: C_3  and  C_4
REMARK    5  A    between atoms: N_6  and  C_7
REMARK    6  A    between atoms: C_15  and  C_16
REMARK    7  A    between atoms: C_15  and  N_44
REMARK    8  A    between atoms: N_18  and  C_19
REMARK                            x       y       z     vdW  Elec       q    Type
REMARK                         _______ _______ _______ _____ _____    ______ ____
ROOT
ATOM      1  C   UNL     1       3.190   2.437  -1.241  0.00  0.00    -0.096 C 
ATOM      2  N   UNL     1       3.088   1.654   0.009  0.00  0.00    +0.384 N 
ATOM      3  H   UNL     1       3.014   2.301   0.802  0.00  0.00    -0.082 HD
ENDROOT
BRANCH   2   4
ATOM      4  C   UNL     1       1.883   0.799  -0.028  0.00  0.00    -0.069 C 
BRANCH   4   5
ATOM      5  C   UNL     1       0.642   1.693   0.019  0.00  0.00    +0.077 C 
BRANCH   5   6
ATOM      6  C   UNL     1      -0.596   0.834   0.005  0.00  0.00    +0.215 C 
ATOM      7  O   UNL     1      -0.496  -0.374  -0.038  0.00  0.00    -0.276 OA
ATOM      8  N   UNL     1      -1.815   1.409   0.035  0.00  0.00    -0.283 N 
ATOM      9  H   UNL     1      -1.895   2.371   0.127  0.00  0.00    +0.155 HD
BRANCH   8  10
ATOM     10  C   UNL     1      -2.966   0.617  -0.067  0.00  0.00    +0.069 A 
ATOM     11  C   UNL     1      -2.930  -0.715   0.325  0.00  0.00    +0.027 A 
ATOM     12  C   UNL     1      -4.066  -1.494   0.224  0.00  0.00    +0.017 A 
ATOM     13  C   UNL     1      -5.240  -0.949  -0.266  0.00  0.00    +0.021 A 
ATOM     14  C   UNL     1      -5.280   0.377  -0.657  0.00  0.00    +0.055 A 
ATOM     15  C   UNL     1      -4.147   1.164  -0.554  0.00  0.00    +0.146 A 
ATOM     16  F   UNL     1      -4.188   2.460  -0.931  0.00  0.00    -0.204 F 
ATOM     17 BR   UNL     1      -6.793  -2.021  -0.401  0.00  0.00    -0.050 Br
ENDBRANCH   8  10
ENDBRANCH   5   6
ENDBRANCH   4   5
ENDBRANCH   2   4
BRANCH   2  18
ATOM     18  C   UNL     1       4.295   0.818   0.181  0.00  0.00    +0.018 C 
BRANCH  18  19
ATOM     19  C   UNL     1       5.477   1.718   0.435  0.00  0.00    +0.201 C 
ATOM     20  O   UNL     1       5.330   2.922   0.452  0.00  0.00    -0.278 OA
ATOM     21  N   UNL     1       6.697   1.185   0.643  0.00  0.00    -0.286 N 
ATOM     22  H   UNL     1       6.831   0.229   0.551  0.00  0.00    +0.155 HD
BRANCH  21  23
ATOM     23  C   UNL     1       7.772   2.012   0.993  0.00  0.00    +0.052 A 
ATOM     24  C   UNL     1       7.559   3.131   1.787  0.00  0.00    +0.025 A 
ATOM     25  C   UNL     1       8.622   3.941   2.135  0.00  0.00    +0.002 A 
ATOM     26  C   UNL     1       9.896   3.646   1.683  0.00  0.00    +0.002 A 
ATOM     27  C   UNL     1      10.111   2.537   0.887  0.00  0.00    +0.022 A 
ATOM     28  C   UNL     1       9.052   1.718   0.540  0.00  0.00    +0.062 A 
ATOM     29 CL   UNL     1       9.322   0.325  -0.460  0.00  0.00    -0.082 Cl
ENDBRANCH  21  23
ENDBRANCH  18  19
ENDBRANCH   2  18
TORSDOF 7
