REMARK  Name = ZINC02952870
REMARK  7 active torsions:
REMARK  status: ('A' for Active; 'I' for Inactive)
REMARK    1  A    between atoms: C_1  and  C_2
REMARK    2  A    between atoms: C_9  and  C_11
REMARK    3  A    between atoms: C_14  and  N_17
REMARK    4  A    between atoms: C_19  and  C_31
REMARK    5  A    between atoms: C_22  and  C_29
REMARK    6  A    between atoms: C_25  and  C_28
REMARK    7  A    between atoms: C_29  and  O_30
REMARK                            x       y       z     vdW  Elec       q    Type
REMARK                         _______ _______ _______ _____ _____    ______ ____
ROOT
ATOM      1  N   UNL     1       0.153 -10.235   2.436  0.00  0.00    -0.325 N 
ATOM      2  C   UNL     1      -0.640 -11.057   1.782  0.00  0.00    +0.212 A 
ATOM      3  C   UNL     1      -0.560 -12.516   1.994  0.00  0.00    +0.097 A 
ATOM      4  C   UNL     1      -1.710 -13.254   1.755  0.00  0.00    +0.030 A 
ATOM      5  C   UNL     1      -2.896 -12.519   1.311  0.00  0.00    +0.027 A 
ATOM      6  C   UNL     1      -4.165 -13.110   1.290  0.00  0.00    +0.007 A 
ATOM      7  C   UNL     1      -5.237 -12.354   0.863  0.00  0.00    +0.117 A 
ATOM      8  N   UNL     1      -5.079 -11.100   0.479  0.00  0.00    -0.256 NA
ATOM      9  C   UNL     1      -3.906 -10.500   0.479  0.00  0.00    +0.081 A 
ATOM     10  C   UNL     1      -2.769 -11.181   0.892  0.00  0.00    +0.159 A 
ATOM     11  O   UNL     1      -1.557 -10.587   0.899  0.00  0.00    -0.437 OA
ATOM     12  C   UNL     1      -3.799  -9.066   0.029  0.00  0.00    +0.069 C 
ATOM     13  H   UNL     1       0.742 -10.575   3.127  0.00  0.00    +0.169 HD
ENDROOT
BRANCH   1  17
ATOM     14  C   UNL     1       0.136  -6.204   1.542  0.00  0.00    +0.007 A 
ATOM     15  C   UNL     1       0.123  -6.624   2.876  0.00  0.00    +0.012 A 
ATOM     16  C   UNL     1       0.129  -7.957   3.172  0.00  0.00    +0.026 A 
ATOM     17  C   UNL     1       0.147  -8.903   2.140  0.00  0.00    +0.042 A 
ATOM     18  C   UNL     1       0.160  -8.481   0.806  0.00  0.00    +0.026 A 
ATOM     19  C   UNL     1       0.149  -7.148   0.511  0.00  0.00    +0.012 A 
BRANCH  14  28
ATOM     20  C   UNL     1       0.107   1.482  -0.082  0.00  0.00    +0.044 C 
ATOM     21  C   UNL     1       0.115  -0.025  -0.077  0.00  0.00    -0.049 A 
ATOM     22  C   UNL     1       0.127  -0.729  -1.273  0.00  0.00    +0.005 A 
ATOM     23  C   UNL     1       0.134  -2.088  -1.301  0.00  0.00    +0.029 A 
ATOM     24  C   UNL     1       0.129  -2.839  -0.101  0.00  0.00    +0.079 A 
ATOM     25  C   UNL     1       0.117  -2.092   1.101  0.00  0.00    +0.040 A 
ATOM     26  C   UNL     1       0.115  -0.719   1.119  0.00  0.00    +0.020 A 
ATOM     27  S   UNL     1       0.115  -3.367   2.339  0.00  0.00    -0.067 S 
ATOM     28  C   UNL     1       0.130  -4.763   1.223  0.00  0.00    +0.109 A 
ATOM     29  N   UNL     1       0.136  -4.178   0.043  0.00  0.00    -0.239 NA
ENDBRANCH  14  28
ENDBRANCH   1  17
BRANCH   3  30
ATOM     30  C   UNL     1       0.688 -13.161   2.441  0.00  0.00    +0.247 C 
ATOM     31  O   UNL     1       1.655 -12.481   2.727  0.00  0.00    -0.270 OA
ATOM     32  N   UNL     1       0.758 -14.504   2.533  0.00  0.00    -0.325 N 
ATOM     33  H   UNL     1       0.013 -15.050   2.235  0.00  0.00    +0.145 HD
ATOM     34  H   UNL     1       1.553 -14.925   2.896  0.00  0.00    +0.145 HD
ENDBRANCH   3  30
BRANCH   6  35
ATOM     35  C   UNL     1      -4.356 -14.541   1.725  0.00  0.00    +0.193 C 
BRANCH  35  36
ATOM     36  O   UNL     1      -5.736 -14.894   1.608  0.00  0.00    -0.390 OA
ATOM     37  H   UNL     1      -5.933 -15.803   1.872  0.00  0.00    +0.210 HD
ENDBRANCH  35  36
ENDBRANCH   6  35
TORSDOF 5
