REMARK  Name = ZINC45717041
REMARK  9 active torsions:
REMARK  status: ('A' for Active; 'I' for Inactive)
REMARK    1  A    between atoms: C_1  and  C_2
REMARK    2  A    between atoms: C_4  and  C_29
REMARK    3  A    between atoms: C_8  and  N_28
REMARK    4  A    between atoms: C_9  and  C_11
REMARK    5  A    between atoms: C_11  and  O_13
REMARK    6  A    between atoms: O_13  and  C_14
REMARK    7  A    between atoms: C_14  and  C_15
REMARK    8  A    between atoms: N_17  and  C_18
REMARK    9  A    between atoms: C_21  and  N_25
REMARK                            x       y       z     vdW  Elec       q    Type
REMARK                         _______ _______ _______ _____ _____    ______ ____
ROOT
ATOM      1  C   UNL     1       1.548  -0.814   4.247  0.00  0.00    +0.348 C 
ATOM      2  O   UNL     1       1.529   0.286   4.768  0.00  0.00    -0.244 OA
ENDROOT
BRANCH   1  11
ATOM      3  C   UNL     1      -1.046   1.740   0.081  0.00  0.00    +0.044 C 
ATOM      4  C   UNL     1      -0.792   0.270  -0.132  0.00  0.00    -0.037 A 
ATOM      5  C   UNL     1      -1.189  -0.346  -1.295  0.00  0.00    +0.025 A 
ATOM      6  C   UNL     1      -0.954  -1.699  -1.488  0.00  0.00    +0.014 A 
ATOM      7  N   UNL     1      -0.347  -2.411  -0.558  0.00  0.00    -0.353 N 
ATOM      8  C   UNL     1       0.052  -1.868   0.571  0.00  0.00    +0.088 A 
ATOM      9  C   UNL     1      -0.135  -0.497   0.862  0.00  0.00    +0.030 A 
ATOM     10  C   UNL     1       0.374  -0.065   2.155  0.00  0.00    +0.055 A 
ATOM     11  C   UNL     1       0.984  -1.000   2.963  0.00  0.00    +0.119 A 
ATOM     12  S   UNL     1       0.879  -2.501   2.009  0.00  0.00    -0.062 S 
ATOM     13  C   UNL     1      -1.395  -2.361  -2.768  0.00  0.00    +0.063 C 
ATOM     14  H   UNL     1      -0.192  -3.357  -0.711  0.00  0.00    +0.166 HD
BRANCH  10  15
ATOM     15  N   UNL     1       0.249   1.255   2.563  0.00  0.00    -0.356 N 
ATOM     16  H   UNL     1       0.098   1.953   1.907  0.00  0.00    +0.142 HD
ATOM     17  H   UNL     1       0.312   1.480   3.504  0.00  0.00    +0.142 HD
ENDBRANCH  10  15
ENDBRANCH   1  11
BRANCH   1  18
ATOM     18  O   UNL     1       2.108  -1.857   4.896  0.00  0.00    -0.451 OA
BRANCH  18  19
ATOM     19  C   UNL     1       2.658  -1.598   6.189  0.00  0.00    +0.328 C 
BRANCH  19  20
ATOM     20  C   UNL     1       3.234  -2.871   6.754  0.00  0.00    +0.255 C 
ATOM     21  O   UNL     1       3.179  -3.899   6.113  0.00  0.00    -0.272 OA
ATOM     22  N   UNL     1       3.811  -2.866   7.972  0.00  0.00    -0.281 N 
ATOM     23  H   UNL     1       3.841  -2.048   8.492  0.00  0.00    +0.155 HD
BRANCH  22  24
ATOM     24  C   UNL     1       4.367  -4.043   8.487  0.00  0.00    +0.052 A 
ATOM     25  C   UNL     1       4.678  -5.096   7.637  0.00  0.00    +0.027 A 
ATOM     26  C   UNL     1       5.227  -6.256   8.149  0.00  0.00    +0.034 A 
ATOM     27  C   UNL     1       5.467  -6.370   9.506  0.00  0.00    +0.128 A 
ATOM     28  C   UNL     1       5.159  -5.324  10.356  0.00  0.00    +0.054 A 
ATOM     29  C   UNL     1       4.614  -4.158   9.850  0.00  0.00    +0.064 A 
ATOM     30 CL   UNL     1       4.234  -2.842  10.916  0.00  0.00    -0.082 Cl
BRANCH  27  31
ATOM     31  N   UNL     1       6.055  -7.615  10.050  0.00  0.00    +0.056 N 
ATOM     32  O   UNL     1       6.325  -8.530   9.308  0.00  0.00    -0.126 OA
ATOM     33  O   UNL     1       6.265  -7.716  11.236  0.00  0.00    -0.126 OA
ENDBRANCH  27  31
ENDBRANCH  22  24
ENDBRANCH  19  20
ENDBRANCH  18  19
ENDBRANCH   1  18
TORSDOF 7
