REMARK  Name = ZINC35427132
REMARK  7 active torsions:
REMARK  status: ('A' for Active; 'I' for Inactive)
REMARK    1  A    between atoms: C_1  and  C_2
REMARK    2  A    between atoms: C_6  and  N_9
REMARK    3  A    between atoms: C_7  and  C_8
REMARK    4  A    between atoms: C_24  and  C_26
REMARK    5  A    between atoms: C_29  and  O_32
REMARK    6  A    between atoms: O_32  and  C_33
REMARK    7  A    between atoms: N_35  and  C_38
REMARK                            x       y       z     vdW  Elec       q    Type
REMARK                         _______ _______ _______ _____ _____    ______ ____
ROOT
ATOM      1  N   UNL     1       0.052  -2.802   2.380  0.00  0.00    -0.269 N 
ATOM      2  C   UNL     1      -0.032  -4.147   2.377  0.00  0.00    +0.308 C 
ATOM      3  O   UNL     1      -0.031  -4.755   1.324  0.00  0.00    -0.252 OA
ATOM      4  N   UNL     1      -0.118  -4.819   3.543  0.00  0.00    -0.268 N 
ATOM      5  C   UNL     1      -0.128  -4.118   4.839  0.00  0.00    +0.148 C 
ATOM      6  C   UNL     1       0.679  -4.835   5.899  0.00  0.00    +0.004 A 
ATOM      7  C   UNL     1       1.891  -4.336   6.412  0.00  0.00    -0.034 A 
ATOM      8  C   UNL     1       2.520  -5.062   7.375  0.00  0.00    -0.021 A 
ATOM      9  S   UNL     1       1.458  -6.463   7.609  0.00  0.00    -0.077 S 
ATOM     10  C   UNL     1       0.244  -6.022   6.403  0.00  0.00    +0.090 A 
ATOM     11  N   UNL     1      -0.905  -6.675   5.976  0.00  0.00    -0.312 N 
ATOM     12  C   UNL     1      -1.910  -7.263   6.666  0.00  0.00    +0.092 A 
ATOM     13  C   UNL     1      -2.833  -7.693   5.775  0.00  0.00    +0.020 A 
ATOM     14  C   UNL     1      -2.361  -7.370   4.484  0.00  0.00    +0.025 A 
ATOM     15  C   UNL     1      -1.170  -6.771   4.630  0.00  0.00    +0.049 A 
ATOM     16  C   UNL     1      -0.212  -6.298   3.582  0.00  0.00    +0.155 C 
ATOM     17  C   UNL     1       3.807  -4.727   8.054  0.00  0.00    -0.036 C 
ATOM     18  N   UNL     1       4.486  -3.680   7.266  0.00  0.00    +0.381 N 
ATOM     19  C   UNL     1       3.544  -2.589   6.988  0.00  0.00    -0.074 C 
ATOM     20  C   UNL     1       2.517  -3.026   5.940  0.00  0.00    +0.018 C 
ATOM     21  C   UNL     1       5.629  -3.159   8.027  0.00  0.00    -0.096 C 
ATOM     22  H   UNL     1       0.134  -2.322   3.219  0.00  0.00    +0.156 HD
ATOM     23  H   UNL     1       4.812  -4.073   6.396  0.00  0.00    -0.082 HD
ENDROOT
BRANCH   1  29
ATOM     24  C   UNL     1       1.198   1.221  -0.203  0.00  0.00    +0.044 C 
ATOM     25  C   UNL     1       0.569  -0.145  -0.109  0.00  0.00    -0.046 A 
ATOM     26  C   UNL     1      -0.039  -0.703  -1.218  0.00  0.00    +0.004 A 
ATOM     27  C   UNL     1      -0.617  -1.957  -1.136  0.00  0.00    +0.002 A 
ATOM     28  C   UNL     1      -0.589  -2.655   0.056  0.00  0.00    +0.023 A 
ATOM     29  C   UNL     1       0.021  -2.097   1.171  0.00  0.00    +0.038 A 
ATOM     30  C   UNL     1       0.606  -0.840   1.083  0.00  0.00    -0.026 A 
ATOM     31  C   UNL     1       1.275  -0.234   2.290  0.00  0.00    +0.046 C 
ENDBRANCH   1  29
BRANCH  16  32
ATOM     32  C   UNL     1       1.151  -6.869   3.875  0.00  0.00    -0.021 A 
ATOM     33  C   UNL     1       1.265  -8.072   4.547  0.00  0.00    +0.009 A 
ATOM     34  C   UNL     1       2.513  -8.598   4.817  0.00  0.00    +0.046 A 
ATOM     35  C   UNL     1       3.653  -7.918   4.414  0.00  0.00    +0.120 A 
ATOM     36  C   UNL     1       3.536  -6.712   3.740  0.00  0.00    +0.046 A 
ATOM     37  C   UNL     1       2.285  -6.192   3.467  0.00  0.00    +0.009 A 
BRANCH  35  38
ATOM     38  O   UNL     1       4.883  -8.433   4.679  0.00  0.00    -0.495 OA
ATOM     39  C   UNL     1       6.012  -7.679   4.234  0.00  0.00    +0.277 C 
ENDBRANCH  35  38
ENDBRANCH  16  32
TORSDOF 3
