REMARK  Name = ZINC52636815
REMARK  10 active torsions:
REMARK  status: ('A' for Active; 'I' for Inactive)
REMARK    1  A    between atoms: C_1  and  C_2
REMARK    2  A    between atoms: C_2  and  C_41
REMARK    3  A    between atoms: N_20  and  C_21
REMARK    4  A    between atoms: C_21  and  C_23
REMARK    5  A    between atoms: C_21  and  C_31
REMARK    6  A    between atoms: C_23  and  C_24
REMARK    7  A    between atoms: C_27  and  O_30
REMARK    8  A    between atoms: C_31  and  O_33
REMARK    9  A    between atoms: O_33  and  C_34
REMARK   10  A    between atoms: C_34  and  C_35
REMARK                            x       y       z     vdW  Elec       q    Type
REMARK                         _______ _______ _______ _____ _____    ______ ____
ROOT
ATOM      1  C   UNL     1      -0.019   1.526   0.010  0.00  0.00    +0.049 C 
ATOM      2  C   UNL     1       0.002  -0.004   0.002  0.00  0.00    +0.087 C 
ATOM      3  N   UNL     1      -1.368  -0.542   0.112  0.00  0.00    -0.268 NA
ATOM      4  C   UNL     1      -2.376   0.141  -0.677  0.00  0.00    +0.116 C 
ATOM      5  C   UNL     1      -3.766  -0.135  -0.091  0.00  0.00    +0.120 C 
ATOM      6  C   UNL     1      -3.665  -1.379   0.785  0.00  0.00    -0.035 C 
ATOM      7  C   UNL     1      -4.520  -2.264   0.294  0.00  0.00    -0.001 A 
ATOM      8  C   UNL     1      -4.896  -3.617   0.736  0.00  0.00    +0.010 A 
ATOM      9  C   UNL     1      -5.823  -4.260  -0.021  0.00  0.00    +0.001 A 
ATOM     10  C   UNL     1      -6.407  -3.700  -1.162  0.00  0.00    +0.002 A 
ATOM     11  C   UNL     1      -6.123  -2.462  -1.639  0.00  0.00    +0.026 A 
ATOM     12  C   UNL     1      -5.163  -1.687  -0.926  0.00  0.00    +0.043 A 
ATOM     13  N   UNL     1      -4.720  -0.474  -1.153  0.00  0.00    -0.376 N 
ATOM     14  C   UNL     1      -2.688  -1.460   1.941  0.00  0.00    +0.062 C 
ATOM     15  C   UNL     1      -1.597  -0.445   1.576  0.00  0.00    +0.149 C 
ATOM     16  C   UNL     1      -0.252  -0.808   2.154  0.00  0.00    +0.235 C 
ATOM     17  O   UNL     1      -0.043  -1.271   3.255  0.00  0.00    -0.274 OA
ATOM     18  N   UNL     1       0.683  -0.521   1.210  0.00  0.00    -0.268 N 
ATOM     19  C   UNL     1       0.686  -0.524  -1.264  0.00  0.00    +0.049 C 
ATOM     20  H   UNL     1      -4.973   0.102  -1.891  0.00  0.00    +0.160 HD
ENDROOT
BRANCH  18  21
ATOM     21  C   UNL     1       2.129  -0.695   1.364  0.00  0.00    +0.191 C 
BRANCH  21  22
ATOM     22  C   UNL     1       2.435  -2.146   1.637  0.00  0.00    +0.329 C 
ATOM     23  O   UNL     1       1.536  -2.951   1.697  0.00  0.00    -0.249 OA
BRANCH  22  24
ATOM     24  O   UNL     1       3.705  -2.542   1.813  0.00  0.00    -0.459 OA
BRANCH  24  25
ATOM     25  C   UNL     1       3.921  -3.932   2.068  0.00  0.00    +0.267 C 
BRANCH  25  26
ATOM     26  C   UNL     1       5.396  -4.188   2.238  0.00  0.00    -0.010 A 
ATOM     27  C   UNL     1       6.175  -4.500   1.139  0.00  0.00    +0.007 A 
ATOM     28  C   UNL     1       7.528  -4.735   1.295  0.00  0.00    +0.000 A 
ATOM     29  C   UNL     1       8.103  -4.657   2.550  0.00  0.00    +0.000 A 
ATOM     30  C   UNL     1       7.325  -4.344   3.648  0.00  0.00    +0.000 A 
ATOM     31  C   UNL     1       5.972  -4.105   3.492  0.00  0.00    +0.007 A 
ENDBRANCH  25  26
ENDBRANCH  24  25
ENDBRANCH  22  24
ENDBRANCH  21  22
BRANCH  21  32
ATOM     32  C   UNL     1       2.625   0.159   2.532  0.00  0.00    +0.069 C 
BRANCH  32  33
ATOM     33  C   UNL     1       2.431   1.617   2.206  0.00  0.00    -0.045 A 
ATOM     34  C   UNL     1       3.433   2.320   1.562  0.00  0.00    +0.007 A 
ATOM     35  C   UNL     1       3.258   3.657   1.262  0.00  0.00    +0.045 A 
ATOM     36  C   UNL     1       2.076   4.295   1.608  0.00  0.00    +0.117 A 
ATOM     37  C   UNL     1       1.072   3.588   2.253  0.00  0.00    +0.045 A 
ATOM     38  C   UNL     1       1.249   2.250   2.546  0.00  0.00    +0.007 A 
BRANCH  36  39
ATOM     39  O   UNL     1       1.901   5.610   1.314  0.00  0.00    -0.507 OA
ATOM     40  H   UNL     1       1.504   5.771   0.447  0.00  0.00    +0.292 HD
ENDBRANCH  36  39
ENDBRANCH  32  33
ENDBRANCH  21  32
ENDBRANCH  18  21
TORSDOF 8
