REMARK  Name = ZINC38546707
REMARK  10 active torsions:
REMARK  status: ('A' for Active; 'I' for Inactive)
REMARK    1  A    between atoms: C_1  and  C_2
REMARK    2  A    between atoms: C_3  and  C_32
REMARK    3  A    between atoms: C_5  and  N_24
REMARK    4  A    between atoms: C_6  and  C_7
REMARK    5  A    between atoms: C_7  and  C_9
REMARK    6  A    between atoms: C_7  and  N_17
REMARK    7  A    between atoms: C_14  and  O_15
REMARK    8  A    between atoms: O_15  and  C_16
REMARK    9  A    between atoms: C_20  and  C_23
REMARK   10  A    between atoms: C_25  and  C_27
REMARK                            x       y       z     vdW  Elec       q    Type
REMARK                         _______ _______ _______ _____ _____    ______ ____
ROOT
ATOM      1  C   UNL     1       0.274  -0.052   2.517  0.00  0.00    -0.001 C 
ENDROOT
BRANCH   1   2
ATOM      2  N   UNL     1       1.345  -0.671   3.309  0.00  0.00    +0.387 N 
ATOM      3  C   UNL     1       2.642  -0.385   2.684  0.00  0.00    -0.077 C 
ATOM      4  C   UNL     1       3.753  -1.095   3.460  0.00  0.00    -0.015 C 
ATOM      5  C   UNL     1       3.760  -0.592   4.906  0.00  0.00    -0.018 C 
ATOM      6  C   UNL     1       2.379  -0.828   5.525  0.00  0.00    -0.015 C 
ATOM      7  C   UNL     1       1.318  -0.128   4.673  0.00  0.00    -0.077 C 
ATOM      8  C   UNL     1       4.817  -1.355   5.708  0.00  0.00    +0.007 C 
ATOM      9  H   UNL     1       1.203  -1.669   3.342  0.00  0.00    -0.080 HD
ENDBRANCH   1   2
BRANCH   1  15
ATOM     10  C   UNL     1       0.247   1.904   0.357  0.00  0.00    +0.045 C 
ATOM     11  C   UNL     1       0.379   0.434   0.055  0.00  0.00    -0.037 A 
ATOM     12  C   UNL     1       0.493   0.003  -1.224  0.00  0.00    -0.008 A 
ATOM     13  S   UNL     1       0.616  -1.766  -1.012  0.00  0.00    -0.078 S 
ATOM     14  C   UNL     1       0.508  -1.815   0.769  0.00  0.00    +0.074 A 
ATOM     15  C   UNL     1       0.392  -0.494   1.081  0.00  0.00    -0.025 A 
ATOM     16  C   UNL     1       0.510   0.808  -2.498  0.00  0.00    +0.052 C 
BRANCH  14  17
ATOM     17  N   UNL     1       0.540  -2.921   1.622  0.00  0.00    -0.275 N 
ATOM     18  C   UNL     1       0.778  -4.150   1.123  0.00  0.00    +0.255 C 
ATOM     19  O   UNL     1       0.966  -4.296  -0.071  0.00  0.00    -0.269 OA
ATOM     20  H   UNL     1       0.390  -2.804   2.573  0.00  0.00    +0.156 HD
BRANCH  18  21
ATOM     21  C   UNL     1       0.812  -5.310   2.018  0.00  0.00    +0.074 A 
ATOM     22  C   UNL     1       1.043  -6.643   1.713  0.00  0.00    +0.021 A 
ATOM     23  C   UNL     1       1.011  -7.513   2.776  0.00  0.00    +0.008 A 
ATOM     24  C   UNL     1       0.763  -7.027   4.018  0.00  0.00    +0.046 A 
ATOM     25  S   UNL     1       0.573  -5.375   3.783  0.00  0.00    -0.092 S 
ENDBRANCH  18  21
ENDBRANCH  14  17
ENDBRANCH   1  15
BRANCH   1  26
ATOM     26  C   UNL     1      -1.065  -0.475   3.064  0.00  0.00    -0.015 A 
ATOM     27  C   UNL     1      -1.171  -1.630   3.814  0.00  0.00    +0.006 A 
ATOM     28  C   UNL     1      -2.399  -2.019   4.316  0.00  0.00    +0.000 A 
ATOM     29  C   UNL     1      -3.524  -1.253   4.070  0.00  0.00    +0.004 A 
ATOM     30  C   UNL     1      -3.423  -0.097   3.321  0.00  0.00    +0.046 A 
ATOM     31  C   UNL     1      -2.190   0.298   2.820  0.00  0.00    +0.122 A 
BRANCH  31  32
ATOM     32  O   UNL     1      -2.087   1.438   2.087  0.00  0.00    -0.495 OA
ATOM     33  C   UNL     1      -3.287   2.185   1.876  0.00  0.00    +0.277 C 
ENDBRANCH  31  32
ENDBRANCH   1  26
TORSDOF 6
