REMARK  Name = ZINC65393552
REMARK  4 active torsions:
REMARK  status: ('A' for Active; 'I' for Inactive)
REMARK    1  A    between atoms: C_6  and  N_7
REMARK    2  A    between atoms: C_17  and  N_20
REMARK    3  A    between atoms: C_24  and  C_27
REMARK    4  A    between atoms: C_27  and  O_28
REMARK                            x       y       z     vdW  Elec       q    Type
REMARK                         _______ _______ _______ _____ _____    ______ ____
ROOT
ATOM      1  C   UNL     1       0.030   1.400  -0.309  0.00  0.00    +0.087 A 
ATOM      2  C   UNL     1       1.233   2.063  -0.081  0.00  0.00    +0.128 A 
ATOM      3  N   UNL     1       2.319   1.352   0.211  0.00  0.00    -0.200 NA
ATOM      4  C   UNL     1       2.265   0.031   0.287  0.00  0.00    +0.216 A 
ATOM      5  N   UNL     1       1.139  -0.633   0.076  0.00  0.00    -0.200 NA
ATOM      6  C   UNL     1       0.013   0.011  -0.220  0.00  0.00    +0.128 A 
ATOM      7  N   UNL     1       3.416  -0.674   0.594  0.00  0.00    -0.327 N 
ATOM      8  N   UNL     1       1.298   3.446  -0.159  0.00  0.00    -0.315 N 
ATOM      9  C   UNL     1       2.595   4.135  -0.159  0.00  0.00    +0.105 C 
ATOM     10  C   UNL     1       2.591   5.193   0.950  0.00  0.00    +0.004 C 
ATOM     11  C   UNL     1       1.387   6.119   0.762  0.00  0.00    -0.066 C 
ATOM     12  C   UNL     1       0.095   5.305   0.865  0.00  0.00    +0.004 C 
ATOM     13  C   UNL     1       0.071   4.249  -0.250  0.00  0.00    +0.105 C 
ATOM     14  H   UNL     1       4.248  -0.200   0.750  0.00  0.00    +0.145 HD
ATOM     15  H   UNL     1       3.391  -1.641   0.652  0.00  0.00    +0.145 HD
ENDROOT
BRANCH  11  16
ATOM     16  N   UNL     1       1.398   7.154   1.804  0.00  0.00    +0.382 N 
ATOM     17  C   UNL     1       2.641   7.929   1.708  0.00  0.00    -0.078 C 
ATOM     18  C   UNL     1       2.695   8.955   2.841  0.00  0.00    -0.018 C 
ATOM     19  C   UNL     1       1.494   9.898   2.726  0.00  0.00    +0.002 C 
ATOM     20  C   UNL     1       0.204   9.072   2.752  0.00  0.00    -0.002 C 
ATOM     21  C   UNL     1       0.243   8.041   1.622  0.00  0.00    -0.073 C 
ATOM     22  H   UNL     1       1.345   6.717   2.712  0.00  0.00    -0.081 HD
BRANCH  20  23
ATOM     23  C   UNL     1      -0.999   9.998   2.560  0.00  0.00    +0.157 C 
BRANCH  23  24
ATOM     24  O   UNL     1      -1.098  10.887   3.674  0.00  0.00    -0.395 OA
ATOM     25  H   UNL     1      -1.841  11.505   3.619  0.00  0.00    +0.209 HD
ENDBRANCH  23  24
ENDBRANCH  20  23
ENDBRANCH  11  16
BRANCH   6  26
ATOM     26  N   UNL     1      -1.162  -0.692  -0.439  0.00  0.00    -0.311 N 
ATOM     27  C   UNL     1      -1.223  -2.148  -0.233  0.00  0.00    +0.134 C 
ATOM     28  C   UNL     1      -2.430  -2.460   0.658  0.00  0.00    +0.178 C 
ATOM     29  O   UNL     1      -3.596  -1.848   0.102  0.00  0.00    -0.377 OA
ATOM     30  C   UNL     1      -3.536  -0.421   0.040  0.00  0.00    +0.178 C 
ATOM     31  C   UNL     1      -2.386  -0.004  -0.878  0.00  0.00    +0.134 C 
ENDBRANCH   6  26
TORSDOF 4
