REMARK  Name = ZINC63160878
REMARK  6 active torsions:
REMARK  status: ('A' for Active; 'I' for Inactive)
REMARK    1  A    between atoms: C_6  and  C_7
REMARK    2  A    between atoms: C_9  and  C_18
REMARK    3  A    between atoms: C_18  and  C_19
REMARK    4  A    between atoms: C_19  and  C_20
REMARK    5  A    between atoms: N_22  and  C_23
REMARK    6  A    between atoms: C_26  and  C_29
REMARK                            x       y       z     vdW  Elec       q    Type
REMARK                         _______ _______ _______ _____ _____    ______ ____
ROOT
ATOM      1  C   UNL     1      -1.284  -0.776   0.008  0.00  0.00    +0.137 C 
ATOM      2  C   UNL     1      -1.605  -1.268  -1.385  0.00  0.00    -0.034 C 
ATOM      3  C   UNL     1      -1.632  -2.618  -1.309  0.00  0.00    +0.002 A 
ATOM      4  C   UNL     1      -1.884  -3.665  -2.306  0.00  0.00    +0.048 A 
ATOM      5  C   UNL     1      -1.842  -4.962  -1.921  0.00  0.00    +0.124 A 
ATOM      6  C   UNL     1      -1.563  -5.329  -0.595  0.00  0.00    +0.040 A 
ATOM      7  C   UNL     1      -1.321  -4.424   0.375  0.00  0.00    +0.029 A 
ATOM      8  C   UNL     1      -1.340  -3.032   0.082  0.00  0.00    +0.043 A 
ATOM      9  N   UNL     1      -1.141  -1.978   0.838  0.00  0.00    -0.374 N 
ATOM     10  F   UNL     1      -2.074  -5.928  -2.837  0.00  0.00    -0.205 F 
ATOM     11  H   UNL     1      -0.934  -1.990   1.786  0.00  0.00    +0.161 HD
ENDROOT
BRANCH   1  17
ATOM     12  C   UNL     1      -0.024   1.387   0.009  0.00  0.00    +0.009 A 
ATOM     13  C   UNL     1       1.157   2.104   0.001  0.00  0.00    +0.039 A 
ATOM     14  C   UNL     1       2.371   1.437  -0.018  0.00  0.00    +0.123 A 
ATOM     15  C   UNL     1       2.399   0.053  -0.028  0.00  0.00    +0.039 A 
ATOM     16  C   UNL     1       1.216  -0.662  -0.020  0.00  0.00    +0.009 A 
ATOM     17  C   UNL     1       0.005   0.005  -0.001  0.00  0.00    -0.021 A 
ATOM     18  F   UNL     1       3.527   2.137  -0.026  0.00  0.00    -0.205 F 
ENDBRANCH   1  17
BRANCH   2  19
ATOM     19  C   UNL     1      -1.847  -0.425  -2.610  0.00  0.00    +0.043 C 
BRANCH  19  20
ATOM     20  C   UNL     1      -2.139  -1.334  -3.806  0.00  0.00    +0.100 C 
BRANCH  20  21
ATOM     21  C   UNL     1      -2.381  -0.491  -5.031  0.00  0.00    +0.217 C 
ATOM     22  O   UNL     1      -2.326   0.719  -4.956  0.00  0.00    -0.275 OA
ATOM     23  N   UNL     1      -2.658  -1.080  -6.211  0.00  0.00    -0.285 N 
ATOM     24  H   UNL     1      -2.636  -2.047  -6.287  0.00  0.00    +0.155 HD
BRANCH  23  25
ATOM     25  C   UNL     1      -2.977  -0.300  -7.322  0.00  0.00    +0.033 A 
ATOM     26  C   UNL     1      -2.355   0.931  -7.508  0.00  0.00    +0.024 A 
ATOM     27  C   UNL     1      -2.667   1.703  -8.604  0.00  0.00    +0.015 A 
ATOM     28  C   UNL     1      -3.609   1.249  -9.531  0.00  0.00    +0.037 A 
ATOM     29  C   UNL     1      -4.231   0.012  -9.342  0.00  0.00    +0.015 A 
ATOM     30  C   UNL     1      -3.911  -0.757  -8.246  0.00  0.00    +0.024 A 
BRANCH  28  31
ATOM     31  C   UNL     1      -3.947   2.075 -10.707  0.00  0.00    +0.242 C 
ATOM     32  O   UNL     1      -3.405   3.151 -10.870  0.00  0.00    -0.270 OA
ATOM     33  N   UNL     1      -4.856   1.636 -11.600  0.00  0.00    -0.325 N 
ATOM     34  H   UNL     1      -5.288   0.777 -11.470  0.00  0.00    +0.145 HD
ATOM     35  H   UNL     1      -5.077   2.178 -12.373  0.00  0.00    +0.145 HD
ENDBRANCH  28  31
ENDBRANCH  23  25
ENDBRANCH  20  21
ENDBRANCH  19  20
ENDBRANCH   2  19
TORSDOF 6
