REMARK  Name = ZINC43497791
REMARK  4 active torsions:
REMARK  status: ('A' for Active; 'I' for Inactive)
REMARK    1  A    between atoms: C_1  and  C_2
REMARK    2  A    between atoms: C_7  and  C_23
REMARK    3  A    between atoms: N_12  and  C_16
REMARK    4  A    between atoms: C_16  and  C_17
REMARK                            x       y       z     vdW  Elec       q    Type
REMARK                         _______ _______ _______ _____ _____    ______ ____
ROOT
ATOM      1  C   UNL     1      -0.019   1.526   0.010  0.00  0.00    +0.010 C 
ATOM      2  C   UNL     1       0.002  -0.004   0.002  0.00  0.00    +0.019 C 
ATOM      3  C   UNL     1      -1.434  -0.534   0.012  0.00  0.00    +0.006 C 
ATOM      4  C   UNL     1      -1.412  -2.064   0.024  0.00  0.00    +0.001 C 
ATOM      5  C   UNL     1      -0.687  -2.556   1.279  0.00  0.00    +0.006 C 
ATOM      6  C   UNL     1       0.752  -2.033   1.273  0.00  0.00    +0.019 C 
ATOM      7  C   UNL     1       0.740  -0.509   1.237  0.00  0.00    +0.118 C 
ATOM      8  C   UNL     1       2.151   0.030   1.266  0.00  0.00    +0.247 C 
ATOM      9  O   UNL     1       3.026  -0.158   0.448  0.00  0.00    -0.273 OA
ATOM     10  N   UNL     1       2.233   0.767   2.394  0.00  0.00    -0.224 N 
ATOM     11  C   UNL     1       1.077   0.763   3.069  0.00  0.00    +0.309 C 
ATOM     12  O   UNL     1       0.904   1.356   4.116  0.00  0.00    -0.252 OA
ATOM     13  N   UNL     1       0.127   0.030   2.458  0.00  0.00    -0.284 N 
ATOM     14  C   UNL     1       1.471  -2.507   2.537  0.00  0.00    +0.010 C 
ATOM     15  H   UNL     1      -0.782  -0.114   2.764  0.00  0.00    +0.151 HD
ENDROOT
BRANCH  10  16
ATOM     16  C   UNL     1       3.436   1.482   2.825  0.00  0.00    +0.121 C 
BRANCH  16  17
ATOM     17  C   UNL     1       3.425   2.897   2.244  0.00  0.00    +0.003 C 
ATOM     18  C   UNL     1       3.533   2.825   0.719  0.00  0.00    -0.014 C 
ATOM     19  C   UNL     1       3.601   4.244   0.150  0.00  0.00    -0.082 C 
ATOM     20  N   UNL     1       4.776   4.937   0.694  0.00  0.00    +0.379 N 
ATOM     21  C   UNL     1       4.645   5.073   2.149  0.00  0.00    -0.082 C 
ATOM     22  C   UNL     1       4.617   3.686   2.794  0.00  0.00    -0.014 C 
ATOM     23  H   UNL     1       5.607   4.406   0.480  0.00  0.00    -0.086 HD
ATOM     24  H   UNL     1       4.848   5.853   0.276  0.00  0.00    -0.086 HD
ENDBRANCH  16  17
ENDBRANCH  10  16
TORSDOF 2
