REMARK  Name = ZINC58161017
REMARK  13 active torsions:
REMARK  status: ('A' for Active; 'I' for Inactive)
REMARK    1  A    between atoms: C_1  and  C_2
REMARK    2  A    between atoms: C_2  and  C_4
REMARK    3  A    between atoms: C_2  and  N_18
REMARK    4  A    between atoms: C_7  and  O_12
REMARK    5  A    between atoms: C_8  and  O_10
REMARK    6  A    between atoms: O_10  and  C_11
REMARK    7  A    between atoms: O_12  and  C_13
REMARK    8  A    between atoms: C_13  and  C_14
REMARK    9  A    between atoms: N_21  and  C_22
REMARK   10  A    between atoms: C_22  and  C_23
REMARK   11  A    between atoms: C_23  and  C_24
REMARK   12  A    between atoms: C_24  and  N_25
REMARK   13  A    between atoms: N_25  and  C_26
REMARK                            x       y       z     vdW  Elec       q    Type
REMARK                         _______ _______ _______ _____ _____    ______ ____
ROOT
ATOM      1  N   UNL     1       0.711  -0.489   1.189  0.00  0.00    -0.293 N 
ATOM      2  C   UNL     1       0.051  -0.633   2.355  0.00  0.00    +0.300 C 
ATOM      3  O   UNL     1      -1.132  -0.361   2.423  0.00  0.00    -0.253 OA
ATOM      4  N   UNL     1       0.703  -1.080   3.447  0.00  0.00    -0.299 N 
ATOM      5  H   UNL     1       1.654  -0.707   1.135  0.00  0.00    +0.151 HD
ATOM      6  H   UNL     1       1.647  -1.298   3.394  0.00  0.00    +0.150 HD
ENDROOT
BRANCH   1   8
ATOM      7  C   UNL     1      -0.019   1.526   0.010  0.00  0.00    +0.033 C 
ATOM      8  C   UNL     1       0.002  -0.004   0.002  0.00  0.00    +0.102 C 
BRANCH   8   9
ATOM      9  C   UNL     1       0.707  -0.490  -1.238  0.00  0.00    -0.024 A 
ATOM     10  C   UNL     1       2.089  -0.510  -1.282  0.00  0.00    +0.009 A 
ATOM     11  C   UNL     1       2.741  -0.955  -2.417  0.00  0.00    +0.050 A 
ATOM     12  C   UNL     1       2.009  -1.383  -3.514  0.00  0.00    +0.162 A 
ATOM     13  C   UNL     1       0.619  -1.363  -3.469  0.00  0.00    +0.162 A 
ATOM     14  C   UNL     1      -0.029  -0.920  -2.326  0.00  0.00    +0.054 A 
BRANCH  13  15
ATOM     15  O   UNL     1      -0.104  -1.781  -4.542  0.00  0.00    -0.491 OA
ATOM     16  C   UNL     1      -1.527  -1.733  -4.425  0.00  0.00    +0.277 C 
ENDBRANCH  13  15
BRANCH  12  17
ATOM     17  O   UNL     1       2.649  -1.820  -4.631  0.00  0.00    -0.479 OA
BRANCH  17  18
ATOM     18  C   UNL     1       4.078  -1.812  -4.606  0.00  0.00    +0.342 C 
BRANCH  18  19
ATOM     19  C   UNL     1       4.614  -2.334  -5.940  0.00  0.00    +0.424 C 
ATOM     20  F   UNL     1       4.161  -1.513  -6.979  0.00  0.00    -0.167 F 
ATOM     21  F   UNL     1       6.013  -2.327  -5.916  0.00  0.00    -0.167 F 
ATOM     22  F   UNL     1       4.159  -3.641  -6.147  0.00  0.00    -0.167 F 
ENDBRANCH  18  19
ENDBRANCH  17  18
ENDBRANCH  12  17
ENDBRANCH   8   9
ENDBRANCH   1   8
BRANCH   4  23
ATOM     23  C   UNL     1      -0.014  -1.237   4.715  0.00  0.00    +0.104 C 
BRANCH  23  24
ATOM     24  C   UNL     1       0.950  -1.754   5.785  0.00  0.00    -0.000 C 
BRANCH  24  25
ATOM     25  C   UNL     1       0.201  -1.917   7.110  0.00  0.00    -0.081 C 
BRANCH  25  26
ATOM     26  N   UNL     1       1.126  -2.414   8.137  0.00  0.00    +0.381 N 
ATOM     27  H   UNL     1       1.501  -3.306   7.850  0.00  0.00    -0.086 HD
ATOM     28  H   UNL     1       1.881  -1.755   8.257  0.00  0.00    -0.086 HD
BRANCH  26  29
ATOM     29  C   UNL     1       0.408  -2.571   9.409  0.00  0.00    -0.072 C 
ATOM     30  C   UNL     1      -0.052  -1.200   9.907  0.00  0.00    -0.016 C 
ATOM     31  C   UNL     1      -0.801  -1.363  11.231  0.00  0.00    -0.002 C 
ATOM     32  C   UNL     1       0.129  -1.997  12.268  0.00  0.00    -0.000 C 
ATOM     33  C   UNL     1       0.589  -3.369  11.769  0.00  0.00    -0.002 C 
ATOM     34  C   UNL     1       1.337  -3.205  10.445  0.00  0.00    -0.016 C 
ENDBRANCH  26  29
ENDBRANCH  25  26
ENDBRANCH  24  25
ENDBRANCH  23  24
ENDBRANCH   4  23
TORSDOF 11
