REMARK  Name = ZINC61814520
REMARK  3 active torsions:
REMARK  status: ('A' for Active; 'I' for Inactive)
REMARK    1  A    between atoms: C_4  and  C_17
REMARK    2  A    between atoms: C_6  and  O_7
REMARK    3  A    between atoms: O_7  and  C_8
REMARK                            x       y       z     vdW  Elec       q    Type
REMARK                         _______ _______ _______ _____ _____    ______ ____
ROOT
ATOM      1  C   UNL     1       0.020   1.367   0.059  0.00  0.00    +0.066 A 
ATOM      2  C   UNL     1       1.228   2.040   0.038  0.00  0.00    +0.115 A 
ATOM      3  N   UNL     1       2.367   1.385  -0.045  0.00  0.00    -0.252 NA
ATOM      4  C   UNL     1       2.408   0.059  -0.111  0.00  0.00    +0.104 A 
ATOM      5  C   UNL     1       1.235  -0.687  -0.096  0.00  0.00    +0.077 A 
ATOM      6  C   UNL     1       0.014  -0.023  -0.009  0.00  0.00    +0.132 A 
ENDROOT
BRANCH   4   7
ATOM      7  C   UNL     1       3.717  -0.631  -0.204  0.00  0.00    +0.113 C 
ATOM      8  N   UNL     1       4.843   0.077  -0.220  0.00  0.00    -0.386 N 
ATOM      9  N   UNL     1       3.765  -1.959  -0.271  0.00  0.00    -0.343 N 
ATOM     10  H   UNL     1       4.808   1.045  -0.171  0.00  0.00    +0.157 HD
ATOM     11  H   UNL     1       2.944  -2.476  -0.259  0.00  0.00    +0.144 HD
ATOM     12  H   UNL     1       4.621  -2.411  -0.332  0.00  0.00    +0.144 HD
ATOM     13  H   UNL     1       5.699  -0.375  -0.280  0.00  0.00    +0.157 HD
ENDBRANCH   4   7
BRANCH   6  14
ATOM     14  O   UNL     1      -1.154  -0.715   0.010  0.00  0.00    -0.454 OA
BRANCH  14  15
ATOM     15  C   UNL     1      -1.421  -1.487   1.096  0.00  0.00    +0.148 A 
ATOM     16  C   UNL     1      -0.578  -1.453   2.197  0.00  0.00    +0.069 A 
ATOM     17  C   UNL     1      -0.851  -2.239   3.301  0.00  0.00    +0.063 A 
ATOM     18  C   UNL     1      -1.966  -3.060   3.308  0.00  0.00    +0.061 A 
ATOM     19  C   UNL     1      -2.809  -3.096   2.211  0.00  0.00    +0.045 A 
ATOM     20  C   UNL     1      -2.541  -2.307   1.107  0.00  0.00    +0.085 A 
ATOM     21 CL   UNL     1      -3.603  -2.347  -0.266  0.00  0.00    -0.080 Cl
ATOM     22 CL   UNL     1      -2.308  -4.046   4.696  0.00  0.00    -0.082 Cl
ATOM     23 CL   UNL     1       0.204  -2.196   4.679  0.00  0.00    -0.082 Cl
ENDBRANCH  14  15
ENDBRANCH   6  14
TORSDOF 3
