REMARK  Name = ZINC16435141
REMARK  12 active torsions:
REMARK  status: ('A' for Active; 'I' for Inactive)
REMARK    1  A    between atoms: C_1  and  C_2
REMARK    2  A    between atoms: C_2  and  C_3
REMARK    3  A    between atoms: C_3  and  C_4
REMARK    4  A    between atoms: C_4  and  N_5
REMARK    5  A    between atoms: N_5  and  C_6
REMARK    6  A    between atoms: C_6  and  C_7
REMARK    7  A    between atoms: N_9  and  C_10
REMARK    8  A    between atoms: C_12  and  C_23
REMARK    9  A    between atoms: N_14  and  C_15
REMARK   10  A    between atoms: C_18  and  C_22
REMARK   11  A    between atoms: C_20  and  C_21
REMARK   12  A    between atoms: N_31  and  C_32
REMARK                            x       y       z     vdW  Elec       q    Type
REMARK                         _______ _______ _______ _____ _____    ______ ____
ROOT
ATOM      1  C   UNL     1      -3.216  -1.241   0.449  0.00  0.00    +0.236 C 
ATOM      2  O   UNL     1      -2.920  -2.414   0.525  0.00  0.00    -0.274 OA
ATOM      3  N   UNL     1      -2.257  -0.315   0.249  0.00  0.00    -0.269 N 
ATOM      4  H   UNL     1      -2.526   0.750   0.181  0.00  0.00    +0.156 HD
ENDROOT
BRANCH   3   5
ATOM      5  C   UNL     1      -0.924  -0.707   0.129  0.00  0.00    +0.129 A 
ATOM      6  C   UNL     1      -0.465  -1.985   0.085  0.00  0.00    +0.074 A 
ATOM      7  C   UNL     1       0.937  -1.935  -0.035  0.00  0.00    +0.095 A 
ATOM      8  N   UNL     1       1.302  -0.670  -0.068  0.00  0.00    -0.165 NA
ATOM      9  N   UNL     1       0.151   0.123   0.030  0.00  0.00    -0.218 N 
BRANCH   9  10
ATOM     10  C   UNL     1       0.114   1.523   0.032  0.00  0.00    +0.070 A 
ATOM     11  C   UNL     1      -0.754   2.198  -0.817  0.00  0.00    +0.028 A 
ATOM     12  C   UNL     1      -0.791   3.578  -0.809  0.00  0.00    +0.005 A 
ATOM     13  C   UNL     1       0.042   4.289   0.036  0.00  0.00    -0.050 A 
ATOM     14  C   UNL     1       0.911   3.621   0.878  0.00  0.00    +0.008 A 
ATOM     15  C   UNL     1       0.949   2.240   0.879  0.00  0.00    -0.025 A 
ATOM     16  C   UNL     1       1.897   1.512   1.797  0.00  0.00    +0.046 C 
ATOM     17  C   UNL     1       0.002   5.796   0.038  0.00  0.00    +0.044 C 
ENDBRANCH   9  10
BRANCH   7  18
ATOM     18  C   UNL     1       1.846  -3.105  -0.113  0.00  0.00    +0.002 A 
ATOM     19  C   UNL     1       1.327  -4.397  -0.062  0.00  0.00    +0.010 A 
ATOM     20  C   UNL     1       2.177  -5.482  -0.139  0.00  0.00    +0.001 A 
ATOM     21  C   UNL     1       3.542  -5.288  -0.256  0.00  0.00    +0.000 A 
ATOM     22  C   UNL     1       4.062  -4.008  -0.302  0.00  0.00    +0.001 A 
ATOM     23  C   UNL     1       3.221  -2.916  -0.231  0.00  0.00    +0.010 A 
ENDBRANCH   7  18
ENDBRANCH   3   5
BRANCH   1  24
ATOM     24  C   UNL     1      -4.657  -0.817   0.580  0.00  0.00    +0.205 C 
BRANCH  24  25
ATOM     25  N   UNL     1      -5.496  -2.000   0.790  0.00  0.00    -0.277 N 
ATOM     26  C   UNL     1      -5.746  -2.435   2.041  0.00  0.00    +0.307 C 
ATOM     27  O   UNL     1      -5.274  -1.847   2.995  0.00  0.00    -0.252 OA
ATOM     28  N   UNL     1      -6.518  -3.522   2.234  0.00  0.00    -0.269 N 
ATOM     29  H   UNL     1      -6.884  -4.098   1.371  0.00  0.00    +0.156 HD
BRANCH  28  30
ATOM     30  C   UNL     1      -6.854  -3.920   3.533  0.00  0.00    +0.035 A 
ATOM     31  C   UNL     1      -5.939  -3.766   4.566  0.00  0.00    +0.023 A 
ATOM     32  C   UNL     1      -6.275  -4.155   5.848  0.00  0.00    +0.002 A 
ATOM     33  C   UNL     1      -7.517  -4.708   6.101  0.00  0.00    +0.000 A 
ATOM     34  C   UNL     1      -8.428  -4.867   5.074  0.00  0.00    +0.002 A 
ATOM     35  C   UNL     1      -8.100  -4.476   3.791  0.00  0.00    +0.023 A 
ENDBRANCH  28  30
BRANCH  25  36
ATOM     36  C   UNL     1      -6.064  -2.708  -0.359  0.00  0.00    +0.110 C 
BRANCH  36  37
ATOM     37  C   UNL     1      -5.091  -3.797  -0.819  0.00  0.00    +0.019 C 
BRANCH  37  39
ATOM     38  C   UNL     1      -4.712  -5.625  -2.478  0.00  0.00    +0.004 C 
ATOM     39  C   UNL     1      -5.684  -4.537  -2.019  0.00  0.00    -0.002 C 
ENDBRANCH  37  39
ENDBRANCH  36  37
ENDBRANCH  25  36
ENDBRANCH  24  25
ENDBRANCH   1  24
TORSDOF 9
