REMARK  Name = ZINC44515746
REMARK  2 active torsions:
REMARK  status: ('A' for Active; 'I' for Inactive)
REMARK    1  A    between atoms: C_9  and  C_11
REMARK    2  A    between atoms: N_16  and  C_18
REMARK                            x       y       z     vdW  Elec       q    Type
REMARK                         _______ _______ _______ _____ _____    ______ ____
ROOT
ATOM      1  C   UNL     1      -1.594   1.102   3.677  0.00  0.00    +0.101 C 
ATOM      2  C   UNL     1      -2.267   0.665   2.355  0.00  0.00    +0.110 C 
ATOM      3  C   UNL     1      -3.741   0.912   2.589  0.00  0.00    +0.217 C 
ATOM      4  O   UNL     1      -4.638   0.449   1.918  0.00  0.00    -0.276 OA
ATOM      5  N   UNL     1      -3.911   1.719   3.651  0.00  0.00    -0.298 N 
ATOM      6  C   UNL     1      -2.623   2.109   4.237  0.00  0.00    +0.121 C 
ENDROOT
BRANCH   1  15
ATOM      7  C   UNL     1       0.868   0.067   0.676  0.00  0.00    +0.000 C 
ATOM      8  C   UNL     1       2.221   0.769   0.706  0.00  0.00    +0.002 C 
ATOM      9  C   UNL     1       2.115   2.047   1.556  0.00  0.00    +0.019 C 
ATOM     10  C   UNL     1       2.142   1.669   3.032  0.00  0.00    +0.108 C 
ATOM     11  N   UNL     1       0.862   1.044   3.392  0.00  0.00    -0.301 N 
ATOM     12  C   UNL     1       0.832  -0.370   3.727  0.00  0.00    +0.108 C 
ATOM     13  C   UNL     1       1.706  -1.126   2.718  0.00  0.00    +0.019 C 
ATOM     14  C   UNL     1       0.940  -1.287   1.405  0.00  0.00    +0.002 C 
ATOM     15  C   UNL     1      -0.271   1.773   3.412  0.00  0.00    +0.221 C 
ATOM     16  O   UNL     1      -0.226   2.969   3.217  0.00  0.00    -0.275 OA
ENDBRANCH   1  15
BRANCH   5  17
ATOM     17  C   UNL     1      -5.215   2.153   4.158  0.00  0.00    +0.076 C 
ATOM     18  C   UNL     1      -6.081   0.925   4.510  0.00  0.00    +0.022 C 
ATOM     19  C   UNL     1      -7.514   1.340   4.095  0.00  0.00    +0.002 C 
ATOM     20  C   UNL     1      -7.274   2.144   2.793  0.00  0.00    +0.002 C 
ATOM     21  C   UNL     1      -5.974   2.928   3.067  0.00  0.00    +0.022 C 
ENDBRANCH   5  17
TORSDOF 2
