REMARK  Name = ZINC63229091
REMARK  9 active torsions:
REMARK  status: ('A' for Active; 'I' for Inactive)
REMARK    1  A    between atoms: C_1  and  C_2
REMARK    2  A    between atoms: C_3  and  C_35
REMARK    3  A    between atoms: C_7  and  N_17
REMARK    4  A    between atoms: C_9  and  C_11
REMARK    5  A    between atoms: C_11  and  N_12
REMARK    6  A    between atoms: N_17  and  C_18
REMARK    7  A    between atoms: C_18  and  C_19
REMARK    8  A    between atoms: C_19  and  C_21
REMARK    9  A    between atoms: C_19  and  C_26
REMARK                            x       y       z     vdW  Elec       q    Type
REMARK                         _______ _______ _______ _____ _____    ______ ____
ROOT
ATOM      1  N   UNL     1       0.262   1.092   2.839  0.00  0.00    -0.328 N 
ATOM      2  H   UNL     1       0.110   1.724   2.119  0.00  0.00    +0.148 HD
ENDROOT
BRANCH   1   9
ATOM      3  C   UNL     1      -0.556   1.486   0.114  0.00  0.00    +0.045 C 
ATOM      4  C   UNL     1      -0.484  -0.020   0.096  0.00  0.00    -0.028 A 
ATOM      5  C   UNL     1      -0.771  -0.699  -1.024  0.00  0.00    -0.008 A 
ATOM      6  S   UNL     1      -0.546  -2.402  -0.548  0.00  0.00    -0.074 S 
ATOM      7  C   UNL     1      -0.073  -2.156   1.143  0.00  0.00    +0.114 A 
ATOM      8  C   UNL     1      -0.097  -0.751   1.289  0.00  0.00    +0.051 A 
ATOM      9  C   UNL     1       0.255  -0.267   2.579  0.00  0.00    +0.131 A 
ATOM     10  N   UNL     1       0.577  -1.132   3.527  0.00  0.00    -0.219 NA
ATOM     11  C   UNL     1       0.583  -2.436   3.318  0.00  0.00    +0.116 A 
ATOM     12  N   UNL     1       0.256  -2.946   2.146  0.00  0.00    -0.227 NA
ATOM     13  C   UNL     1      -1.185  -0.153  -2.366  0.00  0.00    +0.052 C 
BRANCH  11  14
ATOM     14  C   UNL     1       0.960  -3.362   4.445  0.00  0.00    -0.001 C 
BRANCH  14  15
ATOM     15  N   UNL     1      -0.245  -3.731   5.199  0.00  0.00    +0.384 N 
ATOM     16  C   UNL     1      -1.123  -4.596   4.371  0.00  0.00    -0.078 C 
ATOM     17  C   UNL     1      -1.992  -5.331   5.422  0.00  0.00    -0.020 C 
ATOM     18  C   UNL     1      -0.996  -5.584   6.577  0.00  0.00    -0.020 C 
ATOM     19  C   UNL     1       0.121  -4.543   6.380  0.00  0.00    -0.078 C 
ATOM     20  H   UNL     1      -0.743  -2.902   5.488  0.00  0.00    -0.081 HD
ENDBRANCH  14  15
ENDBRANCH  11  14
ENDBRANCH   1   9
BRANCH   1  21
ATOM     21  C   UNL     1       0.498   1.576   4.201  0.00  0.00    +0.116 C 
BRANCH  21  22
ATOM     22  C   UNL     1       0.454   3.105   4.214  0.00  0.00    +0.071 C 
BRANCH  22  23
ATOM     23  C   UNL     1       0.574   3.599   5.633  0.00  0.00    -0.032 C 
ATOM     24  C   UNL     1      -0.327   4.344   6.313  0.00  0.00    -0.000 A 
ATOM     25  C   UNL     1      -1.637   4.897   5.950  0.00  0.00    +0.010 A 
ATOM     26  C   UNL     1      -2.321   5.620   6.866  0.00  0.00    +0.001 A 
ATOM     27  C   UNL     1      -1.810   5.854   8.150  0.00  0.00    +0.002 A 
ATOM     28  C   UNL     1      -0.614   5.380   8.557  0.00  0.00    +0.026 A 
ATOM     29  C   UNL     1       0.190   4.606   7.676  0.00  0.00    +0.043 A 
ATOM     30  N   UNL     1       1.364   4.045   7.831  0.00  0.00    -0.380 N 
ATOM     31  C   UNL     1       1.723   3.358   6.585  0.00  0.00    +0.145 C 
ATOM     32  H   UNL     1       1.904   4.075   8.636  0.00  0.00    +0.160 HD
ENDBRANCH  22  23
BRANCH  22  33
ATOM     33  C   UNL     1       1.597   3.648   3.395  0.00  0.00    -0.002 A 
ATOM     34  C   UNL     1       1.558   4.441   2.296  0.00  0.00    +0.012 A 
ATOM     35  C   UNL     1       2.747   4.821   1.702  0.00  0.00    +0.008 A 
ATOM     36  C   UNL     1       3.916   4.388   2.234  0.00  0.00    +0.045 A 
ATOM     37  S   UNL     1       3.352   3.418   3.623  0.00  0.00    -0.101 S 
ENDBRANCH  22  33
ENDBRANCH  21  22
ENDBRANCH   1  21
TORSDOF 7
