REMARK  Name = ZINC66192732
REMARK  12 active torsions:
REMARK  status: ('A' for Active; 'I' for Inactive)
REMARK    1  A    between atoms: C_1  and  C_2
REMARK    2  A    between atoms: C_2  and  C_3
REMARK    3  A    between atoms: C_3  and  C_5
REMARK    4  A    between atoms: C_3  and  N_6
REMARK    5  A    between atoms: N_6  and  C_7
REMARK    6  A    between atoms: N_6  and  C_8
REMARK    7  A    between atoms: C_8  and  C_9
REMARK    8  A    between atoms: C_9  and  N_10
REMARK    9  A    between atoms: N_13  and  C_14
REMARK   10  A    between atoms: C_14  and  C_15
REMARK   11  A    between atoms: N_17  and  C_18
REMARK   12  A    between atoms: C_23  and  C_24
REMARK                            x       y       z     vdW  Elec       q    Type
REMARK                         _______ _______ _______ _____ _____    ______ ____
ROOT
ATOM      1  N   UNL     1      -3.298   2.868   3.040  0.00  0.00    -0.301 N 
ATOM      2  C   UNL     1      -3.814   3.357   4.185  0.00  0.00    +0.300 C 
ATOM      3  O   UNL     1      -4.090   2.603   5.098  0.00  0.00    -0.253 OA
ATOM      4  N   UNL     1      -4.025   4.681   4.318  0.00  0.00    -0.291 N 
ATOM      5  H   UNL     1      -3.078   3.470   2.311  0.00  0.00    +0.150 HD
ATOM      6  H   UNL     1      -3.805   5.283   3.589  0.00  0.00    +0.151 HD
ENDROOT
BRANCH   1   7
ATOM      7  C   UNL     1      -3.069   1.428   2.895  0.00  0.00    +0.087 C 
BRANCH   7   8
ATOM      8  C   UNL     1      -2.481   1.142   1.512  0.00  0.00    -0.060 C 
BRANCH   8   9
ATOM      9  N   UNL     1      -2.252  -0.302   1.367  0.00  0.00    +0.381 N 
ATOM     10  C   UNL     1      -3.542  -1.004   1.348  0.00  0.00    -0.096 C 
ATOM     11  H   UNL     1      -1.699  -0.634   2.143  0.00  0.00    -0.082 HD
BRANCH   9  12
ATOM     12  C   UNL     1      -1.535  -0.560   0.110  0.00  0.00    -0.072 C 
ATOM     13  C   UNL     1      -2.371  -0.052  -1.067  0.00  0.00    -0.013 C 
BRANCH  12  15
ATOM     14  C   UNL     1      -0.408  -2.559   1.098  0.00  0.00    +0.002 C 
ATOM     15  C   UNL     1      -1.300  -2.064  -0.043  0.00  0.00    -0.019 C 
ENDBRANCH  12  15
ENDBRANCH   9  12
ENDBRANCH   8   9
ENDBRANCH   7   8
ENDBRANCH   1   7
BRANCH   4  16
ATOM     16  C   UNL     1      -4.586   5.212   5.562  0.00  0.00    +0.202 C 
BRANCH  16  17
ATOM     17  C   UNL     1      -4.721   6.710   5.454  0.00  0.00    +0.234 C 
ATOM     18  O   UNL     1      -4.381   7.277   4.437  0.00  0.00    -0.274 OA
ATOM     19  N   UNL     1      -5.218   7.418   6.487  0.00  0.00    -0.284 N 
ATOM     20  H   UNL     1      -5.432   6.973   7.322  0.00  0.00    +0.155 HD
BRANCH  19  21
ATOM     21  C   UNL     1      -5.427   8.795   6.355  0.00  0.00    +0.037 A 
ATOM     22  C   UNL     1      -4.667   9.531   5.455  0.00  0.00    +0.038 A 
ATOM     23  C   UNL     1      -4.875  10.891   5.327  0.00  0.00    +0.020 A 
ATOM     24  C   UNL     1      -5.841  11.519   6.094  0.00  0.00    +0.015 A 
ATOM     25  C   UNL     1      -6.599  10.789   6.991  0.00  0.00    +0.006 A 
ATOM     26  C   UNL     1      -6.399   9.428   7.119  0.00  0.00    -0.029 A 
ATOM     27  C   UNL     1      -7.230   8.632   8.092  0.00  0.00    +0.045 C 
ATOM     28 BR   UNL     1      -3.841  11.894   4.103  0.00  0.00    -0.050 Br
ENDBRANCH  19  21
ENDBRANCH  16  17
ENDBRANCH   4  16
TORSDOF 8
