REMARK  Name = ZINC39560995
REMARK  10 active torsions:
REMARK  status: ('A' for Active; 'I' for Inactive)
REMARK    1  A    between atoms: C_1  and  C_2
REMARK    2  A    between atoms: C_3  and  N_15
REMARK    3  A    between atoms: N_6  and  C_9
REMARK    4  A    between atoms: N_7  and  C_8
REMARK    5  A    between atoms: C_16  and  C_18
REMARK    6  A    between atoms: C_18  and  C_20
REMARK    7  A    between atoms: C_18  and  O_21
REMARK    8  A    between atoms: O_21  and  C_22
REMARK    9  A    between atoms: C_22  and  C_24
REMARK   10  A    between atoms: C_26  and  N_32
REMARK                            x       y       z     vdW  Elec       q    Type
REMARK                         _______ _______ _______ _____ _____    ______ ____
ROOT
ATOM      1  N   UNL     1       0.131  -0.222  -2.456  0.00  0.00    -0.277 N 
ATOM      2  C   UNL     1       0.656  -0.900  -3.496  0.00  0.00    +0.258 C 
ATOM      3  O   UNL     1       1.170  -1.984  -3.315  0.00  0.00    -0.271 OA
ATOM      4  H   UNL     1      -0.215   0.675  -2.587  0.00  0.00    +0.155 HD
ENDROOT
BRANCH   1   7
ATOM      5  C   UNL     1      -2.431  -0.666  -0.828  0.00  0.00    +0.067 C 
ATOM      6  C   UNL     1      -1.022  -1.027  -0.433  0.00  0.00    +0.059 A 
ATOM      7  C   UNL     1       0.085  -0.815  -1.179  0.00  0.00    +0.121 A 
ATOM      8  C   UNL     1       1.227  -1.316  -0.413  0.00  0.00    +0.293 A 
ATOM      9  O   UNL     1       2.395  -1.300  -0.757  0.00  0.00    -0.264 OA
ATOM     10  N   UNL     1       0.739  -1.800   0.748  0.00  0.00    -0.216 N 
ATOM     11  N   UNL     1      -0.649  -1.620   0.744  0.00  0.00    -0.282 N 
ATOM     12  C   UNL     1      -1.559  -2.006   1.826  0.00  0.00    +0.171 C 
BRANCH  10  13
ATOM     13  C   UNL     1       1.489  -2.376   1.778  0.00  0.00    +0.067 A 
ATOM     14  C   UNL     1       1.088  -3.581   2.341  0.00  0.00    +0.028 A 
ATOM     15  C   UNL     1       1.831  -4.147   3.358  0.00  0.00    +0.002 A 
ATOM     16  C   UNL     1       2.974  -3.517   3.815  0.00  0.00    +0.000 A 
ATOM     17  C   UNL     1       3.376  -2.317   3.257  0.00  0.00    +0.002 A 
ATOM     18  C   UNL     1       2.640  -1.748   2.235  0.00  0.00    +0.028 A 
ENDBRANCH  10  13
ENDBRANCH   1   7
BRANCH   2  19
ATOM     19  C   UNL     1       0.606  -0.312  -4.882  0.00  0.00    +0.259 C 
ATOM     20  C   UNL     1      -0.851  -0.202  -5.336  0.00  0.00    +0.062 C 
BRANCH  19  21
ATOM     21  O   UNL     1       1.323  -1.156  -5.785  0.00  0.00    -0.448 OA
BRANCH  21  22
ATOM     22  C   UNL     1       1.911  -0.563  -6.841  0.00  0.00    +0.360 C 
ATOM     23  O   UNL     1       1.818   0.639  -6.992  0.00  0.00    -0.243 OA
BRANCH  22  24
ATOM     24  C   UNL     1       2.671  -1.374  -7.817  0.00  0.00    +0.169 A 
ATOM     25  C   UNL     1       3.281  -0.753  -8.903  0.00  0.00    +0.095 A 
ATOM     26  C   UNL     1       3.995  -1.533  -9.814  0.00  0.00    +0.067 A 
ATOM     27  C   UNL     1       4.066  -2.907  -9.596  0.00  0.00    +0.100 A 
ATOM     28  C   UNL     1       3.431  -3.451  -8.490  0.00  0.00    +0.150 A 
ATOM     29  N   UNL     1       2.769  -2.689  -7.645  0.00  0.00    -0.226 NA
ATOM     30 CL   UNL     1       3.515  -5.163  -8.212  0.00  0.00    -0.060 Cl
ATOM     31 CL   UNL     1       4.939  -3.927 -10.697  0.00  0.00    -0.078 Cl
ATOM     32 CL   UNL     1       3.156   0.965  -9.121  0.00  0.00    -0.079 Cl
BRANCH  26  33
ATOM     33  N   UNL     1       4.621  -0.952 -10.915  0.00  0.00    -0.356 N 
ATOM     34  H   UNL     1       4.563   0.006 -11.056  0.00  0.00    +0.142 HD
ATOM     35  H   UNL     1       5.113  -1.505 -11.541  0.00  0.00    +0.142 HD
ENDBRANCH  26  33
ENDBRANCH  22  24
ENDBRANCH  21  22
ENDBRANCH  19  21
ENDBRANCH   2  19
TORSDOF 7
