REMARK  Name = ZINC15708078
REMARK  7 active torsions:
REMARK  status: ('A' for Active; 'I' for Inactive)
REMARK    1  A    between atoms: C_4  and  N_7
REMARK    2  A    between atoms: C_8  and  C_10
REMARK    3  A    between atoms: C_10  and  C_11
REMARK    4  A    between atoms: C_11  and  C_12
REMARK    5  A    between atoms: C_21  and  N_24
REMARK    6  A    between atoms: N_24  and  S_25
REMARK    7  A    between atoms: S_25  and  C_28
REMARK                            x       y       z     vdW  Elec       q    Type
REMARK                         _______ _______ _______ _____ _____    ______ ____
ROOT
ATOM      1  C   UNL     1      -1.783   2.376   5.985  0.00  0.00    -0.050 C 
ATOM      2  C   UNL     1      -2.231   2.054   7.419  0.00  0.00    +0.089 C 
ATOM      3  N   UNL     1      -3.668   1.830   7.506  0.00  0.00    -0.318 N 
ATOM      4  C   UNL     1      -4.489   1.698   6.447  0.00  0.00    +0.200 C 
ATOM      5  O   UNL     1      -5.655   1.404   6.608  0.00  0.00    -0.278 OA
ATOM      6  C   UNL     1      -3.949   1.919   5.071  0.00  0.00    +0.021 C 
ATOM      7  C   UNL     1      -2.132   1.447   3.666  0.00  0.00    -0.057 C 
ATOM      8  C   UNL     1      -3.417   1.029   2.906  0.00  0.00    +0.059 C 
ATOM      9  C   UNL     1      -4.533   0.998   3.990  0.00  0.00    +0.012 C 
ATOM     10  H   UNL     1      -4.061   1.771   8.391  0.00  0.00    +0.149 HD
ATOM     11  N   UNL     1      -2.583   1.473   5.079  0.00  0.00    +0.391 N 
ATOM     12  H   UNL     1      -2.532   0.518   5.453  0.00  0.00    -0.080 HD
ENDROOT
BRANCH   8  13
ATOM     13  N   UNL     1      -3.249  -0.298   2.310  0.00  0.00    -0.188 NA
ATOM     14  H   UNL     1      -3.382  -1.093   2.850  0.00  0.00    +0.148 HD
BRANCH  13  15
ATOM     15  S   UNL     1      -2.830  -0.441   0.714  0.00  0.00    +0.065 S 
ATOM     16  O   UNL     1      -3.707   0.407  -0.014  0.00  0.00    -0.153 OA
ATOM     17  O   UNL     1      -2.719  -1.833   0.447  0.00  0.00    -0.153 OA
BRANCH  15  18
ATOM     18  C   UNL     1      -1.213   0.236   0.537  0.00  0.00    +0.142 A 
ATOM     19  C   UNL     1      -0.011  -0.382   0.647  0.00  0.00    +0.036 A 
ATOM     20  C   UNL     1       1.142   0.356   0.459  0.00  0.00    +0.010 A 
ATOM     21  C   UNL     1       1.038   1.677   0.177  0.00  0.00    +0.047 A 
ATOM     22  S   UNL     1      -0.731   1.915   0.170  0.00  0.00    -0.077 S 
ENDBRANCH  15  18
ENDBRANCH  13  15
ENDBRANCH   8  13
BRANCH   1  23
ATOM     23  C   UNL     1      -0.282   2.121   5.840  0.00  0.00    -0.005 C 
BRANCH  23  24
ATOM     24  C   UNL     1       0.491   3.109   6.717  0.00  0.00    +0.094 C 
BRANCH  24  26
ATOM     25  N   UNL     1       2.851   3.713   7.147  0.00  0.00    -0.285 N 
ATOM     26  C   UNL     1       1.969   2.942   6.478  0.00  0.00    +0.217 C 
ATOM     27  O   UNL     1       2.366   2.115   5.685  0.00  0.00    -0.275 OA
ATOM     28  H   UNL     1       2.539   4.322   7.834  0.00  0.00    +0.155 HD
BRANCH  25  32
ATOM     29  C   UNL     1       6.914   3.481   6.258  0.00  0.00    +0.000 A 
ATOM     30  C   UNL     1       5.978   3.296   5.258  0.00  0.00    +0.002 A 
ATOM     31  C   UNL     1       4.630   3.373   5.549  0.00  0.00    +0.023 A 
ATOM     32  C   UNL     1       4.215   3.634   6.848  0.00  0.00    +0.033 A 
ATOM     33  C   UNL     1       5.159   3.824   7.850  0.00  0.00    +0.023 A 
ATOM     34  C   UNL     1       6.505   3.741   7.553  0.00  0.00    +0.002 A 
ENDBRANCH  25  32
ENDBRANCH  24  26
ENDBRANCH  23  24
ENDBRANCH   1  23
TORSDOF 7
