REMARK  Name = ZINC07530281
REMARK  8 active torsions:
REMARK  status: ('A' for Active; 'I' for Inactive)
REMARK    1  A    between atoms: C_1  and  C_2
REMARK    2  A    between atoms: C_6  and  N_8
REMARK    3  A    between atoms: C_9  and  C_11
REMARK    4  A    between atoms: C_11  and  S_12
REMARK    5  A    between atoms: S_12  and  C_13
REMARK    6  A    between atoms: N_17  and  N_18
REMARK    7  A    between atoms: C_20  and  C_25
REMARK    8  A    between atoms: C_22  and  C_24
REMARK                            x       y       z     vdW  Elec       q    Type
REMARK                         _______ _______ _______ _____ _____    ______ ____
ROOT
ATOM      1  C   UNL     1      -5.209   0.761   0.261  0.00  0.00    +0.210 A 
ATOM      2  N   UNL     1      -5.090  -0.543   0.343  0.00  0.00    -0.119 NA
ATOM      3  N   UNL     1      -6.251  -1.085   0.439  0.00  0.00    -0.106 NA
ATOM      4  C   UNL     1      -7.180  -0.163   0.417  0.00  0.00    +0.270 A 
ATOM      5  N   UNL     1      -6.546   1.047   0.302  0.00  0.00    -0.208 N 
ATOM      6  N   UNL     1      -8.557  -0.373   0.495  0.00  0.00    -0.201 N 
ATOM      7  C   UNL     1      -9.178  -1.576   0.609  0.00  0.00    +0.045 A 
ATOM      8  C   UNL     1     -10.511  -1.345   0.655  0.00  0.00    +0.048 A 
ATOM      9  C   UNL     1     -10.714   0.036   0.567  0.00  0.00    +0.061 A 
ATOM     10  N   UNL     1      -9.546   0.620   0.477  0.00  0.00    -0.169 NA
ATOM     11  C   UNL     1     -12.049   0.734   0.580  0.00  0.00    +0.067 C 
ATOM     12  C   UNL     1      -8.505  -2.922   0.672  0.00  0.00    +0.066 C 
ENDROOT
BRANCH   5  13
ATOM     13  N   UNL     1      -7.129   2.281   0.241  0.00  0.00    -0.293 N 
ATOM     14  H   UNL     1      -7.326   2.541  -0.713  0.00  0.00    +0.163 HD
ATOM     15  H   UNL     1      -7.965   2.314   0.806  0.00  0.00    +0.163 HD
ENDBRANCH   5  13
BRANCH   1  16
ATOM     16  S   UNL     1      -3.894   1.925   0.117  0.00  0.00    -0.075 S 
BRANCH  16  17
ATOM     17  C   UNL     1      -2.476   0.800   0.132  0.00  0.00    +0.173 C 
BRANCH  17  19
ATOM     18  N   UNL     1      -0.011   0.966   0.007  0.00  0.00    -0.285 N 
ATOM     19  C   UNL     1      -1.202   1.597   0.017  0.00  0.00    +0.227 C 
ATOM     20  O   UNL     1      -1.248   2.806  -0.067  0.00  0.00    -0.275 OA
ATOM     21  H   UNL     1       0.024  -0.004   0.007  0.00  0.00    +0.155 HD
BRANCH  18  27
ATOM     22  C   UNL     1       4.677   1.483   1.395  0.00  0.00    +0.044 C 
ATOM     23  C   UNL     1       3.462   1.983   0.656  0.00  0.00    -0.049 A 
ATOM     24  C   UNL     1       3.519   3.178  -0.038  0.00  0.00    +0.003 A 
ATOM     25  C   UNL     1       2.406   3.640  -0.717  0.00  0.00    +0.002 A 
ATOM     26  C   UNL     1       1.236   2.906  -0.708  0.00  0.00    +0.023 A 
ATOM     27  C   UNL     1       1.175   1.709  -0.008  0.00  0.00    +0.034 A 
ATOM     28  C   UNL     1       2.294   1.248   0.673  0.00  0.00    +0.026 A 
ENDBRANCH  18  27
ENDBRANCH  17  19
ENDBRANCH  16  17
ENDBRANCH   1  16
TORSDOF 5
