REMARK  Name = ZINC12535708
REMARK  3 active torsions:
REMARK  status: ('A' for Active; 'I' for Inactive)
REMARK    1  A    between atoms: C_1  and  O_2
REMARK    2  A    between atoms: O_2  and  C_3
REMARK    3  A    between atoms: C_4  and  C_11
REMARK                            x       y       z     vdW  Elec       q    Type
REMARK                         _______ _______ _______ _____ _____    ______ ____
ROOT
ATOM      1  C   UNL     1       2.716  -0.542  -0.515  0.00  0.00    +0.212 C 
ATOM      2  N   UNL     1       3.829  -1.486  -0.725  0.00  0.00    -0.294 N 
ATOM      3  C   UNL     1       5.027  -1.230  -0.075  0.00  0.00    +0.159 C 
ATOM      4  N   UNL     1       5.561   0.049  -0.238  0.00  0.00    -0.259 N 
ATOM      5  C   UNL     1       4.622   1.073  -0.341  0.00  0.00    +0.205 A 
ATOM      6  N   UNL     1       3.276   0.814  -0.481  0.00  0.00    -0.288 N 
ATOM      7  C   UNL     1       2.639   2.019  -0.567  0.00  0.00    +0.072 A 
ATOM      8  C   UNL     1       1.304   2.373  -0.722  0.00  0.00    +0.028 A 
ATOM      9  C   UNL     1       1.012   3.727  -0.770  0.00  0.00    +0.002 A 
ATOM     10  C   UNL     1       1.997   4.694  -0.670  0.00  0.00    +0.002 A 
ATOM     11  C   UNL     1       3.332   4.368  -0.516  0.00  0.00    +0.030 A 
ATOM     12  C   UNL     1       3.651   3.006  -0.465  0.00  0.00    +0.091 A 
ATOM     13  N   UNL     1       4.831   2.361  -0.327  0.00  0.00    -0.214 NA
ATOM     14  N   UNL     1       5.623  -2.135   0.648  0.00  0.00    -0.375 N 
ATOM     15  H   UNL     1       3.725  -2.261  -1.299  0.00  0.00    +0.151 HD
ATOM     16  H   UNL     1       5.229  -3.017   0.744  0.00  0.00    +0.158 HD
ATOM     17  H   UNL     1       6.516   0.213  -0.277  0.00  0.00    +0.158 HD
ATOM     18  H   UNL     1       6.461  -1.928   1.091  0.00  0.00    +0.158 HD
ENDROOT
BRANCH   1  20
ATOM     19  C   UNL     1       1.150  -1.912   0.884  0.00  0.00    +0.141 A 
ATOM     20  C   UNL     1       2.030  -0.844   0.793  0.00  0.00    +0.037 A 
ATOM     21  C   UNL     1       2.279  -0.058   1.901  0.00  0.00    +0.026 A 
ATOM     22  C   UNL     1       1.651  -0.335   3.103  0.00  0.00    +0.020 A 
ATOM     23  C   UNL     1       0.773  -1.399   3.197  0.00  0.00    +0.034 A 
ATOM     24  C   UNL     1       0.516  -2.185   2.089  0.00  0.00    +0.061 A 
ATOM     25 BR   UNL     1      -0.691  -3.635   2.216  0.00  0.00    -0.046 Br
ATOM     26 BR   UNL     1       1.994   0.744   4.618  0.00  0.00    -0.050 Br
BRANCH  19  28
ATOM     27  C   UNL     1      -0.200  -2.309  -1.032  0.00  0.00    +0.277 C 
ATOM     28  O   UNL     1       0.903  -2.686  -0.205  0.00  0.00    -0.494 OA
ENDBRANCH  19  28
ENDBRANCH   1  20
TORSDOF 2
