REMARK  Name = ZINC08763176
REMARK  11 active torsions:
REMARK  status: ('A' for Active; 'I' for Inactive)
REMARK    1  A    between atoms: C_1  and  C_2
REMARK    2  A    between atoms: C_2  and  C_39
REMARK    3  A    between atoms: C_4  and  C_8
REMARK    4  A    between atoms: C_4  and  C_31
REMARK    5  A    between atoms: C_8  and  C_9
REMARK    6  A    between atoms: C_9  and  N_80
REMARK    7  A    between atoms: C_10  and  C_11
REMARK    8  A    between atoms: C_10  and  N_80
REMARK    9  A    between atoms: C_23  and  C_30
REMARK   10  A    between atoms: C_34  and  O_37
REMARK   11  A    between atoms: O_37  and  C_38
REMARK                            x       y       z     vdW  Elec       q    Type
REMARK                         _______ _______ _______ _____ _____    ______ ____
ROOT
ATOM      1  N   UNL     1       5.211   2.297   3.691  0.00  0.00    +0.380 N 
ATOM      2  H   UNL     1       5.792   1.655   3.139  0.00  0.00    -0.086 HD
ATOM      3  H   UNL     1       4.739   2.958   3.063  0.00  0.00    -0.086 HD
ENDROOT
BRANCH   1   4
ATOM      4  C   UNL     1       6.068   3.045   4.629  0.00  0.00    -0.082 C 
BRANCH   4   5
ATOM      5  C   UNL     1       7.107   3.839   3.835  0.00  0.00    -0.007 C 
BRANCH   5   9
ATOM      6  C   UNL     1       8.604   1.763   3.826  0.00  0.00    +0.041 C 
ATOM      7  C   UNL     1       9.546   2.473   4.801  0.00  0.00    +0.065 C 
ATOM      8  C   UNL     1       8.740   3.430   5.685  0.00  0.00    +0.046 C 
ATOM      9  C   UNL     1       8.092   4.501   4.801  0.00  0.00    -0.001 C 
ATOM     10  C   UNL     1       9.184   5.223   4.006  0.00  0.00    +0.039 C 
ATOM     11  C   UNL     1       9.972   4.196   3.188  0.00  0.00    +0.161 C 
ATOM     12  O   UNL     1      10.523   3.212   4.065  0.00  0.00    -0.374 OA
ATOM     13  C   UNL     1      10.247   1.435   5.680  0.00  0.00    +0.041 C 
BRANCH   9  14
ATOM     14  C   UNL     1       7.359   5.493   5.667  0.00  0.00    -0.041 A 
ATOM     15  C   UNL     1       7.253   5.275   7.028  0.00  0.00    +0.008 A 
ATOM     16  C   UNL     1       6.587   6.186   7.825  0.00  0.00    +0.046 A 
ATOM     17  C   UNL     1       6.014   7.315   7.256  0.00  0.00    +0.120 A 
ATOM     18  C   UNL     1       6.117   7.528   5.889  0.00  0.00    +0.046 A 
ATOM     19  C   UNL     1       6.789   6.617   5.098  0.00  0.00    +0.008 A 
BRANCH  17  20
ATOM     20  O   UNL     1       5.354   8.210   8.037  0.00  0.00    -0.495 OA
ATOM     21  C   UNL     1       5.288   7.926   9.436  0.00  0.00    +0.277 C 
ENDBRANCH  17  20
ENDBRANCH   9  14
ENDBRANCH   5   9
ENDBRANCH   4   5
ENDBRANCH   1   4
BRANCH   1  22
ATOM     22  C   UNL     1       4.198   1.520   4.431  0.00  0.00    -0.068 C 
BRANCH  22  23
ATOM     23  C   UNL     1       3.325   0.756   3.433  0.00  0.00    +0.087 C 
ATOM     24  C   UNL     1       2.165   0.024   4.172  0.00  0.00    +0.042 C 
ATOM     25  C   UNL     1       0.972   0.025   3.214  0.00  0.00    +0.016 C 
ATOM     26  C   UNL     1      -0.042  -1.041   3.619  0.00  0.00    +0.021 C 
ATOM     27  C   UNL     1      -1.227  -1.013   2.683  0.00  0.00    -0.073 C 
ATOM     28  C   UNL     1      -1.380  -0.040   1.818  0.00  0.00    +0.008 C 
ATOM     29  C   UNL     1      -2.233  -2.140   2.773  0.00  0.00    +0.030 C 
ATOM     30  C   UNL     1      -1.484  -3.474   2.701  0.00  0.00    +0.005 C 
ATOM     31  C   UNL     1      -0.384  -3.519   3.764  0.00  0.00    +0.007 C 
ATOM     32  C   UNL     1       0.636  -2.414   3.498  0.00  0.00    -0.022 C 
ATOM     33  C   UNL     1       1.761  -2.473   4.530  0.00  0.00    +0.052 C 
ATOM     34  C   UNL     1       2.779  -1.384   4.292  0.00  0.00    +0.181 C 
ATOM     35  O   UNL     1       3.511  -1.544   3.043  0.00  0.00    -0.461 OA
ATOM     36  C   UNL     1       4.115  -0.363   2.781  0.00  0.00    +0.309 C 
ATOM     37  O   UNL     1       5.124  -0.222   2.132  0.00  0.00    -0.251 OA
ATOM     38  C   UNL     1       1.218  -2.579   2.092  0.00  0.00    +0.012 C 
ENDBRANCH  22  23
ENDBRANCH   1  22
TORSDOF 7
