REMARK  Name = ZINC05262083
REMARK  8 active torsions:
REMARK  status: ('A' for Active; 'I' for Inactive)
REMARK    1  A    between atoms: C_1  and  C_2
REMARK    2  A    between atoms: C_2  and  C_4
REMARK    3  A    between atoms: C_2  and  N_14
REMARK    4  A    between atoms: N_6  and  C_7
REMARK    5  A    between atoms: N_14  and  C_15
REMARK    6  A    between atoms: C_15  and  C_16
REMARK    7  A    between atoms: C_19  and  S_22
REMARK    8  A    between atoms: S_22  and  N_25
REMARK                            x       y       z     vdW  Elec       q    Type
REMARK                         _______ _______ _______ _____ _____    ______ ____
ROOT
ATOM      1  N   UNL     1       0.711  -0.493   1.192  0.00  0.00    +0.389 N 
ATOM      2  H   UNL     1       0.803  -1.496   1.144  0.00  0.00    -0.084 HD
ATOM      3  H   UNL     1       1.627  -0.072   1.230  0.00  0.00    -0.084 HD
ENDROOT
BRANCH   1   5
ATOM      4  C   UNL     1      -0.033   1.520   0.013  0.00  0.00    -0.004 C 
ATOM      5  C   UNL     1      -0.002  -0.009   0.002  0.00  0.00    +0.014 C 
BRANCH   5   6
ATOM      6  C   UNL     1       0.708  -0.488  -1.238  0.00  0.00    +0.203 C 
ATOM      7  O   UNL     1       1.710  -1.166  -1.140  0.00  0.00    -0.277 OA
ATOM      8  N   UNL     1       0.231  -0.164  -2.456  0.00  0.00    -0.287 N 
ATOM      9  H   UNL     1      -0.606   0.320  -2.535  0.00  0.00    +0.155 HD
BRANCH   8  10
ATOM     10  C   UNL     1       0.942  -0.526  -3.605  0.00  0.00    +0.035 A 
ATOM     11  C   UNL     1       0.954   0.316  -4.710  0.00  0.00    +0.023 A 
ATOM     12  C   UNL     1       1.657  -0.043  -5.843  0.00  0.00    +0.003 A 
ATOM     13  C   UNL     1       2.349  -1.240  -5.879  0.00  0.00    +0.020 A 
ATOM     14  C   UNL     1       2.340  -2.081  -4.780  0.00  0.00    +0.043 A 
ATOM     15  C   UNL     1       1.643  -1.724  -3.641  0.00  0.00    +0.043 A 
ATOM     16 CL   UNL     1       3.210  -3.583  -4.830  0.00  0.00    -0.083 Cl
ENDBRANCH   8  10
ENDBRANCH   5   6
ENDBRANCH   1   5
BRANCH   1  17
ATOM     17  C   UNL     1      -0.046  -0.128   2.397  0.00  0.00    -0.046 C 
BRANCH  17  18
ATOM     18  C   UNL     1       0.685  -0.624   3.619  0.00  0.00    -0.064 A 
ATOM     19  C   UNL     1       0.426  -1.889   4.113  0.00  0.00    +0.003 A 
ATOM     20  C   UNL     1       1.097  -2.344   5.233  0.00  0.00    +0.029 A 
ATOM     21  C   UNL     1       2.027  -1.534   5.858  0.00  0.00    +0.105 A 
ATOM     22  C   UNL     1       2.286  -0.270   5.363  0.00  0.00    +0.029 A 
ATOM     23  C   UNL     1       1.619   0.184   4.241  0.00  0.00    +0.003 A 
BRANCH  21  24
ATOM     24  S   UNL     1       2.880  -2.113   7.287  0.00  0.00    +0.056 S 
ATOM     25  O   UNL     1       3.299  -0.961   8.005  0.00  0.00    -0.153 OA
ATOM     26  O   UNL     1       2.062  -3.118   7.869  0.00  0.00    -0.153 OA
BRANCH  24  27
ATOM     27  N   UNL     1       4.257  -2.870   6.761  0.00  0.00    -0.204 NA
ATOM     28  H   UNL     1       4.450  -2.921   5.812  0.00  0.00    +0.144 HD
ATOM     29  H   UNL     1       4.870  -3.262   7.402  0.00  0.00    +0.144 HD
ENDBRANCH  24  27
ENDBRANCH  21  24
ENDBRANCH  17  18
ENDBRANCH   1  17
TORSDOF 7
