REMARK  Name = ZINC16192951
REMARK  7 active torsions:
REMARK  status: ('A' for Active; 'I' for Inactive)
REMARK    1  A    between atoms: C_6  and  N_7
REMARK    2  A    between atoms: C_8  and  C_10
REMARK    3  A    between atoms: C_14  and  N_15
REMARK    4  A    between atoms: C_16  and  C_18
REMARK    5  A    between atoms: C_18  and  N_52
REMARK    6  A    between atoms: C_19  and  C_20
REMARK    7  A    between atoms: C_19  and  N_52
REMARK                            x       y       z     vdW  Elec       q    Type
REMARK                         _______ _______ _______ _____ _____    ______ ____
ROOT
ATOM      1  C   UNL     1      -0.179   1.447   0.024  0.00  0.00    +0.069 A 
ATOM      2  C   UNL     1       1.053   2.214   0.206  0.00  0.00    -0.023 A 
ATOM      3  C   UNL     1       0.898   3.550   0.207  0.00  0.00    -0.004 A 
ATOM      4  S   UNL     1      -0.844   3.804  -0.025  0.00  0.00    -0.077 S 
ATOM      5  C   UNL     1      -1.358   2.155  -0.130  0.00  0.00    +0.084 A 
ATOM      6  C   UNL     1       2.207   4.269   0.394  0.00  0.00    +0.043 C 
ATOM      7  C   UNL     1       3.284   3.206   0.083  0.00  0.00    +0.010 C 
ATOM      8  C   UNL     1       2.535   1.897   0.407  0.00  0.00    +0.037 C 
ENDROOT
BRANCH   1  10
ATOM      9  N   UNL     1       0.000  -0.672  -1.169  0.00  0.00    -0.281 N 
ATOM     10  C   UNL     1      -0.164  -0.019  -0.001  0.00  0.00    +0.251 C 
ATOM     11  O   UNL     1      -0.301  -0.646   1.033  0.00  0.00    -0.270 OA
ATOM     12  H   UNL     1       0.032  -0.175  -2.002  0.00  0.00    +0.155 HD
BRANCH   9  18
ATOM     13  C   UNL     1       0.755  -2.716  -0.127  0.00  0.00    +0.024 A 
ATOM     14  C   UNL     1       0.871  -4.092  -0.138  0.00  0.00    +0.017 A 
ATOM     15  C   UNL     1       0.371  -4.821  -1.202  0.00  0.00    +0.018 A 
ATOM     16  C   UNL     1      -0.252  -4.175  -2.255  0.00  0.00    +0.017 A 
ATOM     17  C   UNL     1      -0.377  -2.800  -2.246  0.00  0.00    +0.024 A 
ATOM     18  C   UNL     1       0.124  -2.065  -1.180  0.00  0.00    +0.034 A 
ATOM     19 BR   UNL     1       0.538  -6.705  -1.216  0.00  0.00    -0.050 Br
ENDBRANCH   9  18
ENDBRANCH   1  10
BRANCH   5  20
ATOM     20  N   UNL     1      -2.641   1.663  -0.321  0.00  0.00    -0.281 N 
ATOM     21  C   UNL     1      -3.677   2.515  -0.452  0.00  0.00    +0.201 C 
ATOM     22  O   UNL     1      -3.488   3.712  -0.403  0.00  0.00    -0.278 OA
ATOM     23  H   UNL     1      -2.792   0.706  -0.359  0.00  0.00    +0.155 HD
BRANCH  21  24
ATOM     24  C   UNL     1      -5.071   1.980  -0.658  0.00  0.00    +0.015 C 
BRANCH  24  25
ATOM     25  N   UNL     1      -6.011   3.111  -0.771  0.00  0.00    +0.386 N 
ATOM     26  H   UNL     1      -5.741   3.698  -1.569  0.00  0.00    -0.085 HD
ATOM     27  H   UNL     1      -5.975   3.668   0.091  0.00  0.00    -0.085 HD
BRANCH  25  28
ATOM     28  C   UNL     1      -7.385   2.616  -0.974  0.00  0.00    -0.050 C 
BRANCH  28  29
ATOM     29  C   UNL     1      -8.336   3.809  -1.087  0.00  0.00    +0.101 C 
ATOM     30  C   UNL     1      -9.800   3.324  -1.175  0.00  0.00    +0.032 C 
ATOM     31  C   UNL     1     -10.462   4.305  -2.168  0.00  0.00    +0.030 C 
ATOM     32  C   UNL     1      -9.320   5.268  -2.563  0.00  0.00    +0.160 C 
ATOM     33  O   UNL     1      -8.108   4.519  -2.324  0.00  0.00    -0.378 OA
ENDBRANCH  28  29
ENDBRANCH  25  28
ENDBRANCH  24  25
ENDBRANCH  21  24
ENDBRANCH   5  20
TORSDOF 7
