REMARK  Name = ZINC06280221
REMARK  10 active torsions:
REMARK  status: ('A' for Active; 'I' for Inactive)
REMARK    1  A    between atoms: C_1  and  C_2
REMARK    2  A    between atoms: C_5  and  N_8
REMARK    3  A    between atoms: C_9  and  C_23
REMARK    4  A    between atoms: C_12  and  S_13
REMARK    5  A    between atoms: S_13  and  C_14
REMARK    6  A    between atoms: C_14  and  C_15
REMARK    7  A    between atoms: C_15  and  C_17
REMARK    8  A    between atoms: C_23  and  N_24
REMARK    9  A    between atoms: N_24  and  C_25
REMARK   10  A    between atoms: C_28  and  C_32
REMARK                            x       y       z     vdW  Elec       q    Type
REMARK                         _______ _______ _______ _____ _____    ______ ____
ROOT
ATOM      1  N   UNL     1       0.798   4.410   1.121  0.00  0.00    -0.273 N 
ATOM      2  C   UNL     1       0.946   3.620   0.013  0.00  0.00    +0.156 A 
ATOM      3  N   UNL     1       0.790   4.384  -1.032  0.00  0.00    -0.132 NA
ATOM      4  N   UNL     1       0.546   5.591  -0.664  0.00  0.00    -0.122 NA
ATOM      5  C   UNL     1       0.542   5.668   0.647  0.00  0.00    +0.197 A 
ENDROOT
BRANCH   1  10
ATOM      6  C   UNL     1       1.167   2.803   6.553  0.00  0.00    +0.044 C 
ATOM      7  C   UNL     1       1.069   3.230   5.111  0.00  0.00    -0.050 A 
ATOM      8  C   UNL     1       1.995   4.114   4.588  0.00  0.00    +0.005 A 
ATOM      9  C   UNL     1       1.907   4.507   3.267  0.00  0.00    +0.026 A 
ATOM     10  C   UNL     1       0.889   4.013   2.463  0.00  0.00    +0.050 A 
ATOM     11  C   UNL     1      -0.043   3.130   2.992  0.00  0.00    +0.026 A 
ATOM     12  C   UNL     1       0.053   2.736   4.313  0.00  0.00    +0.005 A 
ENDBRANCH   1  10
BRANCH   5  13
ATOM     13  S   UNL     1       0.261   7.115   1.611  0.00  0.00    -0.078 S 
BRANCH  13  14
ATOM     14  C   UNL     1       0.007   8.328   0.292  0.00  0.00    +0.157 C 
BRANCH  14  15
ATOM     15  C   UNL     1      -0.258   9.681   0.898  0.00  0.00    +0.173 C 
ATOM     16  O   UNL     1      -0.275   9.813   2.103  0.00  0.00    -0.291 OA
BRANCH  15  17
ATOM     17  C   UNL     1      -0.498  10.843   0.028  0.00  0.00    +0.018 A 
ATOM     18  C   UNL     1      -0.475  10.697  -1.363  0.00  0.00    +0.011 A 
ATOM     19  C   UNL     1      -0.706  11.789  -2.172  0.00  0.00    +0.001 A 
ATOM     20  C   UNL     1      -0.949  13.031  -1.611  0.00  0.00    +0.000 A 
ATOM     21  C   UNL     1      -0.968  13.185  -0.236  0.00  0.00    +0.001 A 
ATOM     22  C   UNL     1      -0.745  12.101   0.586  0.00  0.00    +0.011 A 
ENDBRANCH  15  17
ENDBRANCH  14  15
ENDBRANCH  13  14
ENDBRANCH   5  13
BRANCH   2  23
ATOM     23  C   UNL     1       1.242   2.142   0.002  0.00  0.00    +0.178 C 
BRANCH  23  24
ATOM     24  N   UNL     1      -0.017   1.393   0.010  0.00  0.00    -0.337 N 
ATOM     25  H   UNL     1      -0.863   1.866   0.016  0.00  0.00    +0.147 HD
BRANCH  24  26
ATOM     26  C   UNL     1       0.002  -0.004   0.002  0.00  0.00    +0.029 A 
ATOM     27  C   UNL     1       1.214  -0.684  -0.019  0.00  0.00    +0.023 A 
ATOM     28  C   UNL     1       1.230  -2.064  -0.021  0.00  0.00    +0.006 A 
ATOM     29  C   UNL     1       0.041  -2.772  -0.013  0.00  0.00    -0.032 A 
ATOM     30  C   UNL     1      -1.168  -2.098   0.002  0.00  0.00    +0.046 A 
ATOM     31  C   UNL     1      -1.190  -0.716   0.010  0.00  0.00    +0.043 A 
ATOM     32 CL   UNL     1      -2.657  -2.990   0.012  0.00  0.00    -0.083 Cl
ATOM     33  C   UNL     1       0.063  -4.278  -0.022  0.00  0.00    +0.045 C 
ENDBRANCH  24  26
ENDBRANCH  23  24
ENDBRANCH   2  23
TORSDOF 8
