REMARK  Name = ZINC63933145
REMARK  7 active torsions:
REMARK  status: ('A' for Active; 'I' for Inactive)
REMARK    1  A    between atoms: C_1  and  O_2
REMARK    2  A    between atoms: O_2  and  C_3
REMARK    3  A    between atoms: C_6  and  C_9
REMARK    4  A    between atoms: C_9  and  N_10
REMARK    5  A    between atoms: C_11  and  O_35
REMARK    6  A    between atoms: C_14  and  O_34
REMARK    7  A    between atoms: C_15  and  C_19
REMARK                            x       y       z     vdW  Elec       q    Type
REMARK                         _______ _______ _______ _____ _____    ______ ____
ROOT
ATOM      1  N   UNL     1       3.923  -2.713  -4.080  0.00  0.00    -0.252 N 
ATOM      2  C   UNL     1       4.873  -1.667  -4.426  0.00  0.00    +0.334 C 
ATOM      3  N   UNL     1       6.112  -1.782  -3.674  0.00  0.00    -0.204 NA
ATOM      4  C   UNL     1       6.508  -2.852  -3.103  0.00  0.00    +0.200 C 
ATOM      5  C   UNL     1       5.727  -4.133  -3.140  0.00  0.00    +0.179 C 
ATOM      6  C   UNL     1       4.292  -3.858  -3.491  0.00  0.00    +0.233 C 
ATOM      7  O   UNL     1       3.450  -4.694  -3.240  0.00  0.00    -0.275 OA
ENDROOT
BRANCH   5   8
ATOM      8  C   UNL     1       6.336  -5.067  -4.188  0.00  0.00    +0.101 C 
ATOM      9  C   UNL     1       7.755  -5.458  -3.768  0.00  0.00    +0.124 C 
ATOM     10  C   UNL     1       8.345  -6.240  -4.936  0.00  0.00    -0.036 C 
ATOM     11  C   UNL     1       8.766  -7.395  -4.439  0.00  0.00    -0.001 A 
ATOM     12  C   UNL     1       9.492  -8.520  -5.050  0.00  0.00    +0.010 A 
ATOM     13  C   UNL     1       9.758  -9.575  -4.236  0.00  0.00    +0.001 A 
ATOM     14  C   UNL     1       9.378  -9.624  -2.891  0.00  0.00    +0.002 A 
ATOM     15  C   UNL     1       8.713  -8.633  -2.245  0.00  0.00    +0.026 A 
ATOM     16  C   UNL     1       8.382  -7.468  -2.996  0.00  0.00    +0.043 A 
ATOM     17  N   UNL     1       7.773  -6.361  -2.618  0.00  0.00    -0.376 N 
ATOM     18  C   UNL     1       8.292  -5.713  -6.349  0.00  0.00    +0.048 C 
ATOM     19  C   UNL     1       6.843  -5.248  -6.581  0.00  0.00    +0.085 C 
ATOM     20  N   UNL     1       6.410  -4.377  -5.485  0.00  0.00    -0.310 NA
ATOM     21  H   UNL     1       5.535  -3.926  -5.705  0.00  0.00    +0.122 HD
ATOM     22  H   UNL     1       7.398  -6.173  -1.743  0.00  0.00    +0.160 HD
ENDBRANCH   5   8
BRANCH   4  23
ATOM     23  O   UNL     1       7.681  -2.832  -2.437  0.00  0.00    -0.495 OA
ATOM     24  H   UNL     1       8.129  -1.975  -2.456  0.00  0.00    +0.293 HD
ENDBRANCH   4  23
BRANCH   2  25
ATOM     25  O   UNL     1       4.283  -0.395  -4.152  0.00  0.00    -0.356 OA
ATOM     26  H   UNL     1       4.856   0.357  -4.357  0.00  0.00    +0.214 HD
ENDBRANCH   2  25
BRANCH   1  27
ATOM     27  C   UNL     1       2.505  -2.503  -4.381  0.00  0.00    +0.147 C 
BRANCH  27  31
ATOM     28  C   UNL     1       0.606  -0.607  -1.056  0.00  0.00    +0.120 A 
ATOM     29  C   UNL     1       1.173   0.161  -2.062  0.00  0.00    +0.046 A 
ATOM     30  C   UNL     1       1.786  -0.455  -3.136  0.00  0.00    +0.009 A 
ATOM     31  C   UNL     1       1.835  -1.835  -3.209  0.00  0.00    -0.030 A 
ATOM     32  C   UNL     1       1.270  -2.602  -2.207  0.00  0.00    +0.009 A 
ATOM     33  C   UNL     1       0.661  -1.992  -1.128  0.00  0.00    +0.046 A 
BRANCH  28  35
ATOM     34  C   UNL     1      -0.017   1.425   0.010  0.00  0.00    +0.277 C 
ATOM     35  O   UNL     1       0.002  -0.004   0.002  0.00  0.00    -0.495 OA
ENDBRANCH  28  35
ENDBRANCH  27  31
ENDBRANCH   1  27
TORSDOF 6
