REMARK  Name = ZINC42952197
REMARK  9 active torsions:
REMARK  status: ('A' for Active; 'I' for Inactive)
REMARK    1  A    between atoms: C_1  and  C_2
REMARK    2  A    between atoms: C_2  and  C_3
REMARK    3  A    between atoms: C_3  and  N_4
REMARK    4  A    between atoms: N_7  and  C_10
REMARK    5  A    between atoms: C_10  and  C_12
REMARK    6  A    between atoms: C_10  and  C_19
REMARK    7  A    between atoms: C_19  and  C_21
REMARK    8  A    between atoms: C_19  and  N_23
REMARK    9  A    between atoms: C_21  and  C_22
REMARK                            x       y       z     vdW  Elec       q    Type
REMARK                         _______ _______ _______ _____ _____    ______ ____
ROOT
ATOM      1  C   UNL     1      -2.159  -5.997   1.245  0.00  0.00    +0.072 C 
ENDROOT
BRANCH   1   5
ATOM      2  N   UNL     1      -1.395  -2.083  -0.158  0.00  0.00    +0.381 N 
ATOM      3  C   UNL     1      -0.816  -2.479   1.133  0.00  0.00    -0.063 C 
ATOM      4  C   UNL     1      -0.779  -4.006   1.228  0.00  0.00    +0.066 C 
ATOM      5  N   UNL     1      -2.145  -4.535   1.101  0.00  0.00    -0.301 NA
ATOM      6  C   UNL     1      -2.747  -4.125  -0.175  0.00  0.00    +0.066 C 
ATOM      7  C   UNL     1      -2.767  -2.597  -0.259  0.00  0.00    -0.063 C 
ATOM      8  H   UNL     1      -0.837  -2.463  -0.907  0.00  0.00    -0.082 HD
BRANCH   2   9
ATOM      9  C   UNL     1      -1.413  -0.617  -0.256  0.00  0.00    -0.079 C 
BRANCH   9  11
ATOM     10  C   UNL     1       0.004   1.437  -0.379  0.00  0.00    +0.002 C 
ATOM     11  C   UNL     1       0.023  -0.089  -0.276  0.00  0.00    -0.022 C 
ENDBRANCH   9  11
ENDBRANCH   2   9
ENDBRANCH   1   5
BRANCH   1  12
ATOM     12  C   UNL     1      -1.610  -6.374   2.597  0.00  0.00    -0.032 A 
ATOM     13  C   UNL     1      -1.945  -5.628   3.711  0.00  0.00    +0.006 A 
ATOM     14  C   UNL     1      -1.442  -5.973   4.951  0.00  0.00    +0.015 A 
ATOM     15  C   UNL     1      -0.605  -7.067   5.077  0.00  0.00    +0.018 A 
ATOM     16  C   UNL     1      -0.270  -7.813   3.962  0.00  0.00    +0.015 A 
ATOM     17  C   UNL     1      -0.777  -7.470   2.723  0.00  0.00    +0.006 A 
ATOM     18 BR   UNL     1       0.084  -7.540   6.774  0.00  0.00    -0.050 Br
ENDBRANCH   1  12
BRANCH   1  19
ATOM     19  C   UNL     1      -3.595  -6.508   1.116  0.00  0.00    -0.053 C 
BRANCH  19  20
ATOM     20  N   UNL     1      -4.429  -5.894   2.158  0.00  0.00    +0.381 N 
ATOM     21  H   UNL     1      -4.418  -4.891   2.050  0.00  0.00    -0.090 HD
ATOM     22  H   UNL     1      -5.376  -6.231   2.074  0.00  0.00    -0.090 HD
ATOM     23  H   UNL     1      -4.065  -6.138   3.067  0.00  0.00    -0.090 HD
ENDBRANCH  19  20
BRANCH  19  24
ATOM     24  C   UNL     1      -3.611  -8.029   1.281  0.00  0.00    -0.018 C 
ATOM     25  C   UNL     1      -5.023  -8.556   1.014  0.00  0.00    +0.002 C 
ENDBRANCH  19  24
ENDBRANCH   1  19
TORSDOF 7
