REMARK  Name = ZINC20568203
REMARK  14 active torsions:
REMARK  status: ('A' for Active; 'I' for Inactive)
REMARK    1  A    between atoms: C_1  and  C_2
REMARK    2  A    between atoms: C_2  and  C_35
REMARK    3  A    between atoms: C_4  and  N_10
REMARK    4  A    between atoms: C_6  and  C_8
REMARK    5  A    between atoms: C_6  and  C_9
REMARK    6  A    between atoms: N_10  and  C_11
REMARK    7  A    between atoms: N_10  and  C_21
REMARK    8  A    between atoms: C_11  and  C_12
REMARK    9  A    between atoms: C_15  and  N_18
REMARK   10  A    between atoms: N_18  and  C_19
REMARK   11  A    between atoms: N_18  and  C_20
REMARK   12  A    between atoms: C_21  and  N_23
REMARK   13  A    between atoms: N_23  and  C_24
REMARK   14  A    between atoms: C_29  and  C_30
REMARK                            x       y       z     vdW  Elec       q    Type
REMARK                         _______ _______ _______ _____ _____    ______ ____
ROOT
ATOM      1  N   UNL     1       1.364   3.158  -3.318  0.00  0.00    -0.305 N 
ENDROOT
BRANCH   1   5
ATOM      2  C   UNL     1       3.396   2.477   1.101  0.00  0.00    -0.010 C 
ATOM      3  C   UNL     1       2.201   2.055   0.217  0.00  0.00    -0.072 C 
ATOM      4  C   UNL     1       2.411   2.672  -1.164  0.00  0.00    +0.009 C 
ATOM      5  C   UNL     1       1.142   2.538  -2.005  0.00  0.00    +0.073 C 
ATOM      6  C   UNL     1       0.005   3.268  -1.290  0.00  0.00    +0.009 C 
ATOM      7  C   UNL     1      -0.234   2.657   0.089  0.00  0.00    -0.072 C 
ATOM      8  N   UNL     1       0.983   2.505   0.858  0.00  0.00    +0.386 N 
ATOM      9  C   UNL     1      -0.964   1.317  -0.065  0.00  0.00    -0.010 C 
ATOM     10  C   UNL     1      -1.178   3.606   0.861  0.00  0.00    -0.010 C 
ATOM     11  C   UNL     1       2.236   0.526   0.106  0.00  0.00    -0.010 C 
ATOM     12  H   UNL     1       0.705   1.798   1.654  0.00  0.00    -0.084 HD
ATOM     13  H   UNL     1       1.145   3.502   1.294  0.00  0.00    -0.084 HD
ENDBRANCH   1   5
BRANCH   1  14
ATOM     14  C   UNL     1       1.341   2.401  -4.433  0.00  0.00    +0.138 C 
ATOM     15  S   UNL     1       1.704   3.104  -5.951  0.00  0.00    -0.018 S 
BRANCH  14  16
ATOM     16  N   UNL     1       1.032   1.092  -4.353  0.00  0.00    -0.296 N 
ATOM     17  H   UNL     1       0.018   0.750  -4.607  0.00  0.00    +0.154 HD
BRANCH  16  18
ATOM     18  C   UNL     1       2.001   0.168  -3.945  0.00  0.00    +0.044 A 
ATOM     19  C   UNL     1       3.269   0.604  -3.582  0.00  0.00    +0.025 A 
ATOM     20  C   UNL     1       4.223  -0.310  -3.180  0.00  0.00    +0.022 A 
ATOM     21  C   UNL     1       3.917  -1.659  -3.139  0.00  0.00    +0.042 A 
ATOM     22  C   UNL     1       2.654  -2.096  -3.499  0.00  0.00    +0.034 A 
ATOM     23  C   UNL     1       1.694  -1.185  -3.896  0.00  0.00    +0.077 A 
ATOM     24 CL   UNL     1       5.118  -2.805  -2.633  0.00  0.00    -0.084 Cl
BRANCH  23  25
ATOM     25  C   UNL     1       0.318  -1.661  -4.283  0.00  0.00    +0.419 C 
ATOM     26  F   UNL     1       0.252  -3.053  -4.154  0.00  0.00    -0.166 F 
ATOM     27  F   UNL     1      -0.633  -1.070  -3.444  0.00  0.00    -0.166 F 
ATOM     28  F   UNL     1       0.056  -1.303  -5.610  0.00  0.00    -0.166 F 
ENDBRANCH  23  25
ENDBRANCH  16  18
ENDBRANCH  14  16
ENDBRANCH   1  14
BRANCH   1  29
ATOM     29  C   UNL     1       1.611   4.599  -3.415  0.00  0.00    +0.142 C 
BRANCH  29  30
ATOM     30  C   UNL     1       3.092   4.862  -3.322  0.00  0.00    -0.030 A 
ATOM     31  C   UNL     1       3.652   5.237  -2.115  0.00  0.00    +0.007 A 
ATOM     32  C   UNL     1       5.010   5.474  -2.026  0.00  0.00    +0.023 A 
ATOM     33  C   UNL     1       5.812   5.344  -3.153  0.00  0.00    +0.029 A 
ATOM     34  C   UNL     1       5.245   4.972  -4.365  0.00  0.00    +0.023 A 
ATOM     35  C   UNL     1       3.888   4.732  -4.446  0.00  0.00    +0.007 A 
BRANCH  33  36
ATOM     36  N   UNL     1       7.184   5.588  -3.067  0.00  0.00    -0.336 N 
ATOM     37  C   UNL     1       8.008   5.571  -4.279  0.00  0.00    +0.129 C 
ATOM     38  C   UNL     1       7.800   5.862  -1.766  0.00  0.00    +0.129 C 
ENDBRANCH  33  36
ENDBRANCH  29  30
ENDBRANCH   1  29
TORSDOF 8
