REMARK  Name = ZINC13639525
REMARK  8 active torsions:
REMARK  status: ('A' for Active; 'I' for Inactive)
REMARK    1  A    between atoms: C_1  and  O_2
REMARK    2  A    between atoms: O_2  and  C_3
REMARK    3  A    between atoms: C_6  and  N_9
REMARK    4  A    between atoms: N_9  and  S_10
REMARK    5  A    between atoms: S_10  and  C_13
REMARK    6  A    between atoms: C_26  and  C_29
REMARK    7  A    between atoms: C_32  and  O_36
REMARK    8  A    between atoms: C_34  and  O_35
REMARK                            x       y       z     vdW  Elec       q    Type
REMARK                         _______ _______ _______ _____ _____    ______ ____
ROOT
ATOM      1  C   UNL     1      -4.725   4.714   2.184  0.00  0.00    +0.109 A 
ATOM      2  C   UNL     1      -5.173   3.723   3.038  0.00  0.00    +0.030 A 
ATOM      3  C   UNL     1      -4.439   2.563   3.184  0.00  0.00    +0.025 A 
ATOM      4  C   UNL     1      -3.256   2.394   2.475  0.00  0.00    +0.031 A 
ATOM      5  C   UNL     1      -2.807   3.368   1.614  0.00  0.00    -0.018 A 
ATOM      6  C   UNL     1      -3.550   4.548   1.480  0.00  0.00    +0.034 A 
ATOM      7  C   UNL     1      -1.538   3.249   0.832  0.00  0.00    +0.049 C 
ATOM      8  C   UNL     1      -1.812   2.956  -0.624  0.00  0.00    -0.023 C 
ATOM      9  C   UNL     1      -0.908   2.134  -1.100  0.00  0.00    -0.030 C 
ATOM     10  C   UNL     1       0.097   1.771  -0.024  0.00  0.00    +0.033 C 
ATOM     11  C   UNL     1      -0.666   2.066   1.301  0.00  0.00    +0.029 C 
ATOM     12  C   UNL     1      -1.552   0.852   1.596  0.00  0.00    +0.108 C 
ATOM     13  N   UNL     1      -2.524   1.213   2.633  0.00  0.00    -0.336 N 
ATOM     14  H   UNL     1      -2.655   0.646   3.409  0.00  0.00    +0.147 HD
ENDROOT
BRANCH  12  15
ATOM     15  C   UNL     1      -2.278   0.441   0.341  0.00  0.00    +0.015 A 
ATOM     16  C   UNL     1      -3.508   0.995   0.043  0.00  0.00    +0.012 A 
ATOM     17  C   UNL     1      -4.175   0.624  -1.110  0.00  0.00    +0.046 A 
ATOM     18  C   UNL     1      -3.614  -0.314  -1.965  0.00  0.00    +0.120 A 
ATOM     19  C   UNL     1      -2.383  -0.875  -1.665  0.00  0.00    +0.091 A 
ATOM     20  C   UNL     1      -1.714  -0.498  -0.511  0.00  0.00    +0.125 A 
BRANCH  20  21
ATOM     21  O   UNL     1      -0.506  -1.046  -0.214  0.00  0.00    -0.506 OA
ATOM     22  H   UNL     1      -0.560  -1.852   0.317  0.00  0.00    +0.292 HD
ENDBRANCH  20  21
BRANCH  18  23
ATOM     23  O   UNL     1      -4.272  -0.682  -3.096  0.00  0.00    -0.507 OA
ATOM     24  H   UNL     1      -4.866  -1.436  -2.978  0.00  0.00    +0.292 HD
ENDBRANCH  18  23
ENDBRANCH  12  15
BRANCH   1  25
ATOM     25  S   UNL     1      -5.659   6.197   1.995  0.00  0.00    +0.072 S 
ATOM     26  O   UNL     1      -5.381   6.688   0.691  0.00  0.00    -0.150 OA
ATOM     27  O   UNL     1      -6.978   5.904   2.434  0.00  0.00    -0.150 OA
BRANCH  25  28
ATOM     28  N   UNL     1      -5.040   7.304   3.060  0.00  0.00    -0.216 N 
ATOM     29  H   UNL     1      -5.589   7.637   3.786  0.00  0.00    +0.174 HD
BRANCH  28  33
ATOM     30  C   UNL     1      -1.123   8.659   2.616  0.00  0.00    +0.120 A 
ATOM     31  C   UNL     1      -2.114   9.111   1.758  0.00  0.00    +0.047 A 
ATOM     32  C   UNL     1      -3.412   8.662   1.904  0.00  0.00    +0.028 A 
ATOM     33  C   UNL     1      -3.725   7.758   2.911  0.00  0.00    +0.048 A 
ATOM     34  C   UNL     1      -2.733   7.311   3.773  0.00  0.00    +0.028 A 
ATOM     35  C   UNL     1      -1.435   7.756   3.622  0.00  0.00    +0.047 A 
BRANCH  30  37
ATOM     36  C   UNL     1       1.125   8.594   3.392  0.00  0.00    +0.277 C 
ATOM     37  O   UNL     1       0.155   9.101   2.472  0.00  0.00    -0.495 OA
ENDBRANCH  30  37
ENDBRANCH  28  33
ENDBRANCH  25  28
ENDBRANCH   1  25
TORSDOF 7
