REMARK  Name = ZINC15305602
REMARK  4 active torsions:
REMARK  status: ('A' for Active; 'I' for Inactive)
REMARK    1  A    between atoms: C_4  and  C_7
REMARK    2  A    between atoms: C_10  and  C_36
REMARK    3  A    between atoms: C_15  and  C_17
REMARK    4  A    between atoms: N_22  and  C_25
REMARK                            x       y       z     vdW  Elec       q    Type
REMARK                         _______ _______ _______ _____ _____    ______ ____
ROOT
ATOM      1  C   UNL     1       4.247  -7.991   6.417  0.00  0.00    +0.104 C 
ATOM      2  C   UNL     1       5.726  -8.153   6.783  0.00  0.00    +0.058 C 
ATOM      3  C   UNL     1       6.535  -8.522   5.534  0.00  0.00    +0.141 C 
ATOM      4  N   UNL     1       6.202  -7.584   4.459  0.00  0.00    -0.243 N 
ATOM      5  C   UNL     1       5.071  -6.818   4.444  0.00  0.00    +0.119 A 
ATOM      6  C   UNL     1       5.083  -6.074   3.321  0.00  0.00    +0.078 A 
ATOM      7  C   UNL     1       6.263  -6.391   2.611  0.00  0.00    +0.149 A 
ATOM      8  N   UNL     1       6.928  -7.299   3.303  0.00  0.00    -0.164 NA
ATOM      9  N   UNL     1       4.115  -6.871   5.464  0.00  0.00    -0.322 N 
ATOM     10  H   UNL     1       3.409  -6.210   5.543  0.00  0.00    +0.148 HD
ENDROOT
BRANCH   7  11
ATOM     11  C   UNL     1       6.681  -5.807   1.320  0.00  0.00    +0.267 C 
ATOM     12  O   UNL     1       6.052  -4.885   0.838  0.00  0.00    -0.268 OA
ATOM     13  N   UNL     1       7.758  -6.298   0.676  0.00  0.00    -0.300 N 
ATOM     14  C   UNL     1       8.285  -5.638  -0.529  0.00  0.00    +0.089 C 
ATOM     15  C   UNL     1       8.455  -6.694  -1.626  0.00  0.00    -0.059 C 
ATOM     16  N   UNL     1       9.290  -7.792  -1.122  0.00  0.00    +0.385 N 
ATOM     17  C   UNL     1       8.605  -8.476  -0.018  0.00  0.00    -0.059 C 
ATOM     18  C   UNL     1       8.446  -7.504   1.162  0.00  0.00    +0.089 C 
ATOM     19  H   UNL     1      10.169  -7.420  -0.792  0.00  0.00    -0.081 HD
BRANCH  16  20
ATOM     20  C   UNL     1       9.544  -8.750  -2.207  0.00  0.00    -0.065 C 
ATOM     21  C   UNL     1      10.268  -8.041  -3.353  0.00  0.00    -0.009 C 
ATOM     22  C   UNL     1      10.533  -9.039  -4.483  0.00  0.00    -0.012 C 
ATOM     23  C   UNL     1      11.403 -10.183  -3.959  0.00  0.00    +0.007 C 
ATOM     24  C   UNL     1      10.679 -10.891  -2.813  0.00  0.00    -0.012 C 
ATOM     25  C   UNL     1      10.415  -9.894  -1.683  0.00  0.00    -0.009 C 
ATOM     26  C   UNL     1       9.349 -11.453  -3.319  0.00  0.00    +0.007 C 
ATOM     27  C   UNL     1       8.478 -10.309  -3.842  0.00  0.00    -0.012 C 
ATOM     28  C   UNL     1       9.203  -9.600  -4.989  0.00  0.00    +0.007 C 
ATOM     29  C   UNL     1       8.214  -9.311  -2.713  0.00  0.00    -0.009 C 
ENDBRANCH  16  20
ENDBRANCH   7  11
BRANCH   1  33
ATOM     30  C   UNL     1       1.982  -7.152   9.941  0.00  0.00    +0.000 A 
ATOM     31  C   UNL     1       2.000  -8.432   9.419  0.00  0.00    +0.000 A 
ATOM     32  C   UNL     1       2.733  -8.703   8.278  0.00  0.00    +0.005 A 
ATOM     33  C   UNL     1       3.447  -7.694   7.659  0.00  0.00    -0.027 A 
ATOM     34  C   UNL     1       3.429  -6.414   8.181  0.00  0.00    +0.005 A 
ATOM     35  C   UNL     1       2.697  -6.143   9.322  0.00  0.00    +0.000 A 
ENDBRANCH   1  33
BRANCH   3  36
ATOM     36  C   UNL     1       8.008  -8.437   5.844  0.00  0.00    -0.023 A 
ATOM     37  C   UNL     1       8.558  -7.239   6.261  0.00  0.00    +0.006 A 
ATOM     38  C   UNL     1       9.909  -7.161   6.545  0.00  0.00    +0.000 A 
ATOM     39  C   UNL     1      10.709  -8.281   6.412  0.00  0.00    +0.000 A 
ATOM     40  C   UNL     1      10.158  -9.479   5.997  0.00  0.00    +0.000 A 
ATOM     41  C   UNL     1       8.807  -9.558   5.717  0.00  0.00    +0.006 A 
ENDBRANCH   3  36
TORSDOF 4
