REMARK  Name = ZINC38673043
REMARK  12 active torsions:
REMARK  status: ('A' for Active; 'I' for Inactive)
REMARK    1  A    between atoms: C_1  and  C_2
REMARK    2  A    between atoms: C_2  and  C_3
REMARK    3  A    between atoms: C_2  and  S_4
REMARK    4  A    between atoms: S_4  and  C_7
REMARK    5  A    between atoms: C_10  and  C_13
REMARK    6  A    between atoms: C_13  and  C_14
REMARK    7  A    between atoms: N_16  and  C_17
REMARK    8  A    between atoms: C_17  and  C_18
REMARK    9  A    between atoms: C_18  and  C_20
REMARK   10  A    between atoms: C_18  and  N_31
REMARK   11  A    between atoms: N_29  and  C_30
REMARK   12  A    between atoms: N_34  and  C_37
REMARK                            x       y       z     vdW  Elec       q    Type
REMARK                         _______ _______ _______ _____ _____    ______ ____
ROOT
ATOM      1  C   UNL     1      -2.826   4.578  -8.142  0.00  0.00    +0.104 C 
ENDROOT
BRANCH   1   2
ATOM      2  C   UNL     1      -1.851   5.087  -9.172  0.00  0.00    -0.028 A 
ATOM      3  C   UNL     1      -1.084   4.194  -9.897  0.00  0.00    +0.007 A 
ATOM      4  C   UNL     1      -0.190   4.660 -10.840  0.00  0.00    +0.024 A 
ATOM      5  C   UNL     1      -0.062   6.027 -11.061  0.00  0.00    +0.033 A 
ATOM      6  C   UNL     1      -0.833   6.922 -10.336  0.00  0.00    -0.026 A 
ATOM      7  C   UNL     1      -1.730   6.445  -9.394  0.00  0.00    +0.010 A 
ATOM      8  C   UNL     1      -0.729   8.409 -10.556  0.00  0.00    +0.038 C 
ATOM      9  C   UNL     1       0.601   8.759 -11.223  0.00  0.00    +0.024 C 
ATOM     10  C   UNL     1       0.780   7.877 -12.465  0.00  0.00    +0.105 C 
ATOM     11  N   UNL     1       0.854   6.480 -12.017  0.00  0.00    -0.333 N 
ATOM     12  C   UNL     1       1.868   5.575 -12.563  0.00  0.00    +0.129 C 
ENDBRANCH   1   2
BRANCH   1  13
ATOM     13  N   UNL     1      -3.489   3.370  -8.650  0.00  0.00    -0.297 NA
ATOM     14  C   UNL     1      -4.209   3.652  -9.901  0.00  0.00    +0.066 C 
ATOM     15  C   UNL     1      -4.835   2.358 -10.428  0.00  0.00    -0.064 C 
ATOM     16  N   UNL     1      -5.758   1.816  -9.422  0.00  0.00    +0.379 N 
ATOM     17  C   UNL     1      -5.021   1.518  -8.188  0.00  0.00    -0.064 C 
ATOM     18  C   UNL     1      -4.396   2.804  -7.642  0.00  0.00    +0.066 C 
ATOM     19  C   UNL     1      -6.372   0.585  -9.936  0.00  0.00    -0.096 C 
ATOM     20  H   UNL     1      -6.479   2.495  -9.227  0.00  0.00    -0.082 HD
ENDBRANCH   1  13
BRANCH   1  21
ATOM     21  C   UNL     1      -2.075   4.243  -6.852  0.00  0.00    +0.127 C 
BRANCH  21  24
ATOM     22  C   UNL     1      -0.766   5.409  -5.160  0.00  0.00    +0.217 C 
ATOM     23  O   UNL     1      -0.601   4.348  -4.597  0.00  0.00    -0.275 OA
ATOM     24  N   UNL     1      -1.488   5.465  -6.296  0.00  0.00    -0.313 N 
ATOM     25  H   UNL     1      -1.620   6.314  -6.746  0.00  0.00    +0.149 HD
BRANCH  22  26
ATOM     26  C   UNL     1      -0.162   6.667  -4.588  0.00  0.00    +0.130 C 
BRANCH  26  30
ATOM     27  C   UNL     1       1.971   5.725  -1.009  0.00  0.00    +0.088 A 
ATOM     28  C   UNL     1       2.619   5.691  -2.230  0.00  0.00    +0.027 A 
ATOM     29  C   UNL     1       1.929   5.995  -3.388  0.00  0.00    +0.006 A 
ATOM     30  C   UNL     1       0.590   6.334  -3.326  0.00  0.00    -0.039 A 
ATOM     31  C   UNL     1      -0.058   6.367  -2.106  0.00  0.00    +0.006 A 
ATOM     32  C   UNL     1       0.631   6.058  -0.948  0.00  0.00    +0.027 A 
BRANCH  27  33
ATOM     33  S   UNL     1       2.851   5.337   0.467  0.00  0.00    -0.001 S 
ATOM     34  O   UNL     1       2.153   6.025   1.496  0.00  0.00    -0.169 OA
ATOM     35  O   UNL     1       4.206   5.652   0.175  0.00  0.00    -0.169 OA
BRANCH  33  37
ATOM     36  C   UNL     1       3.245   2.827  -0.546  0.00  0.00    +0.032 C 
ATOM     37  C   UNL     1       2.655   3.545   0.669  0.00  0.00    +0.130 C 
ATOM     38  C   UNL     1       3.387   3.091   1.934  0.00  0.00    +0.032 C 
ENDBRANCH  33  37
ENDBRANCH  27  33
ENDBRANCH  26  30
ENDBRANCH  22  26
ENDBRANCH  21  24
ENDBRANCH   1  21
TORSDOF 8
