REMARK  Name = ZINC26456770
REMARK  5 active torsions:
REMARK  status: ('A' for Active; 'I' for Inactive)
REMARK    1  A    between atoms: C_6  and  N_7
REMARK    2  A    between atoms: C_8  and  C_10
REMARK    3  A    between atoms: C_10  and  N_11
REMARK    4  A    between atoms: C_15  and  C_17
REMARK    5  A    between atoms: N_19  and  C_20
REMARK                            x       y       z     vdW  Elec       q    Type
REMARK                         _______ _______ _______ _____ _____    ______ ____
ROOT
ATOM      1  N   UNL     1       1.178  -2.107  -0.229  0.00  0.00    +0.393 N 
ATOM      2  C   UNL     1       1.672  -2.256  -1.614  0.00  0.00    -0.077 C 
ATOM      3  C   UNL     1       2.693  -1.105  -1.796  0.00  0.00    -0.020 C 
ATOM      4  C   UNL     1       2.020   0.040  -0.993  0.00  0.00    -0.008 C 
ATOM      5  C   UNL     1       1.360  -0.704   0.187  0.00  0.00    +0.020 C 
ATOM      6  H   UNL     1       1.745  -2.768   0.443  0.00  0.00    -0.080 HD
ENDROOT
BRANCH   5   7
ATOM      7  C   UNL     1       0.022  -0.084   0.499  0.00  0.00    +0.204 C 
ATOM      8  O   UNL     1      -0.801   0.058  -0.380  0.00  0.00    -0.277 OA
ATOM      9  N   UNL     1      -0.260   0.312   1.756  0.00  0.00    -0.286 N 
ATOM     10  H   UNL     1       0.449   0.103   2.571  0.00  0.00    +0.155 HD
BRANCH   9  11
ATOM     11  C   UNL     1      -1.454   0.992   2.025  0.00  0.00    +0.052 A 
ATOM     12  C   UNL     1      -2.096   1.696   1.015  0.00  0.00    +0.026 A 
ATOM     13  C   UNL     1      -3.277   2.361   1.281  0.00  0.00    +0.022 A 
ATOM     14  C   UNL     1      -3.817   2.333   2.555  0.00  0.00    +0.042 A 
ATOM     15  C   UNL     1      -3.177   1.637   3.566  0.00  0.00    +0.041 A 
ATOM     16  C   UNL     1      -1.997   0.966   3.304  0.00  0.00    +0.064 A 
ATOM     17 CL   UNL     1      -1.195   0.092   4.571  0.00  0.00    -0.082 Cl
ATOM     18 CL   UNL     1      -5.298   3.175   2.887  0.00  0.00    -0.083 Cl
ENDBRANCH   9  11
ENDBRANCH   5   7
BRANCH   1  19
ATOM     19  C   UNL     1      -0.232  -2.507  -0.127  0.00  0.00    +0.020 C 
BRANCH  19  21
ATOM     20  N   UNL     1      -1.604  -4.506  -0.619  0.00  0.00    -0.287 N 
ATOM     21  C   UNL     1      -0.389  -3.923  -0.619  0.00  0.00    +0.201 C 
ATOM     22  O   UNL     1       0.579  -4.538  -1.016  0.00  0.00    -0.278 OA
ATOM     23  H   UNL     1      -2.494  -3.921  -0.343  0.00  0.00    +0.155 HD
BRANCH  20  29
ATOM     24  C   UNL     1      -2.864  -6.292  -1.648  0.00  0.00    +0.026 A 
ATOM     25  C   UNL     1      -2.986  -7.623  -1.998  0.00  0.00    +0.040 A 
ATOM     26  C   UNL     1      -1.989  -8.523  -1.663  0.00  0.00    +0.124 A 
ATOM     27  C   UNL     1      -0.864  -8.090  -0.982  0.00  0.00    +0.040 A 
ATOM     28  C   UNL     1      -0.734  -6.760  -0.635  0.00  0.00    +0.026 A 
ATOM     29  C   UNL     1      -1.733  -5.855  -0.970  0.00  0.00    +0.033 A 
ATOM     30  F   UNL     1      -2.113  -9.825  -2.002  0.00  0.00    -0.205 F 
ENDBRANCH  20  29
ENDBRANCH  19  21
ENDBRANCH   1  19
TORSDOF 5
