REMARK  Name = ZINC38567807
REMARK  4 active torsions:
REMARK  status: ('A' for Active; 'I' for Inactive)
REMARK    1  A    between atoms: C_4  and  C_7
REMARK    2  A    between atoms: C_7  and  C_9
REMARK    3  A    between atoms: C_7  and  N_12
REMARK    4  A    between atoms: C_16  and  C_17
REMARK                            x       y       z     vdW  Elec       q    Type
REMARK                         _______ _______ _______ _____ _____    ______ ____
ROOT
ATOM      1  N   UNL     1       3.590  -1.936   0.751  0.00  0.00    -0.237 N 
ATOM      2  C   UNL     1       4.349  -2.093   1.822  0.00  0.00    +0.259 C 
ATOM      3  O   UNL     1       5.146  -1.244   2.173  0.00  0.00    -0.269 OA
ATOM      4  C   UNL     1       4.175  -3.361   2.575  0.00  0.00    +0.076 C 
ATOM      5  C   UNL     1       4.795  -3.789   3.680  0.00  0.00    +0.039 C 
ATOM      6  S   UNL     1       2.908  -4.158   1.597  0.00  0.00    -0.061 S 
ATOM      7  C   UNL     1       2.704  -2.877   0.369  0.00  0.00    +0.122 C 
ATOM      8  S   UNL     1       1.640  -2.853  -0.972  0.00  0.00    -0.027 S 
ENDROOT
BRANCH   5   9
ATOM      9  C   UNL     1       4.444  -5.131   4.269  0.00  0.00    +0.200 C 
ATOM     10  N   UNL     1       4.015  -4.973   5.664  0.00  0.00    -0.360 N 
ATOM     11  C   UNL     1       4.841  -5.653   6.406  0.00  0.00    +0.060 A 
ATOM     12  C   UNL     1       4.929  -5.876   7.856  0.00  0.00    +0.027 A 
ATOM     13  C   UNL     1       5.918  -6.648   8.351  0.00  0.00    +0.002 A 
ATOM     14  C   UNL     1       6.885  -7.258   7.533  0.00  0.00    +0.002 A 
ATOM     15  C   UNL     1       6.896  -7.118   6.192  0.00  0.00    +0.027 A 
ATOM     16  C   UNL     1       5.864  -6.300   5.540  0.00  0.00    +0.060 A 
ATOM     17  N   UNL     1       5.632  -5.995   4.296  0.00  0.00    -0.360 N 
ATOM     18  H   UNL     1       3.256  -4.457   5.976  0.00  0.00    +0.162 HD
ATOM     19  H   UNL     1       6.148  -6.285   3.528  0.00  0.00    +0.162 HD
ENDBRANCH   5   9
BRANCH   1  20
ATOM     20  C   UNL     1       3.711  -0.707  -0.038  0.00  0.00    +0.226 C 
BRANCH  20  24
ATOM     21  C   UNL     1       7.792  -0.131  -1.161  0.00  0.00    +0.000 A 
ATOM     22  C   UNL     1       7.250  -1.403  -1.154  0.00  0.00    +0.000 A 
ATOM     23  C   UNL     1       5.929  -1.589  -0.790  0.00  0.00    +0.006 A 
ATOM     24  C   UNL     1       5.151  -0.504  -0.433  0.00  0.00    -0.016 A 
ATOM     25  C   UNL     1       5.693   0.768  -0.439  0.00  0.00    +0.006 A 
ATOM     26  C   UNL     1       7.014   0.954  -0.804  0.00  0.00    +0.000 A 
ENDBRANCH  20  24
BRANCH  20  27
ATOM     27  C   UNL     1       3.246   0.466   0.786  0.00  0.00    +0.381 C 
ATOM     28  O   UNL     1       2.747   1.435   0.240  0.00  0.00    -0.244 OA
ATOM     29  O   UNL     1       3.369   0.446   1.999  0.00  0.00    -0.244 OA
ENDBRANCH  20  27
ENDBRANCH   1  20
TORSDOF 4
