REMARK  Name = ZINC62550967
REMARK  5 active torsions:
REMARK  status: ('A' for Active; 'I' for Inactive)
REMARK    1  A    between atoms: C_1  and  C_2
REMARK    2  A    between atoms: C_8  and  O_27
REMARK    3  A    between atoms: N_12  and  S_13
REMARK    4  A    between atoms: S_13  and  C_16
REMARK    5  A    between atoms: N_25  and  C_26
REMARK                            x       y       z     vdW  Elec       q    Type
REMARK                         _______ _______ _______ _____ _____    ______ ____
ROOT
ATOM      1  S   UNL     1       0.413  -4.974  -1.442  0.00  0.00    +0.075 S 
ATOM      2  O   UNL     1       1.057  -4.041  -2.298  0.00  0.00    -0.150 OA
ATOM      3  O   UNL     1       1.015  -6.205  -1.067  0.00  0.00    -0.150 OA
ENDROOT
BRANCH   1  14
ATOM      4  C   UNL     1      -0.855   1.427  -0.151  0.00  0.00    +0.044 C 
ATOM      5  C   UNL     1      -0.612  -0.060  -0.117  0.00  0.00    -0.050 A 
ATOM      6  C   UNL     1      -0.605  -0.786  -1.294  0.00  0.00    +0.005 A 
ATOM      7  C   UNL     1      -0.380  -2.147  -1.262  0.00  0.00    +0.025 A 
ATOM      8  C   UNL     1      -0.162  -2.788  -0.047  0.00  0.00    +0.057 A 
ATOM      9  C   UNL     1      -0.173  -2.061   1.133  0.00  0.00    +0.004 A 
ATOM     10  C   UNL     1      -0.391  -0.694   1.091  0.00  0.00    +0.011 A 
ATOM     11  C   UNL     1       0.049  -2.723   2.467  0.00  0.00    +0.148 C 
ATOM     12  C   UNL     1       0.758  -4.065   2.287  0.00  0.00    +0.057 C 
ATOM     13  C   UNL     1      -0.002  -4.891   1.241  0.00  0.00    +0.134 C 
ATOM     14  N   UNL     1       0.068  -4.168  -0.037  0.00  0.00    -0.203 N 
BRANCH  11  15
ATOM     15  O   UNL     1       0.853  -1.872   3.288  0.00  0.00    -0.387 OA
ATOM     16  H   UNL     1       1.038  -2.233   4.165  0.00  0.00    +0.210 HD
ENDBRANCH  11  15
ENDBRANCH   1  14
BRANCH   1  17
ATOM     17  C   UNL     1      -1.125  -5.378  -2.202  0.00  0.00    +0.109 A 
ATOM     18  C   UNL     1      -1.753  -6.574  -1.905  0.00  0.00    +0.030 A 
ATOM     19  C   UNL     1      -2.957  -6.895  -2.497  0.00  0.00    +0.026 A 
ATOM     20  C   UNL     1      -3.550  -6.014  -3.400  0.00  0.00    +0.040 A 
ATOM     21  C   UNL     1      -2.910  -4.816  -3.689  0.00  0.00    -0.015 A 
ATOM     22  C   UNL     1      -1.710  -4.496  -3.094  0.00  0.00    +0.034 A 
ATOM     23  C   UNL     1      -3.789  -4.094  -4.684  0.00  0.00    +0.133 C 
ATOM     24  C   UNL     1      -4.958  -5.032  -4.891  0.00  0.00    +0.224 C 
ATOM     25  O   UNL     1      -5.912  -4.847  -5.618  0.00  0.00    -0.275 OA
ATOM     26  N   UNL     1      -4.743  -6.110  -4.117  0.00  0.00    -0.274 N 
ATOM     27  C   UNL     1      -5.655  -7.253  -4.036  0.00  0.00    +0.138 C 
ENDBRANCH   1  17
TORSDOF 3
