REMARK  Name = ZINC28973954
REMARK  13 active torsions:
REMARK  status: ('A' for Active; 'I' for Inactive)
REMARK    1  A    between atoms: C_1  and  C_2
REMARK    2  A    between atoms: C_2  and  C_3
REMARK    3  A    between atoms: C_2  and  C_4
REMARK    4  A    between atoms: C_2  and  N_5
REMARK    5  A    between atoms: C_9  and  C_11
REMARK    6  A    between atoms: C_11  and  N_12
REMARK    7  A    between atoms: N_12  and  C_13
REMARK    8  A    between atoms: N_12  and  C_24
REMARK    9  A    between atoms: C_13  and  C_14
REMARK   10  A    between atoms: N_19  and  C_20
REMARK   11  A    between atoms: C_20  and  C_21
REMARK   12  A    between atoms: C_20  and  C_22
REMARK   13  A    between atoms: C_20  and  C_23
REMARK                            x       y       z     vdW  Elec       q    Type
REMARK                         _______ _______ _______ _____ _____    ______ ____
ROOT
ATOM      1  N   UNL     1       0.124  -0.025   0.224  0.00  0.00    +0.393 N 
ATOM      2  H   UNL     1       0.321  -0.496  -0.750  0.00  0.00    -0.080 HD
ENDROOT
BRANCH   1   3
ATOM      3  C   UNL     1       0.049   1.427   0.016  0.00  0.00    -0.067 C 
ATOM      4  C   UNL     1      -1.189   2.154   0.544  0.00  0.00    -0.017 C 
ATOM      5  C   UNL     1      -1.007   1.948  -0.961  0.00  0.00    -0.017 C 
ENDBRANCH   1   3
BRANCH   1   6
ATOM      6  C   UNL     1       1.230  -0.371   1.125  0.00  0.00    +0.020 C 
BRANCH   6  11
ATOM      7  N   UNL     1       6.035  -0.205   1.161  0.00  0.00    -0.294 N 
ATOM      8  C   UNL     1       4.875   0.029   0.516  0.00  0.00    +0.306 C 
ATOM      9  O   UNL     1       4.886   0.510  -0.600  0.00  0.00    -0.252 OA
ATOM     10  N   UNL     1       3.702  -0.271   1.108  0.00  0.00    -0.242 N 
ATOM     11  C   UNL     1       2.542  -0.037   0.463  0.00  0.00    +0.204 C 
ATOM     12  O   UNL     1       2.554   0.443  -0.650  0.00  0.00    -0.277 OA
ATOM     13  H   UNL     1       6.024  -0.640   2.171  0.00  0.00    +0.151 HD
ATOM     14  H   UNL     1       3.691  -0.706   2.118  0.00  0.00    +0.159 HD
BRANCH   7  16
ATOM     15  C   UNL     1       7.356   1.617   0.205  0.00  0.00    +0.031 C 
ATOM     16  C   UNL     1       7.310   0.120   0.517  0.00  0.00    +0.028 C 
ATOM     17  C   UNL     1       8.462  -0.240   1.456  0.00  0.00    +0.031 C 
ATOM     18  C   UNL     1       7.442  -0.676  -0.783  0.00  0.00    +0.031 C 
ENDBRANCH   7  16
ENDBRANCH   6  11
ENDBRANCH   1   6
BRANCH   1  19
ATOM     19  C   UNL     1      -1.151  -0.550   0.729  0.00  0.00    +0.020 C 
BRANCH  19  20
ATOM     20  C   UNL     1      -1.165  -2.051   0.596  0.00  0.00    +0.204 C 
ATOM     21  O   UNL     1      -0.251  -2.618   0.036  0.00  0.00    -0.277 OA
ATOM     22  N   UNL     1      -2.192  -2.764   1.099  0.00  0.00    -0.242 N 
ATOM     23  C   UNL     1      -2.204  -4.106   0.980  0.00  0.00    +0.306 C 
ATOM     24  O   UNL     1      -1.288  -4.674   0.418  0.00  0.00    -0.252 OA
ATOM     25  N   UNL     1      -3.232  -4.818   1.483  0.00  0.00    -0.294 N 
ATOM     26  H   UNL     1      -3.021  -2.249   1.607  0.00  0.00    +0.159 HD
ATOM     27  H   UNL     1      -4.061  -4.304   1.991  0.00  0.00    +0.151 HD
BRANCH  25  28
ATOM     28  C   UNL     1      -3.244  -6.277   1.353  0.00  0.00    +0.028 C 
ATOM     29  C   UNL     1      -2.013  -6.862   2.049  0.00  0.00    +0.031 C 
ATOM     30  C   UNL     1      -4.511  -6.836   2.004  0.00  0.00    +0.031 C 
ATOM     31  C   UNL     1      -3.222  -6.658  -0.128  0.00  0.00    +0.031 C 
ENDBRANCH  25  28
ENDBRANCH  19  20
ENDBRANCH   1  19
TORSDOF 7
