REMARK  Name = ZINC09166329
REMARK  11 active torsions:
REMARK  status: ('A' for Active; 'I' for Inactive)
REMARK    1  A    between atoms: C_1  and  C_2
REMARK    2  A    between atoms: C_2  and  C_3
REMARK    3  A    between atoms: C_2  and  C_4
REMARK    4  A    between atoms: C_4  and  C_5
REMARK    5  A    between atoms: C_5  and  C_7
REMARK    6  A    between atoms: C_5  and  N_19
REMARK    7  A    between atoms: N_9  and  C_10
REMARK    8  A    between atoms: C_10  and  C_11
REMARK    9  A    between atoms: C_16  and  O_17
REMARK   10  A    between atoms: O_17  and  C_18
REMARK   11  A    between atoms: C_20  and  C_22
REMARK                            x       y       z     vdW  Elec       q    Type
REMARK                         _______ _______ _______ _____ _____    ______ ____
ROOT
ATOM      1  C   UNL     1      -0.013   1.086   0.008  0.00  0.00    +0.159 C 
ENDROOT
BRANCH   1   2
ATOM      2  C   UNL     1      -0.718   1.572   1.248  0.00  0.00    +0.234 C 
ATOM      3  O   UNL     1      -1.714   2.256   1.150  0.00  0.00    -0.274 OA
ATOM      4  N   UNL     1      -0.242   1.246   2.466  0.00  0.00    -0.310 N 
ATOM      5  H   UNL     1       0.555   0.699   2.544  0.00  0.00    +0.149 HD
BRANCH   4   6
ATOM      6  C   UNL     1      -0.927   1.718   3.671  0.00  0.00    +0.143 C 
BRANCH   6   7
ATOM      7  C   UNL     1      -0.198   1.219   4.892  0.00  0.00    +0.011 A 
ATOM      8  C   UNL     1      -0.670   0.115   5.575  0.00  0.00    +0.009 A 
ATOM      9  C   UNL     1      -0.001  -0.344   6.695  0.00  0.00    +0.001 A 
ATOM     10  C   UNL     1       1.141   0.301   7.134  0.00  0.00    +0.004 A 
ATOM     11  C   UNL     1       1.616   1.405   6.455  0.00  0.00    +0.046 A 
ATOM     12  C   UNL     1       0.949   1.865   5.328  0.00  0.00    +0.125 A 
BRANCH  12  13
ATOM     13  O   UNL     1       1.418   2.948   4.654  0.00  0.00    -0.495 OA
ATOM     14  C   UNL     1       2.605   3.563   5.160  0.00  0.00    +0.277 C 
ENDBRANCH  12  13
ENDBRANCH   6   7
ENDBRANCH   4   6
ENDBRANCH   1   2
BRANCH   1  15
ATOM     15  N   UNL     1      -0.721   1.571  -1.179  0.00  0.00    -0.305 N 
ATOM     16  C   UNL     1      -0.620   0.902  -2.344  0.00  0.00    +0.200 C 
ATOM     17  O   UNL     1       0.057  -0.102  -2.411  0.00  0.00    -0.278 OA
ATOM     18  H   UNL     1      -1.263   2.374  -1.126  0.00  0.00    +0.149 HD
BRANCH  16  19
ATOM     19  C   UNL     1      -1.349   1.401  -3.565  0.00  0.00    +0.021 C 
ATOM     20  C   UNL     1      -0.561   2.547  -4.201  0.00  0.00    +0.028 C 
ATOM     21  C   UNL     1      -1.147   2.889  -5.547  0.00  0.00    -0.047 A 
ATOM     22  C   UNL     1      -0.816   4.107  -6.122  0.00  0.00    +0.004 A 
ATOM     23  C   UNL     1      -1.326   4.458  -7.356  0.00  0.00    +0.000 A 
ATOM     24  C   UNL     1      -2.173   3.591  -8.021  0.00  0.00    +0.000 A 
ATOM     25  C   UNL     1      -2.505   2.380  -7.449  0.00  0.00    +0.002 A 
ATOM     26  C   UNL     1      -1.994   2.026  -6.209  0.00  0.00    -0.061 A 
ATOM     27  C   UNL     1      -2.392   0.698  -5.621  0.00  0.00    -0.045 C 
ATOM     28  N   UNL     1      -1.466   0.308  -4.549  0.00  0.00    +0.389 N 
ATOM     29  H   UNL     1      -1.821  -0.534  -4.081  0.00  0.00    -0.084 HD
ATOM     30  H   UNL     1      -0.542   0.112  -4.951  0.00  0.00    -0.084 HD
ENDBRANCH  16  19
ENDBRANCH   1  15
BRANCH   1  31
ATOM     31  C   UNL     1       1.423   1.615  -0.003  0.00  0.00    +0.034 C 
BRANCH  31  33
ATOM     32  C   UNL     1       3.571   1.646  -1.278  0.00  0.00    +0.007 C 
ATOM     33  C   UNL     1       2.176   1.022  -1.195  0.00  0.00    -0.015 C 
ATOM     34  C   UNL     1       2.305  -0.492  -1.015  0.00  0.00    +0.007 C 
ENDBRANCH  31  33
ENDBRANCH   1  31
TORSDOF 8
