REMARK  Name = ZINC14137838
REMARK  6 active torsions:
REMARK  status: ('A' for Active; 'I' for Inactive)
REMARK    1  A    between atoms: C_1  and  O_2
REMARK    2  A    between atoms: O_2  and  C_3
REMARK    3  A    between atoms: C_15  and  N_16
REMARK    4  A    between atoms: C_17  and  C_19
REMARK    5  A    between atoms: C_19  and  N_51
REMARK    6  A    between atoms: C_24  and  C_26
REMARK                            x       y       z     vdW  Elec       q    Type
REMARK                         _______ _______ _______ _____ _____    ______ ____
ROOT
ATOM      1  N   UNL     1      -1.887  -1.194   0.848  0.00  0.00    -0.284 N 
ATOM      2  C   UNL     1      -3.185  -1.494   0.643  0.00  0.00    +0.201 C 
ATOM      3  O   UNL     1      -3.569  -2.639   0.758  0.00  0.00    -0.278 OA
ATOM      4  H   UNL     1      -1.594  -0.270   0.830  0.00  0.00    +0.155 HD
ENDROOT
BRANCH   1  17
ATOM      5  C   UNL     1       0.252  -1.923   1.712  0.00  0.00    +0.142 A 
ATOM      6  C   UNL     1       1.170  -2.929   1.945  0.00  0.00    +0.059 A 
ATOM      7  C   UNL     1       0.874  -4.235   1.569  0.00  0.00    +0.031 A 
ATOM      8  C   UNL     1       1.598  -5.517   1.667  0.00  0.00    +0.028 A 
ATOM      9  C   UNL     1       2.838  -5.890   2.176  0.00  0.00    +0.012 A 
ATOM     10  C   UNL     1       3.234  -7.210   2.115  0.00  0.00    +0.001 A 
ATOM     11  C   UNL     1       2.400  -8.160   1.548  0.00  0.00    +0.004 A 
ATOM     12  C   UNL     1       1.169  -7.801   1.040  0.00  0.00    +0.047 A 
ATOM     13  C   UNL     1       0.753  -6.476   1.093  0.00  0.00    +0.136 A 
ATOM     14  O   UNL     1      -0.377  -5.861   0.680  0.00  0.00    -0.455 OA
ATOM     15  C   UNL     1      -0.344  -4.535   0.943  0.00  0.00    +0.138 A 
ATOM     16  C   UNL     1      -1.257  -3.515   0.708  0.00  0.00    +0.074 A 
ATOM     17  C   UNL     1      -0.962  -2.217   1.089  0.00  0.00    +0.079 A 
BRANCH   5  19
ATOM     18  C   UNL     1       1.794  -0.416   2.716  0.00  0.00    +0.277 C 
ATOM     19  O   UNL     1       0.533  -0.645   2.083  0.00  0.00    -0.493 OA
ENDBRANCH   5  19
ENDBRANCH   1  17
BRANCH   2  20
ATOM     20  C   UNL     1      -4.160  -0.406   0.271  0.00  0.00    +0.020 C 
BRANCH  20  26
ATOM     21  C   UNL     1      -5.353  -1.974  -1.136  0.00  0.00    -0.077 C 
ATOM     22  C   UNL     1      -6.748  -2.466  -1.528  0.00  0.00    -0.019 C 
ATOM     23  C   UNL     1      -7.415  -3.117  -0.313  0.00  0.00    -0.003 C 
ATOM     24  C   UNL     1      -7.475  -2.101   0.831  0.00  0.00    -0.006 C 
ATOM     25  C   UNL     1      -6.059  -1.619   1.155  0.00  0.00    +0.020 C 
ATOM     26  N   UNL     1      -5.483  -0.981  -0.048  0.00  0.00    +0.393 N 
ATOM     27  H   UNL     1      -6.108  -0.228  -0.357  0.00  0.00    -0.080 HD
BRANCH  25  28
ATOM     28  C   UNL     1      -6.117  -0.605   2.267  0.00  0.00    +0.197 C 
ATOM     29  O   UNL     1      -6.197   0.577   2.006  0.00  0.00    -0.278 OA
ATOM     30  N   UNL     1      -6.079  -1.010   3.552  0.00  0.00    -0.331 N 
ATOM     31  H   UNL     1      -6.015  -1.955   3.760  0.00  0.00    +0.145 HD
ATOM     32  H   UNL     1      -6.116  -0.357   4.268  0.00  0.00    +0.145 HD
ENDBRANCH  25  28
ENDBRANCH  20  26
ENDBRANCH   2  20
TORSDOF 5
