REMARK  Name = ZINC19607701
REMARK  11 active torsions:
REMARK  status: ('A' for Active; 'I' for Inactive)
REMARK    1  A    between atoms: C_1  and  C_2
REMARK    2  A    between atoms: C_2  and  C_3
REMARK    3  A    between atoms: C_2  and  C_4
REMARK    4  A    between atoms: C_2  and  O_28
REMARK    5  A    between atoms: C_5  and  C_6
REMARK    6  A    between atoms: C_9  and  C_12
REMARK    7  A    between atoms: C_12  and  N_13
REMARK    8  A    between atoms: N_16  and  C_23
REMARK    9  A    between atoms: C_17  and  C_20
REMARK   10  A    between atoms: C_20  and  C_21
REMARK   11  A    between atoms: C_21  and  O_22
REMARK                            x       y       z     vdW  Elec       q    Type
REMARK                         _______ _______ _______ _____ _____    ______ ____
ROOT
ATOM      1  N   UNL     1      -0.578  -7.450  -1.862  0.00  0.00    -0.301 NA
ATOM      2  C   UNL     1       0.607  -6.848  -2.490  0.00  0.00    +0.066 C 
ATOM      3  C   UNL     1       0.835  -7.486  -3.862  0.00  0.00    -0.062 C 
ATOM      4  N   UNL     1       1.007  -8.937  -3.702  0.00  0.00    +0.385 N 
ATOM      5  C   UNL     1      -0.178  -9.539  -3.074  0.00  0.00    -0.052 C 
ATOM      6  C   UNL     1      -0.406  -8.900  -1.702  0.00  0.00    +0.069 C 
ATOM      7  H   UNL     1       1.866  -9.105  -3.036  0.00  0.00    -0.081 HD
ENDROOT
BRANCH   4   8
ATOM      8  C   UNL     1       1.303  -9.577  -4.990  0.00  0.00    -0.068 C 
ATOM      9  C   UNL     1       2.591  -8.980  -5.593  0.00  0.00    -0.015 C 
ATOM     10  C   UNL     1       2.308  -8.927  -7.116  0.00  0.00    -0.002 C 
ATOM     11  C   UNL     1       0.813  -8.527  -7.172  0.00  0.00    -0.002 C 
ATOM     12  C   UNL     1       0.173  -9.290  -5.994  0.00  0.00    -0.015 C 
ENDBRANCH   4   8
BRANCH   1  13
ATOM     13  C   UNL     1      -0.874  -6.809  -0.574  0.00  0.00    +0.119 C 
BRANCH  13  17
ATOM     14  C   UNL     1      -2.027  -2.745  -1.234  0.00  0.00    +0.025 A 
ATOM     15  C   UNL     1      -0.685  -3.069  -1.036  0.00  0.00    +0.017 A 
ATOM     16  C   UNL     1      -0.320  -4.382  -0.819  0.00  0.00    +0.006 A 
ATOM     17  C   UNL     1      -1.281  -5.377  -0.807  0.00  0.00    -0.033 A 
ATOM     18  C   UNL     1      -2.613  -5.063  -1.007  0.00  0.00    +0.006 A 
ATOM     19  C   UNL     1      -2.992  -3.753  -1.221  0.00  0.00    +0.017 A 
BRANCH  14  21
ATOM     20  C   UNL     1      -2.730  -0.268  -1.637  0.00  0.00    -0.063 C 
ATOM     21  C   UNL     1      -2.414  -1.384  -1.456  0.00  0.00    -0.063 C 
BRANCH  20  23
ATOM     22  C   UNL     1      -1.886   2.025  -1.830  0.00  0.00    +0.055 C 
ATOM     23  C   UNL     1      -3.127   1.131  -1.865  0.00  0.00    +0.121 C 
ATOM     24  C   UNL     1      -3.805   1.253  -3.231  0.00  0.00    +0.055 C 
BRANCH  23  25
ATOM     25  O   UNL     1      -4.038   1.540  -0.843  0.00  0.00    -0.377 OA
ATOM     26  H   UNL     1      -4.994   1.010  -0.713  0.00  0.00    +0.211 HD
ENDBRANCH  23  25
ENDBRANCH  20  23
ENDBRANCH  14  21
ENDBRANCH  13  17
ENDBRANCH   1  13
BRANCH   5  27
ATOM     27  C   UNL     1       0.042 -11.044  -2.907  0.00  0.00    +0.014 C 
BRANCH  27  28
ATOM     28  C   UNL     1      -1.220 -11.682  -2.323  0.00  0.00    +0.154 C 
BRANCH  28  29
ATOM     29  O   UNL     1      -1.053 -13.100  -2.264  0.00  0.00    -0.395 OA
ATOM     30  H   UNL     1      -1.861 -13.733  -1.870  0.00  0.00    +0.209 HD
ENDBRANCH  28  29
ENDBRANCH  27  28
ENDBRANCH   5  27
TORSDOF 9
