REMARK  Name = ZINC37580962
REMARK  7 active torsions:
REMARK  status: ('A' for Active; 'I' for Inactive)
REMARK    1  A    between atoms: C_1  and  O_2
REMARK    2  A    between atoms: O_2  and  C_3
REMARK    3  A    between atoms: C_6  and  S_13
REMARK    4  A    between atoms: C_8  and  C_9
REMARK    5  A    between atoms: C_10  and  C_11
REMARK    6  A    between atoms: C_11  and  N_12
REMARK    7  A    between atoms: S_13  and  N_16
REMARK                            x       y       z     vdW  Elec       q    Type
REMARK                         _______ _______ _______ _____ _____    ______ ____
ROOT
ATOM      1  C   UNL     1       0.625  -0.618   1.041  0.00  0.00    +0.136 A 
ATOM      2  C   UNL     1       1.202   0.136   2.050  0.00  0.00    +0.049 A 
ATOM      3  C   UNL     1       1.836  -0.489   3.107  0.00  0.00    +0.032 A 
ATOM      4  C   UNL     1       1.900  -1.871   3.165  0.00  0.00    +0.107 A 
ATOM      5  C   UNL     1       1.331  -2.636   2.168  0.00  0.00    +0.049 A 
ATOM      6  C   UNL     1       0.683  -2.016   1.099  0.00  0.00    +0.068 A 
ENDROOT
BRANCH   4   7
ATOM      7  S   UNL     1       2.712  -2.655   4.517  0.00  0.00    +0.061 S 
ATOM      8  O   UNL     1       3.111  -3.941   4.061  0.00  0.00    -0.153 OA
ATOM      9  O   UNL     1       3.638  -1.711   5.038  0.00  0.00    -0.153 OA
BRANCH   7  10
ATOM     10  N   UNL     1       1.575  -2.903   5.695  0.00  0.00    -0.177 NA
ATOM     11  C   UNL     1       1.324  -1.881   6.720  0.00  0.00    +0.109 C 
ATOM     12  C   UNL     1      -0.174  -1.557   6.736  0.00  0.00    +0.017 C 
ATOM     13  C   UNL     1      -0.969  -2.850   6.930  0.00  0.00    +0.003 C 
ATOM     14  C   UNL     1      -0.694  -3.800   5.763  0.00  0.00    +0.017 C 
ATOM     15  C   UNL     1       0.793  -4.147   5.731  0.00  0.00    +0.109 C 
ENDBRANCH   7  10
ENDBRANCH   4   7
BRANCH   1  17
ATOM     16  C   UNL     1      -0.017   1.425   0.010  0.00  0.00    +0.277 C 
ATOM     17  O   UNL     1       0.002  -0.004   0.002  0.00  0.00    -0.494 OA
ENDBRANCH   1  17
BRANCH   6  18
ATOM     18  C   UNL     1       0.086  -2.804   0.064  0.00  0.00    -0.065 C 
ATOM     19  C   UNL     1      -0.404  -3.451  -0.785  0.00  0.00    -0.116 C 
BRANCH  19  20
ATOM     20  C   UNL     1      -1.019  -4.262  -1.849  0.00  0.00    +0.005 C 
BRANCH  20  21
ATOM     21  N   UNL     1      -0.821  -5.687  -1.554  0.00  0.00    +0.385 N 
ATOM     22  H   UNL     1      -1.252  -5.911  -0.669  0.00  0.00    -0.089 HD
ATOM     23  H   UNL     1      -1.242  -6.243  -2.283  0.00  0.00    -0.089 HD
ATOM     24  H   UNL     1       0.167  -5.887  -1.507  0.00  0.00    -0.089 HD
ENDBRANCH  20  21
ENDBRANCH  19  20
ENDBRANCH   6  18
TORSDOF 6
