REMARK  Name = ZINC20618153
REMARK  5 active torsions:
REMARK  status: ('A' for Active; 'I' for Inactive)
REMARK    1  A    between atoms: C_3  and  C_31
REMARK    2  A    between atoms: C_5  and  N_7
REMARK    3  A    between atoms: C_8  and  C_10
REMARK    4  A    between atoms: C_10  and  N_11
REMARK    5  A    between atoms: N_11  and  C_12
REMARK                            x       y       z     vdW  Elec       q    Type
REMARK                         _______ _______ _______ _____ _____    ______ ____
ROOT
ATOM      1  N   UNL     1       2.430   7.940   0.328  0.00  0.00    -0.273 N 
ATOM      2  C   UNL     1       2.986   8.117   1.576  0.00  0.00    +0.136 C 
ATOM      3  N   UNL     1       2.401   7.931   2.756  0.00  0.00    -0.362 N 
ATOM      4  C   UNL     1       3.225   8.061   3.912  0.00  0.00    +0.117 C 
ATOM      5  C   UNL     1       2.728   8.181   5.339  0.00  0.00    +0.191 C 
ATOM      6  S   UNL     1       4.305   8.645   6.195  0.00  0.00    -0.028 S 
ATOM      7  O   UNL     1       4.775   7.528   6.938  0.00  0.00    -0.174 OA
ATOM      8  O   UNL     1       4.129   9.896   6.845  0.00  0.00    -0.174 OA
ATOM      9  C   UNL     1       5.388   8.882   4.707  0.00  0.00    +0.182 C 
ATOM     10  C   UNL     1       4.297   9.185   3.673  0.00  0.00    +0.099 C 
ATOM     11  S   UNL     1       4.659   8.658   1.962  0.00  0.00    -0.085 S 
ATOM     12  H   UNL     1       1.329   7.690   2.807  0.00  0.00    +0.162 HD
ENDROOT
BRANCH   1  13
ATOM     13  C   UNL     1       3.163   8.268  -0.817  0.00  0.00    +0.037 A 
ATOM     14  C   UNL     1       4.290   7.531  -1.157  0.00  0.00    +0.023 A 
ATOM     15  C   UNL     1       5.012   7.857  -2.288  0.00  0.00    +0.003 A 
ATOM     16  C   UNL     1       4.614   8.916  -3.083  0.00  0.00    +0.020 A 
ATOM     17  C   UNL     1       3.492   9.653  -2.748  0.00  0.00    +0.043 A 
ATOM     18  C   UNL     1       2.762   9.328  -1.620  0.00  0.00    +0.043 A 
ATOM     19 CL   UNL     1       2.996  10.982  -3.749  0.00  0.00    -0.083 Cl
ENDBRANCH   1  13
BRANCH   1  20
ATOM     20  C   UNL     1       1.071   7.408   0.200  0.00  0.00    +0.208 C 
BRANCH  20  22
ATOM     21  N   UNL     1      -0.012   5.194  -0.011  0.00  0.00    -0.284 N 
ATOM     22  C   UNL     1       1.127   5.905   0.112  0.00  0.00    +0.235 C 
ATOM     23  O   UNL     1       2.196   5.334   0.151  0.00  0.00    -0.274 OA
ATOM     24  H   UNL     1      -0.974   5.714  -0.132  0.00  0.00    +0.155 HD
BRANCH  21  29
ATOM     25  C   UNL     1       1.012   1.762   0.818  0.00  0.00    +0.002 A 
ATOM     26  C   UNL     1       0.112   1.031   0.064  0.00  0.00    +0.012 A 
ATOM     27  C   UNL     1      -0.826   1.679  -0.719  0.00  0.00    +0.057 A 
ATOM     28  C   UNL     1      -0.873   3.059  -0.742  0.00  0.00    +0.035 A 
ATOM     29  C   UNL     1       0.029   3.796   0.014  0.00  0.00    +0.034 A 
ATOM     30  C   UNL     1       0.973   3.142   0.795  0.00  0.00    +0.023 A 
BRANCH  27  31
ATOM     31  C   UNL     1      -1.801   0.879  -1.544  0.00  0.00    +0.417 C 
ATOM     32  F   UNL     1      -1.562  -0.487  -1.353  0.00  0.00    -0.166 F 
ATOM     33  F   UNL     1      -3.107   1.183  -1.147  0.00  0.00    -0.166 F 
ATOM     34  F   UNL     1      -1.638   1.196  -2.896  0.00  0.00    -0.166 F 
ENDBRANCH  27  31
ENDBRANCH  21  29
ENDBRANCH  20  22
ENDBRANCH   1  20
TORSDOF 5
