REMARK  Name = ZINC47770032
REMARK  8 active torsions:
REMARK  status: ('A' for Active; 'I' for Inactive)
REMARK    1  A    between atoms: C_1  and  C_2
REMARK    2  A    between atoms: C_4  and  C_26
REMARK    3  A    between atoms: N_6  and  C_8
REMARK    4  A    between atoms: C_8  and  C_9
REMARK    5  A    between atoms: C_9  and  N_10
REMARK    6  A    between atoms: N_13  and  C_14
REMARK    7  A    between atoms: C_14  and  C_15
REMARK    8  A    between atoms: N_17  and  C_18
REMARK                            x       y       z     vdW  Elec       q    Type
REMARK                         _______ _______ _______ _____ _____    ______ ____
ROOT
ATOM      1  N   UNL     1       1.200  -2.546   4.899  0.00  0.00    -0.301 N 
ATOM      2  C   UNL     1       0.628  -2.310   6.097  0.00  0.00    +0.300 C 
ATOM      3  O   UNL     1      -0.417  -1.692   6.160  0.00  0.00    -0.253 OA
ATOM      4  N   UNL     1       1.214  -2.759   7.224  0.00  0.00    -0.291 N 
ATOM      5  H   UNL     1       2.034  -3.039   4.849  0.00  0.00    +0.150 HD
ATOM      6  H   UNL     1       2.048  -3.252   7.174  0.00  0.00    +0.151 HD
ENDROOT
BRANCH   1   7
ATOM      7  C   UNL     1       0.563  -2.058   3.674  0.00  0.00    +0.087 C 
BRANCH   7   8
ATOM      8  C   UNL     1       1.410  -2.457   2.465  0.00  0.00    -0.060 C 
BRANCH   8  14
ATOM      9  C   UNL     1       0.013   1.545   0.015  0.00  0.00    +0.005 C 
ATOM     10  C   UNL     1       0.022   0.015   0.005  0.00  0.00    -0.031 C 
ATOM     11  C   UNL     1       0.740  -0.484  -1.252  0.00  0.00    +0.003 C 
ATOM     12  C   UNL     1       0.813  -2.013  -1.214  0.00  0.00    -0.031 C 
ATOM     13  C   UNL     1       1.520  -2.452   0.070  0.00  0.00    -0.076 C 
ATOM     14  N   UNL     1       0.771  -1.967   1.236  0.00  0.00    +0.381 N 
ATOM     15  C   UNL     1       0.759  -0.499   1.244  0.00  0.00    -0.076 C 
ATOM     16  C   UNL     1       1.597  -2.518  -2.427  0.00  0.00    +0.005 C 
ATOM     17  H   UNL     1      -0.176  -2.311   1.192  0.00  0.00    -0.082 HD
ENDBRANCH   8  14
ENDBRANCH   7   8
ENDBRANCH   1   7
BRANCH   4  18
ATOM     18  C   UNL     1       0.592  -2.503   8.525  0.00  0.00    +0.202 C 
BRANCH  18  19
ATOM     19  C   UNL     1       1.440  -3.105   9.615  0.00  0.00    +0.234 C 
ATOM     20  O   UNL     1       2.464  -3.691   9.333  0.00  0.00    -0.274 OA
ATOM     21  N   UNL     1       1.062  -2.993  10.904  0.00  0.00    -0.284 N 
ATOM     22  H   UNL     1       0.280  -2.467  11.136  0.00  0.00    +0.155 HD
BRANCH  21  23
ATOM     23  C   UNL     1       1.797  -3.634  11.908  0.00  0.00    +0.036 A 
ATOM     24  C   UNL     1       1.147  -4.164  13.015  0.00  0.00    +0.026 A 
ATOM     25  C   UNL     1       1.873  -4.797  14.005  0.00  0.00    +0.043 A 
ATOM     26  C   UNL     1       3.249  -4.904  13.896  0.00  0.00    +0.159 A 
ATOM     27  C   UNL     1       3.901  -4.375  12.792  0.00  0.00    +0.160 A 
ATOM     28  C   UNL     1       3.176  -3.746  11.796  0.00  0.00    +0.064 A 
ATOM     29  F   UNL     1       5.244  -4.480  12.686  0.00  0.00    -0.202 F 
ATOM     30  F   UNL     1       3.957  -5.522  14.866  0.00  0.00    -0.202 F 
ENDBRANCH  21  23
ENDBRANCH  18  19
ENDBRANCH   4  18
TORSDOF 6
