REMARK  Name = ZINC50563206
REMARK  6 active torsions:
REMARK  status: ('A' for Active; 'I' for Inactive)
REMARK    1  A    between atoms: C_1  and  C_2
REMARK    2  A    between atoms: N_7  and  C_11
REMARK    3  A    between atoms: C_8  and  C_10
REMARK    4  A    between atoms: C_11  and  C_12
REMARK    5  A    between atoms: N_14  and  C_15
REMARK    6  A    between atoms: C_18  and  N_22
REMARK                            x       y       z     vdW  Elec       q    Type
REMARK                         _______ _______ _______ _____ _____    ______ ____
ROOT
ATOM      1  C   UNL     1       1.671  -3.960   2.312  0.00  0.00    +0.201 C 
ATOM      2  O   UNL     1       1.165  -4.569   1.392  0.00  0.00    -0.278 OA
ATOM      3  N   UNL     1       2.342  -4.626   3.272  0.00  0.00    -0.286 N 
ATOM      4  H   UNL     1       2.801  -4.136   3.972  0.00  0.00    +0.155 HD
ENDROOT
BRANCH   3   5
ATOM      5  C   UNL     1       2.377  -6.027   3.260  0.00  0.00    +0.048 A 
ATOM      6  C   UNL     1       2.406  -6.711   2.052  0.00  0.00    +0.026 A 
ATOM      7  C   UNL     1       2.441  -8.091   2.039  0.00  0.00    +0.024 A 
ATOM      8  C   UNL     1       2.445  -8.796   3.236  0.00  0.00    +0.026 A 
ATOM      9  C   UNL     1       2.416  -8.113   4.445  0.00  0.00    +0.039 A 
ATOM     10  C   UNL     1       2.387  -6.732   4.457  0.00  0.00    +0.041 A 
ATOM     11 BR   UNL     1       2.355  -5.801   6.103  0.00  0.00    -0.048 Br
BRANCH   8  12
ATOM     12  N   UNL     1       2.480 -10.195   3.223  0.00  0.00    -0.358 N 
ATOM     13  H   UNL     1       2.500 -10.672   2.379  0.00  0.00    +0.142 HD
ATOM     14  H   UNL     1       2.483 -10.687   4.059  0.00  0.00    +0.142 HD
ENDBRANCH   8  12
ENDBRANCH   3   5
BRANCH   1  15
ATOM     15  C   UNL     1       1.548  -2.460   2.380  0.00  0.00    +0.019 C 
BRANCH  15  21
ATOM     16  C   UNL     1       0.022   1.526  -0.017  0.00  0.00    +0.006 C 
ATOM     17  C   UNL     1       0.033  -0.003  -0.019  0.00  0.00    -0.028 C 
ATOM     18  C   UNL     1      -1.407  -0.525  -0.005  0.00  0.00    -0.000 C 
ATOM     19  C   UNL     1      -1.384  -2.055   0.072  0.00  0.00    -0.018 C 
ATOM     20  C   UNL     1      -0.598  -2.486   1.313  0.00  0.00    -0.078 C 
ATOM     21  N   UNL     1       0.776  -1.978   1.226  0.00  0.00    +0.387 N 
ATOM     22  C   UNL     1       0.767  -0.511   1.224  0.00  0.00    -0.068 C 
ATOM     23  C   UNL     1       0.053  -0.004   2.479  0.00  0.00    -0.013 C 
ATOM     24  H   UNL     1       1.204  -2.312   0.376  0.00  0.00    -0.081 HD
ENDBRANCH  15  21
ENDBRANCH   1  15
TORSDOF 4
