REMARK  Name = ZINC33797476
REMARK  10 active torsions:
REMARK  status: ('A' for Active; 'I' for Inactive)
REMARK    1  A    between atoms: C_1  and  C_2
REMARK    2  A    between atoms: C_2  and  O_3
REMARK    3  A    between atoms: O_3  and  C_4
REMARK    4  A    between atoms: C_4  and  C_6
REMARK    5  A    between atoms: C_10  and  N_11
REMARK    6  A    between atoms: C_12  and  C_14
REMARK    7  A    between atoms: C_22  and  C_28
REMARK    8  A    between atoms: C_22  and  C_29
REMARK    9  A    between atoms: C_24  and  C_26
REMARK   10  A    between atoms: C_24  and  C_27
REMARK                            x       y       z     vdW  Elec       q    Type
REMARK                         _______ _______ _______ _____ _____    ______ ____
ROOT
ATOM      1  C   UNL     1       0.002  -0.004   0.002  0.00  0.00    +0.091 A 
ATOM      2  C   UNL     1       1.298  -0.652  -0.013  0.00  0.00    -0.024 A 
ATOM      3  C   UNL     1       2.364   0.180  -0.023  0.00  0.00    -0.016 A 
ATOM      4  S   UNL     1       1.665   1.805  -0.004  0.00  0.00    -0.079 S 
ATOM      5  C   UNL     1      -0.017   1.387   0.010  0.00  0.00    +0.086 A 
ATOM      6  C   UNL     1       3.805  -0.214  -0.052  0.00  0.00    -0.041 C 
ATOM      7  N   UNL     1       3.958  -1.664  -0.111  0.00  0.00    +0.389 N 
ATOM      8  C   UNL     1       2.872  -2.437  -0.691  0.00  0.00    -0.069 C 
ATOM      9  C   UNL     1       1.533  -2.156  -0.002  0.00  0.00    +0.024 C 
ATOM     10  C   UNL     1       2.734  -2.169  -2.191  0.00  0.00    -0.010 C 
ATOM     11  C   UNL     1       3.189  -3.935  -0.509  0.00  0.00    -0.010 C 
ATOM     12  C   UNL     1       4.502   0.460  -1.240  0.00  0.00    -0.005 C 
ATOM     13  C   UNL     1       4.469   0.302   1.241  0.00  0.00    -0.005 C 
ATOM     14  H   UNL     1       4.844  -1.915  -0.713  0.00  0.00    -0.084 HD
ATOM     15  H   UNL     1       4.083  -2.061   0.907  0.00  0.00    -0.084 HD
ENDROOT
BRANCH   5  16
ATOM     16  N   UNL     1      -1.114   2.231   0.030  0.00  0.00    -0.275 N 
ATOM     17  C   UNL     1      -0.937   3.567   0.034  0.00  0.00    +0.249 C 
ATOM     18  O   UNL     1       0.186   4.031   0.021  0.00  0.00    -0.270 OA
ATOM     19  H   UNL     1      -2.131   1.811   0.042  0.00  0.00    +0.156 HD
BRANCH  17  20
ATOM     20  C   UNL     1      -2.109   4.468   0.056  0.00  0.00    +0.040 A 
ATOM     21  C   UNL     1      -3.400   3.938   0.065  0.00  0.00    +0.033 A 
ATOM     22  C   UNL     1      -4.490   4.785   0.090  0.00  0.00    +0.043 A 
ATOM     23  C   UNL     1      -4.305   6.157   0.095  0.00  0.00    +0.040 A 
ATOM     24  C   UNL     1      -3.027   6.688   0.080  0.00  0.00    +0.043 A 
ATOM     25  C   UNL     1      -1.929   5.852   0.060  0.00  0.00    +0.033 A 
ATOM     26 CL   UNL     1      -2.805   8.410   0.086  0.00  0.00    -0.083 Cl
ATOM     27 CL   UNL     1      -6.097   4.128   0.108  0.00  0.00    -0.083 Cl
ENDBRANCH  17  20
ENDBRANCH   5  16
BRANCH   1  28
ATOM     28  C   UNL     1      -1.244  -0.773   0.011  0.00  0.00    +0.342 C 
ATOM     29  O   UNL     1      -1.773  -1.087  -1.038  0.00  0.00    -0.245 OA
BRANCH  28  30
ATOM     30  O   UNL     1      -1.806  -1.133   1.183  0.00  0.00    -0.461 OA
BRANCH  30  32
ATOM     31  C   UNL     1      -3.524  -2.208   2.534  0.00  0.00    +0.048 C 
ATOM     32  C   UNL     1      -3.041  -1.894   1.117  0.00  0.00    +0.229 C 
ENDBRANCH  30  32
ENDBRANCH  28  30
ENDBRANCH   1  28
TORSDOF 5
