REMARK  Name = ZINC54529610
REMARK  8 active torsions:
REMARK  status: ('A' for Active; 'I' for Inactive)
REMARK    1  A    between atoms: C_1  and  C_2
REMARK    2  A    between atoms: C_3  and  C_22
REMARK    3  A    between atoms: C_7  and  C_8
REMARK    4  A    between atoms: N_11  and  C_12
REMARK    5  A    between atoms: C_12  and  C_14
REMARK    6  A    between atoms: C_12  and  C_15
REMARK    7  A    between atoms: C_16  and  C_21
REMARK    8  A    between atoms: C_18  and  C_20
REMARK                            x       y       z     vdW  Elec       q    Type
REMARK                         _______ _______ _______ _____ _____    ______ ____
ROOT
ATOM      1  C   UNL     1      -0.252   1.490   0.017  0.00  0.00    +0.046 C 
ATOM      2  C   UNL     1      -0.109  -0.010   0.005  0.00  0.00    -0.013 A 
ATOM      3  C   UNL     1      -0.127  -0.720  -1.184  0.00  0.00    +0.035 A 
ATOM      4  N   UNL     1      -0.001  -2.033  -1.175  0.00  0.00    -0.280 N 
ATOM      5  N   UNL     1       0.142  -2.708  -0.093  0.00  0.00    -0.158 NA
ATOM      6  C   UNL     1       0.173  -2.131   1.101  0.00  0.00    +0.154 A 
ATOM      7  C   UNL     1       0.052  -0.730   1.197  0.00  0.00    +0.109 A 
ATOM      8  N   UNL     1       0.329  -2.896   2.241  0.00  0.00    -0.320 N 
ATOM      9  C   UNL     1      -0.292   0.009  -2.492  0.00  0.00    +0.065 C 
ATOM     10  H   UNL     1       0.331  -2.472   3.114  0.00  0.00    +0.148 HD
ATOM     11  H   UNL     1      -0.017  -2.507  -2.020  0.00  0.00    +0.189 HD
ENDROOT
BRANCH   7  12
ATOM     12  C   UNL     1       0.087  -0.048   2.503  0.00  0.00    +0.390 C 
ATOM     13  O   UNL     1      -0.941   0.085   3.152  0.00  0.00    -0.240 OA
ATOM     14  O   UNL     1       1.145   0.386   2.938  0.00  0.00    -0.240 OA
ENDBRANCH   7  12
BRANCH   8  15
ATOM     15  C   UNL     1       0.491  -4.348   2.132  0.00  0.00    +0.107 C 
ATOM     16  C   UNL     1       1.965  -4.679   1.886  0.00  0.00    +0.033 C 
BRANCH  15  17
ATOM     17  C   UNL     1       0.037  -5.001   3.412  0.00  0.00    +0.032 A 
ATOM     18  C   UNL     1      -0.739  -6.100   3.596  0.00  0.00    +0.051 A 
ATOM     19  N   UNL     1      -0.984  -6.457   4.841  0.00  0.00    -0.249 NA
ATOM     20  C   UNL     1      -0.499  -5.780   5.851  0.00  0.00    +0.076 A 
ATOM     21  S   UNL     1       0.376  -4.550   5.106  0.00  0.00    -0.075 S 
ATOM     22  C   UNL     1      -0.676  -6.042   7.325  0.00  0.00    +0.073 C 
ATOM     23  C   UNL     1      -1.296  -6.876   2.430  0.00  0.00    +0.066 C 
ENDBRANCH  15  17
ENDBRANCH   8  15
TORSDOF 3
