REMARK  Name = ZINC39916042
REMARK  12 active torsions:
REMARK  status: ('A' for Active; 'I' for Inactive)
REMARK    1  A    between atoms: C_10  and  O_11
REMARK    2  A    between atoms: O_11  and  C_12
REMARK    3  A    between atoms: C_12  and  C_13
REMARK    4  A    between atoms: C_13  and  C_14
REMARK    5  A    between atoms: C_14  and  N_15
REMARK    6  A    between atoms: C_23  and  S_24
REMARK    7  A    between atoms: S_24  and  C_25
REMARK    8  A    between atoms: C_27  and  O_40
REMARK    9  A    between atoms: C_29  and  O_39
REMARK   10  A    between atoms: C_31  and  O_38
REMARK   11  A    between atoms: C_33  and  C_36
REMARK   12  A    between atoms: C_36  and  O_37
REMARK                            x       y       z     vdW  Elec       q    Type
REMARK                         _______ _______ _______ _____ _____    ______ ____
ROOT
ATOM      1  N   UNL     1       9.690   0.367  -0.088  0.00  0.00    -0.318 N 
ATOM      2  C   UNL     1      10.319   0.887  -1.207  0.00  0.00    +0.069 A 
ATOM      3  C   UNL     1      10.119   0.753  -2.572  0.00  0.00    +0.028 A 
ATOM      4  C   UNL     1      10.941   1.422  -3.457  0.00  0.00    +0.002 A 
ATOM      5  C   UNL     1      11.968   2.227  -2.989  0.00  0.00    +0.002 A 
ATOM      6  C   UNL     1      12.183   2.371  -1.636  0.00  0.00    +0.030 A 
ATOM      7  C   UNL     1      11.358   1.702  -0.728  0.00  0.00    +0.090 A 
ATOM      8  N   UNL     1      11.318   1.645   0.629  0.00  0.00    -0.222 NA
ATOM      9  C   UNL     1      10.335   0.866   1.008  0.00  0.00    +0.172 A 
ENDROOT
BRANCH   1  10
ATOM     10  C   UNL     1       8.542  -0.543  -0.082  0.00  0.00    +0.127 C 
BRANCH  10  11
ATOM     11  C   UNL     1       7.246   0.271  -0.066  0.00  0.00    +0.063 C 
BRANCH  11  12
ATOM     12  C   UNL     1       6.047  -0.680  -0.059  0.00  0.00    +0.231 C 
BRANCH  12  13
ATOM     13  O   UNL     1       4.837   0.080  -0.043  0.00  0.00    -0.491 OA
BRANCH  13  23
ATOM     14  C   UNL     1      -0.016   1.357   0.009  0.00  0.00    +0.001 A 
ATOM     15  C   UNL     1       1.169   2.090   0.002  0.00  0.00    +0.001 A 
ATOM     16  C   UNL     1       2.379   1.467  -0.013  0.00  0.00    +0.012 A 
ATOM     17  C   UNL     1       2.437   0.064  -0.021  0.00  0.00    +0.024 A 
ATOM     18  C   UNL     1       1.233  -0.683  -0.013  0.00  0.00    -0.014 A 
ATOM     19  C   UNL     1       0.002  -0.004   0.002  0.00  0.00    +0.008 A 
ATOM     20  C   UNL     1       1.292  -2.087  -0.021  0.00  0.00    +0.009 A 
ATOM     21  C   UNL     1       2.501  -2.713  -0.035  0.00  0.00    +0.004 A 
ATOM     22  C   UNL     1       3.687  -1.984  -0.043  0.00  0.00    +0.046 A 
ATOM     23  C   UNL     1       3.671  -0.617  -0.036  0.00  0.00    +0.128 A 
ENDBRANCH  13  23
ENDBRANCH  12  13
ENDBRANCH  11  12
ENDBRANCH  10  11
ENDBRANCH   1  10
BRANCH   9  24
ATOM     24  S   UNL     1       9.911   0.511   2.681  0.00  0.00    -0.054 S 
BRANCH  24  25
ATOM     25  C   UNL     1      11.119   1.456   3.650  0.00  0.00    +0.214 C 
ATOM     26  C   UNL     1      11.026   1.046   5.122  0.00  0.00    +0.185 C 
ATOM     27  C   UNL     1      12.005   1.892   5.942  0.00  0.00    +0.177 C 
ATOM     28  C   UNL     1      11.685   3.374   5.730  0.00  0.00    +0.176 C 
ATOM     29  C   UNL     1      11.752   3.695   4.234  0.00  0.00    +0.176 C 
ATOM     30  O   UNL     1      10.840   2.853   3.527  0.00  0.00    -0.355 OA
BRANCH  28  31
ATOM     31  O   UNL     1      10.372   3.654   6.221  0.00  0.00    -0.386 OA
ATOM     32  H   UNL     1      10.257   3.469   7.163  0.00  0.00    +0.210 HD
ENDBRANCH  28  31
BRANCH  27  33
ATOM     33  O   UNL     1      11.874   1.566   7.327  0.00  0.00    -0.386 OA
ATOM     34  H   UNL     1      12.058   0.639   7.532  0.00  0.00    +0.210 HD
ENDBRANCH  27  33
BRANCH  26  35
ATOM     35  O   UNL     1      11.360  -0.337   5.254  0.00  0.00    -0.386 OA
ATOM     36  H   UNL     1      10.781  -0.930   4.756  0.00  0.00    +0.210 HD
ENDBRANCH  26  35
BRANCH  29  37
ATOM     37  C   UNL     1      11.374   5.160   4.009  0.00  0.00    +0.190 C 
BRANCH  37  38
ATOM     38  O   UNL     1      11.550   5.490   2.629  0.00  0.00    -0.392 OA
ATOM     39  H   UNL     1      11.328   6.406   2.413  0.00  0.00    +0.210 HD
ENDBRANCH  37  38
ENDBRANCH  29  37
ENDBRANCH  24  25
ENDBRANCH   9  24
TORSDOF 12
