REMARK  Name = ZINC65099745
REMARK  11 active torsions:
REMARK  status: ('A' for Active; 'I' for Inactive)
REMARK    1  A    between atoms: C_1  and  C_2
REMARK    2  A    between atoms: C_2  and  N_3
REMARK    3  A    between atoms: C_4  and  C_24
REMARK    4  A    between atoms: C_7  and  S_8
REMARK    5  A    between atoms: S_8  and  C_9
REMARK    6  A    between atoms: C_9  and  C_10
REMARK    7  A    between atoms: N_12  and  C_13
REMARK    8  A    between atoms: C_13  and  C_14
REMARK    9  A    between atoms: C_14  and  C_15
REMARK   10  A    between atoms: C_27  and  C_30
REMARK   11  A    between atoms: C_34  and  C_36
REMARK                            x       y       z     vdW  Elec       q    Type
REMARK                         _______ _______ _______ _____ _____    ______ ____
ROOT
ATOM      1  N   UNL     1       0.688  -0.476  -1.203  0.00  0.00    -0.303 N 
ATOM      2  C   UNL     1       0.126  -0.748  -2.420  0.00  0.00    +0.186 A 
ATOM      3  N   UNL     1       1.084  -1.140  -3.211  0.00  0.00    -0.129 NA
ATOM      4  N   UNL     1       2.205  -1.136  -2.582  0.00  0.00    -0.122 NA
ATOM      5  C   UNL     1       2.021  -0.732  -1.347  0.00  0.00    +0.192 A 
ENDROOT
BRANCH   2   6
ATOM      6  C   UNL     1      -1.332  -0.617  -2.780  0.00  0.00    +0.312 C 
ATOM      7  N   UNL     1      -1.696  -1.614  -3.794  0.00  0.00    -0.336 N 
ATOM      8  C   UNL     1      -2.613  -2.389  -3.304  0.00  0.00    +0.134 C 
ATOM      9  N   UNL     1      -2.939  -2.031  -2.019  0.00  0.00    -0.247 N 
ATOM     10  O   UNL     1      -2.153  -0.910  -1.640  0.00  0.00    -0.240 OA
ATOM     11  H   UNL     1      -3.599  -2.471  -1.461  0.00  0.00    +0.196 HD
ATOM     12  H   UNL     1      -1.314  -1.681  -4.683  0.00  0.00    +0.164 HD
BRANCH   8  13
ATOM     13  C   UNL     1      -3.231  -3.517  -4.037  0.00  0.00    +0.017 A 
ATOM     14  C   UNL     1      -2.498  -4.212  -4.999  0.00  0.00    +0.011 A 
ATOM     15  C   UNL     1      -3.079  -5.263  -5.679  0.00  0.00    +0.001 A 
ATOM     16  C   UNL     1      -4.386  -5.628  -5.408  0.00  0.00    +0.003 A 
ATOM     17  C   UNL     1      -5.118  -4.942  -4.456  0.00  0.00    -0.050 A 
ATOM     18  C   UNL     1      -4.546  -3.893  -3.765  0.00  0.00    +0.015 A 
ATOM     19  C   UNL     1      -6.541  -5.345  -4.168  0.00  0.00    +0.044 C 
ENDBRANCH   8  13
ENDBRANCH   2   6
BRANCH   1  21
ATOM     20  C   UNL     1      -0.019   1.526   0.010  0.00  0.00    +0.027 C 
ATOM     21  C   UNL     1       0.002  -0.004   0.002  0.00  0.00    +0.122 C 
ENDBRANCH   1  21
BRANCH   5  22
ATOM     22  S   UNL     1       3.261  -0.556  -0.107  0.00  0.00    -0.077 S 
BRANCH  22  23
ATOM     23  C   UNL     1       4.792  -1.052  -0.943  0.00  0.00    +0.173 C 
BRANCH  23  24
ATOM     24  C   UNL     1       5.947  -0.946   0.019  0.00  0.00    +0.223 C 
ATOM     25  O   UNL     1       5.756  -0.573   1.157  0.00  0.00    -0.275 OA
ATOM     26  N   UNL     1       7.192  -1.266  -0.386  0.00  0.00    -0.314 N 
ATOM     27  H   UNL     1       7.345  -1.565  -1.296  0.00  0.00    +0.149 HD
BRANCH  26  28
ATOM     28  C   UNL     1       8.315  -1.163   0.550  0.00  0.00    +0.108 C 
BRANCH  28  29
ATOM     29  C   UNL     1       9.607  -1.582  -0.156  0.00  0.00    +0.065 C 
BRANCH  29  30
ATOM     30  C   UNL     1      10.780  -1.474   0.821  0.00  0.00    +0.175 C 
ATOM     31  N   UNL     1      10.961  -0.079   1.239  0.00  0.00    -0.363 N 
ATOM     32  C   UNL     1      12.154   0.288   0.869  0.00  0.00    +0.060 A 
ATOM     33  C   UNL     1      12.898   1.548   1.003  0.00  0.00    +0.027 A 
ATOM     34  C   UNL     1      14.149   1.637   0.509  0.00  0.00    +0.002 A 
ATOM     35  C   UNL     1      14.787   0.564  -0.139  0.00  0.00    +0.002 A 
ATOM     36  C   UNL     1      14.194  -0.634  -0.315  0.00  0.00    +0.027 A 
ATOM     37  C   UNL     1      12.829  -0.848   0.183  0.00  0.00    +0.060 A 
ATOM     38  N   UNL     1      12.027  -1.873   0.157  0.00  0.00    -0.363 N 
ATOM     39  H   UNL     1      12.218  -2.741  -0.231  0.00  0.00    +0.162 HD
ATOM     40  H   UNL     1      10.311   0.470   1.706  0.00  0.00    +0.162 HD
ENDBRANCH  29  30
ENDBRANCH  28  29
ENDBRANCH  26  28
ENDBRANCH  23  24
ENDBRANCH  22  23
ENDBRANCH   5  22
TORSDOF 9
