REMARK  Name = ZINC14994677
REMARK  8 active torsions:
REMARK  status: ('A' for Active; 'I' for Inactive)
REMARK    1  A    between atoms: C_1  and  C_2
REMARK    2  A    between atoms: C_6  and  N_8
REMARK    3  A    between atoms: C_12  and  C_13
REMARK    4  A    between atoms: C_13  and  N_14
REMARK    5  A    between atoms: C_26  and  N_32
REMARK    6  A    between atoms: C_28  and  O_30
REMARK    7  A    between atoms: O_30  and  C_31
REMARK    8  A    between atoms: C_33  and  C_35
REMARK                            x       y       z     vdW  Elec       q    Type
REMARK                         _______ _______ _______ _____ _____    ______ ____
ROOT
ATOM      1  N   UNL     1       1.360   2.011  -0.000  0.00  0.00    -0.295 NA
ATOM      2  C   UNL     1       2.175   1.300  -0.993  0.00  0.00    +0.086 C 
ATOM      3  C   UNL     1       3.635   1.745  -0.867  0.00  0.00    +0.029 C 
ATOM      4  C   UNL     1       3.723   3.255  -1.073  0.00  0.00    +0.027 C 
ATOM      5  C   UNL     1       2.817   3.978  -0.080  0.00  0.00    +0.029 C 
ATOM      6  C   UNL     1       1.384   3.461  -0.231  0.00  0.00    +0.086 C 
ATOM      7  C   UNL     1       5.149   3.725  -0.924  0.00  0.00    -0.034 A 
ATOM      8  C   UNL     1       5.911   3.949   0.211  0.00  0.00    +0.004 A 
ATOM      9  C   UNL     1       7.216   4.387   0.098  0.00  0.00    +0.000 A 
ATOM     10  C   UNL     1       7.766   4.604  -1.152  0.00  0.00    +0.000 A 
ATOM     11  C   UNL     1       7.008   4.381  -2.285  0.00  0.00    +0.006 A 
ATOM     12  C   UNL     1       5.700   3.941  -2.174  0.00  0.00    -0.021 A 
ATOM     13  C   UNL     1       4.676   3.628  -3.245  0.00  0.00    +0.133 C 
ATOM     14  C   UNL     1       3.316   3.614  -2.514  0.00  0.00    +0.153 C 
ENDROOT
BRANCH  13  15
ATOM     15  N   UNL     1       4.946   2.317  -3.841  0.00  0.00    -0.299 N 
ATOM     16  C   UNL     1       5.767   2.216  -4.905  0.00  0.00    +0.280 C 
ATOM     17  O   UNL     1       6.284   3.214  -5.371  0.00  0.00    -0.267 OA
ATOM     18  H   UNL     1       4.479   1.415  -3.419  0.00  0.00    +0.150 HD
BRANCH  16  19
ATOM     19  C   UNL     1       6.037   0.904  -5.501  0.00  0.00    +0.189 A 
ATOM     20  C   UNL     1       6.840   0.662  -6.579  0.00  0.00    +0.054 A 
ATOM     21  C   UNL     1       6.811  -0.724  -6.800  0.00  0.00    +0.042 A 
ATOM     22  C   UNL     1       5.996  -1.259  -5.865  0.00  0.00    +0.196 A 
ATOM     23  O   UNL     1       5.532  -0.276  -5.084  0.00  0.00    -0.458 OA
ENDBRANCH  16  19
ENDBRANCH  13  15
BRANCH  14  24
ATOM     24  O   UNL     1       2.700   4.903  -2.562  0.00  0.00    -0.377 OA
ATOM     25  C   UNL     1       1.732   5.046  -3.603  0.00  0.00    +0.194 C 
ENDBRANCH  14  24
BRANCH   1  26
ATOM     26  C   UNL     1      -0.018   1.503   0.010  0.00  0.00    +0.157 C 
BRANCH  26  31
ATOM     27  N   UNL     1       0.023  -0.803   1.100  0.00  0.00    -0.304 N 
ATOM     28  C   UNL     1       0.036  -2.099   0.655  0.00  0.00    +0.110 A 
ATOM     29  C   UNL     1       0.022  -2.049  -0.691  0.00  0.00    +0.102 A 
ATOM     30  N   UNL     1      -0.003  -0.760  -1.062  0.00  0.00    -0.348 N 
ATOM     31  C   UNL     1       0.002  -0.004   0.002  0.00  0.00    +0.106 A 
ATOM     32  H   UNL     1      -0.024  -0.495  -2.129  0.00  0.00    +0.166 HD
BRANCH  27  38
ATOM     33  C   UNL     1      -1.849  -1.087   5.640  0.00  0.00    +0.044 C 
ATOM     34  C   UNL     1      -0.866  -0.503   4.658  0.00  0.00    -0.048 A 
ATOM     35  C   UNL     1       0.043   0.452   5.076  0.00  0.00    +0.003 A 
ATOM     36  C   UNL     1       0.946   0.991   4.178  0.00  0.00    +0.002 A 
ATOM     37  C   UNL     1       0.942   0.577   2.860  0.00  0.00    +0.026 A 
ATOM     38  C   UNL     1       0.030  -0.381   2.438  0.00  0.00    +0.048 A 
ATOM     39  C   UNL     1      -0.878  -0.917   3.341  0.00  0.00    +0.029 A 
ENDBRANCH  27  38
ENDBRANCH  26  31
ENDBRANCH   1  26
TORSDOF 6
