REMARK  Name = ZINC06885853
REMARK  7 active torsions:
REMARK  status: ('A' for Active; 'I' for Inactive)
REMARK    1  A    between atoms: C_10  and  N_54
REMARK    2  A    between atoms: C_12  and  C_13
REMARK    3  A    between atoms: C_12  and  N_54
REMARK    4  A    between atoms: C_13  and  C_15
REMARK    5  A    between atoms: C_13  and  O_28
REMARK    6  A    between atoms: C_15  and  O_16
REMARK    7  A    between atoms: O_16  and  C_17
REMARK                            x       y       z     vdW  Elec       q    Type
REMARK                         _______ _______ _______ _____ _____    ______ ____
ROOT
ATOM      1  C   UNL     1      -1.435  -0.481  -0.029  0.00  0.00    +0.123 C 
ENDROOT
BRANCH   1   2
ATOM      2  O   UNL     1      -2.300  -0.064  -1.088  0.00  0.00    -0.391 OA
ATOM      3  H   UNL     1      -2.023  -0.366  -1.964  0.00  0.00    +0.210 HD
ENDBRANCH   1   2
BRANCH   1   4
ATOM      4  C   UNL     1      -1.383  -2.010   0.015  0.00  0.00    -0.048 C 
BRANCH   4   5
ATOM      5  N   UNL     1      -2.743  -2.533   0.249  0.00  0.00    +0.385 N 
ATOM      6  H   UNL     1      -3.127  -2.108   1.100  0.00  0.00    -0.085 HD
ATOM      7  H   UNL     1      -3.340  -2.295  -0.552  0.00  0.00    -0.085 HD
BRANCH   5  17
ATOM      8  C   UNL     1      -5.990  -5.114   2.914  0.00  0.00    +0.000 A 
ATOM      9  C   UNL     1      -5.226  -3.998   3.203  0.00  0.00    +0.000 A 
ATOM     10  C   UNL     1      -4.173  -3.657   2.380  0.00  0.00    +0.002 A 
ATOM     11  C   UNL     1      -3.873  -4.426   1.262  0.00  0.00    -0.058 A 
ATOM     12  C   UNL     1      -4.635  -5.535   0.973  0.00  0.00    -0.046 A 
ATOM     13  C   UNL     1      -5.694  -5.878   1.804  0.00  0.00    +0.004 A 
ATOM     14  C   UNL     1      -4.372  -6.410  -0.225  0.00  0.00    +0.035 C 
ATOM     15  C   UNL     1      -2.965  -6.168  -0.768  0.00  0.00    +0.003 C 
ATOM     16  C   UNL     1      -2.776  -4.659  -0.965  0.00  0.00    -0.011 C 
ATOM     17  C   UNL     1      -2.707  -3.999   0.410  0.00  0.00    -0.041 C 
ENDBRANCH   5  17
ENDBRANCH   4   5
ENDBRANCH   1   4
BRANCH   1  18
ATOM     18  C   UNL     1      -0.029   0.070  -0.272  0.00  0.00    +0.190 C 
BRANCH  18  19
ATOM     19  O   UNL     1      -0.057   1.496  -0.198  0.00  0.00    -0.369 OA
BRANCH  19  20
ATOM     20  C   UNL     1       1.229   2.110  -0.308  0.00  0.00    +0.149 C 
ATOM     21  C   UNL     1       1.865   2.202   1.077  0.00  0.00    +0.037 C 
ATOM     22  C   UNL     1       3.137   3.051   0.970  0.00  0.00    +0.007 C 
ATOM     23  C   UNL     1       2.729   4.499   0.707  0.00  0.00    +0.035 C 
ATOM     24  C   UNL     1       1.767   4.577  -0.449  0.00  0.00    -0.042 A 
ATOM     25  C   UNL     1       1.075   3.481  -0.913  0.00  0.00    -0.016 A 
ATOM     26  C   UNL     1       0.197   3.622  -1.980  0.00  0.00    +0.006 A 
ATOM     27  C   UNL     1       0.015   4.851  -2.579  0.00  0.00    +0.000 A 
ATOM     28  C   UNL     1       0.713   5.951  -2.117  0.00  0.00    +0.000 A 
ATOM     29  C   UNL     1       1.585   5.813  -1.056  0.00  0.00    +0.004 A 
ENDBRANCH  19  20
ENDBRANCH  18  19
ENDBRANCH   1  18
TORSDOF 7
