REMARK  Name = ZINC39685645
REMARK  9 active torsions:
REMARK  status: ('A' for Active; 'I' for Inactive)
REMARK    1  A    between atoms: C_1  and  C_2
REMARK    2  A    between atoms: C_12  and  O_13
REMARK    3  A    between atoms: O_13  and  C_14
REMARK    4  A    between atoms: C_14  and  C_15
REMARK    5  A    between atoms: C_19  and  C_28
REMARK    6  A    between atoms: N_30  and  C_31
REMARK    7  A    between atoms: C_31  and  C_32
REMARK    8  A    between atoms: C_32  and  N_33
REMARK    9  A    between atoms: N_37  and  C_40
REMARK                            x       y       z     vdW  Elec       q    Type
REMARK                         _______ _______ _______ _____ _____    ______ ____
ROOT
ATOM      1  C   UNL     1       0.143  -6.577   3.309  0.00  0.00    +0.253 C 
ATOM      2  O   UNL     1       0.089  -7.039   2.188  0.00  0.00    -0.272 OA
ATOM      3  N   UNL     1       0.125  -7.399   4.377  0.00  0.00    -0.297 N 
ATOM      4  C   UNL     1       0.175  -7.025   5.811  0.00  0.00    +0.121 C 
ATOM      5  C   UNL     1      -0.808  -7.996   6.502  0.00  0.00    +0.100 C 
ATOM      6  C   UNL     1      -0.885  -9.211   5.562  0.00  0.00    -0.004 C 
ATOM      7  C   UNL     1       0.043  -8.879   4.385  0.00  0.00    +0.115 C 
ATOM      8  C   UNL     1      -2.314  -9.403   5.062  0.00  0.00    -0.010 C 
ATOM      9  C   UNL     1      -2.376 -10.650   4.176  0.00  0.00    -0.082 C 
ATOM     10  N   UNL     1      -1.944 -11.823   4.947  0.00  0.00    +0.379 N 
ATOM     11  C   UNL     1      -0.540 -11.671   5.345  0.00  0.00    -0.082 C 
ATOM     12  C   UNL     1      -0.399 -10.467   6.280  0.00  0.00    -0.010 C 
ATOM     13  H   UNL     1      -2.518 -11.912   5.771  0.00  0.00    -0.086 HD
ATOM     14  H   UNL     1      -2.044 -12.652   4.380  0.00  0.00    -0.086 HD
ENDROOT
BRANCH   5  15
ATOM     15  C   UNL     1      -0.278  -8.407   7.851  0.00  0.00    +0.218 C 
ATOM     16  O   UNL     1       0.918  -8.472   8.039  0.00  0.00    -0.275 OA
ATOM     17  N   UNL     1      -1.134  -8.701   8.850  0.00  0.00    -0.314 N 
ATOM     18  H   UNL     1      -2.091  -8.649   8.700  0.00  0.00    +0.149 HD
BRANCH  17  19
ATOM     19  C   UNL     1      -0.619  -9.100  10.162  0.00  0.00    +0.119 C 
BRANCH  19  20
ATOM     20  C   UNL     1      -1.790  -9.376  11.107  0.00  0.00    +0.103 C 
BRANCH  20  21
ATOM     21  N   UNL     1      -1.274  -9.776  12.423  0.00  0.00    -0.303 NA
ATOM     22  C   UNL     1      -0.587  -8.681  13.064  0.00  0.00    +0.082 C 
ATOM     23  C   UNL     1       0.649  -9.133  13.868  0.00  0.00    -0.003 C 
ATOM     24  C   UNL     1       0.383 -10.426  14.662  0.00  0.00    -0.078 C 
ATOM     25  N   UNL     1      -0.927 -10.426  15.269  0.00  0.00    +0.379 N 
ATOM     26  C   UNL     1      -1.853 -11.132  14.363  0.00  0.00    -0.064 C 
ATOM     27  C   UNL     1      -2.366 -10.281  13.292  0.00  0.00    +0.066 C 
ATOM     28  C   UNL     1      -0.873 -11.118  16.564  0.00  0.00    -0.096 C 
ATOM     29  H   UNL     1      -1.240  -9.476  15.403  0.00  0.00    -0.082 HD
ENDBRANCH  20  21
ENDBRANCH  19  20
ENDBRANCH  17  19
ENDBRANCH   5  15
BRANCH   1  30
ATOM     30  C   UNL     1       0.231  -5.086   3.506  0.00  0.00    +0.324 C 
BRANCH  30  31
ATOM     31  O   UNL     1       0.235  -4.437   2.233  0.00  0.00    -0.479 OA
BRANCH  31  43
ATOM     32  C   UNL     1       0.487   1.252  -0.264  0.00  0.00    +0.045 C 
ATOM     33  C   UNL     1       0.405  -0.252  -0.231  0.00  0.00    -0.033 A 
ATOM     34  C   UNL     1       0.336  -0.972  -1.380  0.00  0.00    +0.096 A 
ATOM     35  C   UNL     1       0.260  -2.380  -1.321  0.00  0.00    +0.338 A 
ATOM     36  O   UNL     1       0.199  -3.015  -2.359  0.00  0.00    -0.245 OA
ATOM     37  O   UNL     1       0.253  -3.037  -0.152  0.00  0.00    -0.418 OA
ATOM     38  C   UNL     1       0.319  -2.381   1.027  0.00  0.00    +0.181 A 
ATOM     39  C   UNL     1       0.402  -0.979   1.042  0.00  0.00    +0.024 A 
ATOM     40  C   UNL     1       0.476  -0.296   2.261  0.00  0.00    +0.012 A 
ATOM     41  C   UNL     1       0.472  -1.005   3.441  0.00  0.00    +0.004 A 
ATOM     42  C   UNL     1       0.395  -2.389   3.429  0.00  0.00    +0.049 A 
ATOM     43  C   UNL     1       0.310  -3.079   2.232  0.00  0.00    +0.164 A 
ENDBRANCH  31  43
ENDBRANCH  30  31
ENDBRANCH   1  30
TORSDOF 7
