REMARK  Name = ZINC44389788
REMARK  15 active torsions:
REMARK  status: ('A' for Active; 'I' for Inactive)
REMARK    1  A    between atoms: C_1  and  C_2
REMARK    2  A    between atoms: C_2  and  C_3
REMARK    3  A    between atoms: C_4  and  C_35
REMARK    4  A    between atoms: C_11  and  N_19
REMARK    5  A    between atoms: C_13  and  C_15
REMARK    6  A    between atoms: C_15  and  C_16
REMARK    7  A    between atoms: C_15  and  C_17
REMARK    8  A    between atoms: C_15  and  C_18
REMARK    9  A    between atoms: N_22  and  C_23
REMARK   10  A    between atoms: C_25  and  O_33
REMARK   11  A    between atoms: C_26  and  O_31
REMARK   12  A    between atoms: C_27  and  O_29
REMARK   13  A    between atoms: O_29  and  C_30
REMARK   14  A    between atoms: O_31  and  C_32
REMARK   15  A    between atoms: O_33  and  C_34
REMARK                            x       y       z     vdW  Elec       q    Type
REMARK                         _______ _______ _______ _____ _____    ______ ____
ROOT
ATOM      1  C   UNL     1       0.714  -0.452  -1.249  0.00  0.00    +0.040 A 
ATOM      2  C   UNL     1       0.011  -0.689  -2.415  0.00  0.00    +0.050 A 
ATOM      3  N   UNL     1       0.659  -1.124  -3.484  0.00  0.00    -0.215 NA
ATOM      4  C   UNL     1       1.966  -1.334  -3.449  0.00  0.00    +0.255 A 
ATOM      5  N   UNL     1       2.674  -1.120  -2.352  0.00  0.00    -0.171 NA
ATOM      6  C   UNL     1       2.090  -0.677  -1.245  0.00  0.00    +0.278 A 
ATOM      7  O   UNL     1       2.820  -0.452  -0.125  0.00  0.00    -0.265 OA
ATOM      8  N   UNL     1       2.612  -1.793  -4.595  0.00  0.00    -0.206 N 
ATOM      9  C   UNL     1       3.942  -2.061  -4.715  0.00  0.00    +0.131 A 
ATOM     10  C   UNL     1       4.160  -2.484  -5.989  0.00  0.00    +0.067 A 
ATOM     11  C   UNL     1       2.933  -2.474  -6.660  0.00  0.00    +0.042 A 
ATOM     12  N   UNL     1       2.008  -2.068  -5.829  0.00  0.00    -0.293 N 
ATOM     13  C   UNL     1      -1.477  -0.454  -2.469  0.00  0.00    +0.066 C 
ATOM     14  H   UNL     1       1.065  -1.972  -6.033  0.00  0.00    +0.187 HD
ENDROOT
BRANCH   9  15
ATOM     15  N   UNL     1       4.904  -1.925  -3.715  0.00  0.00    -0.254 N 
ATOM     16  C   UNL     1       6.192  -2.227  -3.974  0.00  0.00    +0.309 C 
ATOM     17  O   UNL     1       6.515  -2.618  -5.079  0.00  0.00    -0.252 OA
ATOM     18  N   UNL     1       7.122  -2.095  -3.007  0.00  0.00    -0.269 N 
ATOM     19  H   UNL     1       4.647  -1.613  -2.834  0.00  0.00    +0.158 HD
ATOM     20  H   UNL     1       6.878  -1.720  -2.147  0.00  0.00    +0.156 HD
BRANCH  18  21
ATOM     21  C   UNL     1       8.442  -2.500  -3.246  0.00  0.00    +0.042 A 
ATOM     22  C   UNL     1       9.001  -2.338  -4.506  0.00  0.00    +0.073 A 
ATOM     23  C   UNL     1      10.307  -2.738  -4.743  0.00  0.00    +0.167 A 
ATOM     24  C   UNL     1      11.057  -3.302  -3.718  0.00  0.00    +0.204 A 
ATOM     25  C   UNL     1      10.497  -3.464  -2.456  0.00  0.00    +0.167 A 
ATOM     26  C   UNL     1       9.192  -3.058  -2.220  0.00  0.00    +0.073 A 
BRANCH  25  27
ATOM     27  O   UNL     1      11.230  -4.016  -1.452  0.00  0.00    -0.491 OA
ATOM     28  C   UNL     1      10.590  -4.152  -0.182  0.00  0.00    +0.277 C 
ENDBRANCH  25  27
BRANCH  24  29
ATOM     29  O   UNL     1      12.339  -3.695  -3.949  0.00  0.00    -0.488 OA
ATOM     30  C   UNL     1      13.366  -2.726  -3.727  0.00  0.00    +0.277 C 
ENDBRANCH  24  29
BRANCH  23  31
ATOM     31  O   UNL     1      10.854  -2.579  -5.978  0.00  0.00    -0.491 OA
ATOM     32  C   UNL     1      10.025  -1.993  -6.984  0.00  0.00    +0.277 C 
ENDBRANCH  23  31
ENDBRANCH  18  21
ENDBRANCH   9  15
BRANCH  11  33
ATOM     33  C   UNL     1       2.712  -2.870  -8.098  0.00  0.00    +0.004 C 
ATOM     34  C   UNL     1       4.044  -3.291  -8.721  0.00  0.00    +0.017 C 
ATOM     35  C   UNL     1       1.728  -4.041  -8.158  0.00  0.00    +0.017 C 
ATOM     36  C   UNL     1       2.139  -1.682  -8.872  0.00  0.00    +0.017 C 
ENDBRANCH  11  33
BRANCH   1  38
ATOM     37  C   UNL     1      -0.003   1.575  -0.012  0.00  0.00    +0.009 C 
ATOM     38  C   UNL     1       0.011   0.045  -0.012  0.00  0.00    +0.039 C 
ENDBRANCH   1  38
TORSDOF 7
