REMARK  Name = ZINC63280766
REMARK  6 active torsions:
REMARK  status: ('A' for Active; 'I' for Inactive)
REMARK    1  A    between atoms: C_6  and  O_7
REMARK    2  A    between atoms: O_7  and  C_8
REMARK    3  A    between atoms: C_8  and  C_9
REMARK    4  A    between atoms: N_11  and  C_12
REMARK    5  A    between atoms: C_12  and  C_13
REMARK    6  A    between atoms: C_13  and  C_14
REMARK                            x       y       z     vdW  Elec       q    Type
REMARK                         _______ _______ _______ _____ _____    ______ ____
ROOT
ATOM      1  O   UNL     1      -1.168  -0.697   0.005  0.00  0.00    -0.483 OA
ENDROOT
BRANCH   1   7
ATOM      2  C   UNL     1      -0.017   1.385   0.010  0.00  0.00    +0.047 A 
ATOM      3  C   UNL     1       1.163   2.105   0.002  0.00  0.00    +0.027 A 
ATOM      4  C   UNL     1       2.376   1.437  -0.010  0.00  0.00    +0.041 A 
ATOM      5  C   UNL     1       2.399   0.032  -0.009  0.00  0.00    +0.061 A 
ATOM      6  C   UNL     1       1.207  -0.686  -0.009  0.00  0.00    +0.060 A 
ATOM      7  C   UNL     1       0.002  -0.004   0.002  0.00  0.00    +0.122 A 
ATOM      8  C   UNL     1       3.713  -0.639   0.005  0.00  0.00    +0.250 C 
ATOM      9  O   UNL     1       3.801  -1.820  -0.272  0.00  0.00    -0.270 OA
ATOM     10  N   UNL     1       4.799   0.054   0.320  0.00  0.00    -0.279 N 
ATOM     11  C   UNL     1       6.132  -0.525   0.522  0.00  0.00    +0.110 C 
ATOM     12  C   UNL     1       6.155  -1.428   1.764  0.00  0.00    +0.019 C 
ATOM     13  C   UNL     1       5.631  -0.558   2.966  0.00  0.00    +0.002 C 
ATOM     14  C   UNL     1       5.946   0.890   2.710  0.00  0.00    +0.003 C 
ATOM     15  C   UNL     1       4.786   1.614   2.057  0.00  0.00    +0.042 C 
ATOM     16  C   UNL     1       4.788   1.536   0.552  0.00  0.00    +0.161 C 
ATOM     17  N   UNL     1       3.586   2.120  -0.031  0.00  0.00    -0.325 N 
ATOM     18  H   UNL     1       3.632   2.998  -0.440  0.00  0.00    +0.148 HD
ENDBRANCH   1   7
BRANCH   1  19
ATOM     19  C   UNL     1      -2.375   0.068   0.017  0.00  0.00    +0.324 C 
BRANCH  19  20
ATOM     20  C   UNL     1      -3.560  -0.863   0.019  0.00  0.00    +0.251 C 
ATOM     21  O   UNL     1      -3.388  -2.063   0.011  0.00  0.00    -0.272 OA
ATOM     22  N   UNL     1      -4.811  -0.362   0.029  0.00  0.00    -0.312 N 
ATOM     23  H   UNL     1      -4.949   0.599   0.035  0.00  0.00    +0.149 HD
BRANCH  22  24
ATOM     24  C   UNL     1      -5.963  -1.267   0.031  0.00  0.00    +0.108 C 
BRANCH  24  25
ATOM     25  C   UNL     1      -7.255  -0.448   0.043  0.00  0.00    +0.052 C 
BRANCH  25  26
ATOM     26  C   UNL     1      -8.440  -1.379   0.045  0.00  0.00    -0.040 C 
ATOM     27  C   UNL     1      -9.135  -1.809   1.123  0.00  0.00    +0.000 A 
ATOM     28  C   UNL     1      -8.999  -1.548   2.562  0.00  0.00    +0.030 A 
ATOM     29  C   UNL     1      -9.865  -2.137   3.419  0.00  0.00    +0.042 A 
ATOM     30  C   UNL     1     -10.885  -2.988   2.969  0.00  0.00    +0.022 A 
ATOM     31  C   UNL     1     -11.072  -3.275   1.663  0.00  0.00    +0.027 A 
ATOM     32  C   UNL     1     -10.220  -2.710   0.674  0.00  0.00    +0.043 A 
ATOM     33  N   UNL     1     -10.197  -2.832  -0.631  0.00  0.00    -0.380 N 
ATOM     34  C   UNL     1      -9.098  -2.016  -1.158  0.00  0.00    +0.144 C 
ATOM     35 CL   UNL     1      -9.708  -1.832   5.121  0.00  0.00    -0.084 Cl
ATOM     36  H   UNL     1     -10.808  -3.369  -1.160  0.00  0.00    +0.160 HD
ENDBRANCH  25  26
ENDBRANCH  24  25
ENDBRANCH  22  24
ENDBRANCH  19  20
ENDBRANCH   1  19
TORSDOF 6
