REMARK  Name = ZINC49525796
REMARK  8 active torsions:
REMARK  status: ('A' for Active; 'I' for Inactive)
REMARK    1  A    between atoms: C_1  and  C_2
REMARK    2  A    between atoms: C_2  and  C_4
REMARK    3  A    between atoms: C_2  and  N_11
REMARK    4  A    between atoms: N_11  and  C_12
REMARK    5  A    between atoms: C_12  and  C_13
REMARK    6  A    between atoms: C_13  and  C_15
REMARK    7  A    between atoms: C_13  and  O_21
REMARK    8  A    between atoms: C_15  and  N_16
REMARK                            x       y       z     vdW  Elec       q    Type
REMARK                         _______ _______ _______ _____ _____    ______ ____
ROOT
ATOM      1  N   UNL     1       0.690  -0.478  -1.207  0.00  0.00    +0.385 N 
ATOM      2  H   UNL     1       0.632  -1.484  -1.254  0.00  0.00    -0.085 HD
ATOM      3  H   UNL     1       0.251  -0.077  -2.022  0.00  0.00    -0.085 HD
ENDROOT
BRANCH   1   5
ATOM      4  C   UNL     1      -0.019   1.526   0.010  0.00  0.00    -0.009 C 
ATOM      5  C   UNL     1       0.002  -0.004   0.002  0.00  0.00    -0.044 C 
BRANCH   5   6
ATOM      6  C   UNL     1      -1.412  -0.526   0.013  0.00  0.00    -0.062 A 
ATOM      7  C   UNL     1      -2.141  -0.569  -1.161  0.00  0.00    +0.003 A 
ATOM      8  C   UNL     1      -3.438  -1.048  -1.151  0.00  0.00    +0.015 A 
ATOM      9  C   UNL     1      -4.005  -1.484   0.032  0.00  0.00    +0.018 A 
ATOM     10  C   UNL     1      -3.275  -1.440   1.206  0.00  0.00    +0.015 A 
ATOM     11  C   UNL     1      -1.977  -0.966   1.195  0.00  0.00    +0.003 A 
ATOM     12 BR   UNL     1      -5.779  -2.138   0.046  0.00  0.00    -0.050 Br
ENDBRANCH   5   6
ENDBRANCH   1   5
BRANCH   1  13
ATOM     13  C   UNL     1       2.100  -0.070  -1.159  0.00  0.00    -0.048 C 
BRANCH  13  14
ATOM     14  C   UNL     1       2.816  -0.564  -2.418  0.00  0.00    +0.119 C 
BRANCH  14  15
ATOM     15  O   UNL     1       2.734  -1.989  -2.485  0.00  0.00    -0.392 OA
ATOM     16  H   UNL     1       3.137  -2.442  -1.731  0.00  0.00    +0.210 HD
ENDBRANCH  14  15
BRANCH  14  17
ATOM     17  C   UNL     1       4.285  -0.139  -2.368  0.00  0.00    +0.172 C 
BRANCH  17  18
ATOM     18  N   UNL     1       4.942  -0.507  -3.625  0.00  0.00    -0.269 N 
ATOM     19  C   UNL     1       5.623   0.328  -4.438  0.00  0.00    +0.108 A 
ATOM     20  C   UNL     1       6.073  -0.397  -5.489  0.00  0.00    +0.041 A 
ATOM     21  C   UNL     1       5.653  -1.719  -5.312  0.00  0.00    +0.134 A 
ATOM     22  N   UNL     1       4.980  -1.787  -4.192  0.00  0.00    -0.180 NA
ENDBRANCH  17  18
ENDBRANCH  14  17
ENDBRANCH  13  14
ENDBRANCH   1  13
TORSDOF 7
