REMARK  Name = ZINC43262088
REMARK  11 active torsions:
REMARK  status: ('A' for Active; 'I' for Inactive)
REMARK    1  A    between atoms: C_1  and  C_2
REMARK    2  A    between atoms: C_2  and  C_3
REMARK    3  A    between atoms: C_3  and  N_4
REMARK    4  A    between atoms: C_5  and  C_7
REMARK    5  A    between atoms: C_7  and  N_8
REMARK    6  A    between atoms: N_8  and  C_9
REMARK    7  A    between atoms: N_8  and  C_10
REMARK    8  A    between atoms: C_10  and  C_12
REMARK    9  A    between atoms: C_10  and  C_18
REMARK   10  A    between atoms: C_18  and  C_20
REMARK   11  A    between atoms: C_18  and  N_21
REMARK                            x       y       z     vdW  Elec       q    Type
REMARK                         _______ _______ _______ _____ _____    ______ ____
ROOT
ATOM      1  C   UNL     1       1.964  -6.068  -3.591  0.00  0.00    +0.079 C 
ENDROOT
BRANCH   1   2
ATOM      2  C   UNL     1       2.815  -6.639  -4.695  0.00  0.00    +0.006 A 
ATOM      3  C   UNL     1       3.615  -7.733  -4.678  0.00  0.00    +0.014 A 
ATOM      4  C   UNL     1       4.312  -8.072  -5.822  0.00  0.00    +0.023 A 
ATOM      5  C   UNL     1       4.175  -7.300  -6.929  0.00  0.00    +0.055 A 
ATOM      6  S   UNL     1       3.027  -6.053  -6.369  0.00  0.00    -0.085 S 
ATOM      7 BR   UNL     1       4.984  -7.498  -8.626  0.00  0.00    -0.043 Br
ENDBRANCH   1   2
BRANCH   1   8
ATOM      8  N   UNL     1       2.045  -4.602  -3.618  0.00  0.00    -0.291 NA
ATOM      9  C   UNL     1       3.443  -4.152  -3.609  0.00  0.00    +0.106 C 
BRANCH   8  10
ATOM     10  C   UNL     1       1.295  -4.012  -2.501  0.00  0.00    +0.180 C 
BRANCH  10  12
ATOM     11  N   UNL     1       0.301  -1.823  -1.920  0.00  0.00    -0.314 N 
ATOM     12  C   UNL     1       0.986  -2.570  -2.808  0.00  0.00    +0.227 C 
ATOM     13  O   UNL     1       1.355  -2.081  -3.855  0.00  0.00    -0.274 OA
ATOM     14  H   UNL     1       0.006  -2.214  -1.083  0.00  0.00    +0.149 HD
BRANCH  11  15
ATOM     15  C   UNL     1       0.001  -0.421  -2.219  0.00  0.00    +0.104 C 
BRANCH  15  17
ATOM     16  C   UNL     1      -1.094   1.658  -1.368  0.00  0.00    +0.005 C 
ATOM     17  C   UNL     1      -0.781   0.193  -1.055  0.00  0.00    +0.015 C 
ENDBRANCH  15  17
ENDBRANCH  11  15
ENDBRANCH  10  12
ENDBRANCH   8  10
ENDBRANCH   1   8
BRANCH   1  18
ATOM     18  C   UNL     1       0.510  -6.502  -3.792  0.00  0.00    -0.056 C 
ATOM     19  C   UNL     1      -0.036  -5.877  -5.077  0.00  0.00    -0.012 C 
BRANCH  18  20
ATOM     20  N   UNL     1       0.446  -7.966  -3.894  0.00  0.00    +0.381 N 
ATOM     21  H   UNL     1       0.889  -8.380  -3.087  0.00  0.00    -0.090 HD
ATOM     22  H   UNL     1      -0.519  -8.259  -3.935  0.00  0.00    -0.090 HD
ATOM     23  H   UNL     1       0.924  -8.266  -4.731  0.00  0.00    -0.090 HD
ENDBRANCH  18  20
ENDBRANCH   1  18
TORSDOF 8
