REMARK  Name = ZINC64040806
REMARK  5 active torsions:
REMARK  status: ('A' for Active; 'I' for Inactive)
REMARK    1  A    between atoms: C_5  and  C_7
REMARK    2  A    between atoms: C_9  and  C_13
REMARK    3  A    between atoms: C_17  and  C_20
REMARK    4  A    between atoms: C_20  and  N_21
REMARK    5  A    between atoms: C_22  and  C_24
REMARK                            x       y       z     vdW  Elec       q    Type
REMARK                         _______ _______ _______ _____ _____    ______ ____
ROOT
ATOM      1  C   UNL     1      -0.017   1.376   0.010  0.00  0.00    +0.001 A 
ATOM      2  C   UNL     1       1.174   2.083   0.002  0.00  0.00    +0.007 A 
ATOM      3  C   UNL     1       2.378   1.413  -0.012  0.00  0.00    -0.002 A 
ATOM      4  C   UNL     1       2.421   0.026  -0.013  0.00  0.00    +0.132 A 
ATOM      5  C   UNL     1       1.214  -0.688  -0.009  0.00  0.00    +0.026 A 
ATOM      6  C   UNL     1       0.002  -0.004   0.002  0.00  0.00    +0.012 A 
ATOM      7  O   UNL     1       3.704  -0.428  -0.005  0.00  0.00    -0.486 OA
ATOM      8  C   UNL     1       4.581   0.623  -0.445  0.00  0.00    +0.195 C 
ATOM      9  C   UNL     1       3.814   1.902  -0.035  0.00  0.00    +0.085 C 
ENDROOT
BRANCH   5  10
ATOM     10  C   UNL     1       1.228  -2.171  -0.019  0.00  0.00    +0.004 A 
ATOM     11  C   UNL     1       0.464  -2.892   0.899  0.00  0.00    +0.024 A 
ATOM     12  C   UNL     1       0.514  -4.288   0.847  0.00  0.00    +0.055 A 
ATOM     13  C   UNL     1       1.320  -4.902  -0.114  0.00  0.00    +0.123 A 
ATOM     14  N   UNL     1       2.026  -4.182  -0.962  0.00  0.00    -0.262 NA
ATOM     15  C   UNL     1       2.002  -2.864  -0.949  0.00  0.00    +0.119 A 
BRANCH  12  16
ATOM     16  C   UNL     1      -0.275  -5.103   1.796  0.00  0.00    +0.243 C 
ATOM     17  O   UNL     1      -0.974  -4.560   2.629  0.00  0.00    -0.270 OA
ATOM     18  N   UNL     1      -0.219  -6.449   1.736  0.00  0.00    -0.325 N 
ATOM     19  H   UNL     1       0.338  -6.882   1.072  0.00  0.00    +0.145 HD
ATOM     20  H   UNL     1      -0.737  -6.983   2.359  0.00  0.00    +0.145 HD
ENDBRANCH  12  16
ENDBRANCH   5  10
BRANCH   8  21
ATOM     21  C   UNL     1       5.929   0.540   0.274  0.00  0.00    +0.149 C 
BRANCH  21  22
ATOM     22  N   UNL     1       6.626  -0.682  -0.135  0.00  0.00    -0.308 N 
ATOM     23  C   UNL     1       7.842  -0.966   0.374  0.00  0.00    +0.244 C 
ATOM     24  O   UNL     1       8.359  -0.209   1.172  0.00  0.00    -0.270 OA
ATOM     25  H   UNL     1       6.213  -1.286  -0.771  0.00  0.00    +0.149 HD
BRANCH  23  26
ATOM     26  C   UNL     1       8.543  -2.196  -0.037  0.00  0.00    +0.037 A 
ATOM     27  C   UNL     1       7.912  -3.092  -1.000  0.00  0.00    +0.015 A 
ATOM     28  C   UNL     1       8.520  -4.229  -1.398  0.00  0.00    +0.026 A 
ATOM     29  C   UNL     1       9.837  -4.579  -0.859  0.00  0.00    +0.043 A 
ATOM     30  N   UNL     1      10.625  -5.601  -1.103  0.00  0.00    -0.378 N 
ATOM     31  C   UNL     1      11.794  -5.505  -0.234  0.00  0.00    +0.106 C 
ATOM     32  C   UNL     1      13.106  -5.500  -1.023  0.00  0.00    +0.029 C 
ATOM     33  C   UNL     1      14.243  -5.110  -0.072  0.00  0.00    +0.003 C 
ATOM     34  C   UNL     1      14.080  -3.675   0.424  0.00  0.00    +0.004 C 
ATOM     35  C   UNL     1      12.797  -3.553   1.264  0.00  0.00    +0.033 C 
ATOM     36  C   UNL     1      11.671  -4.160   0.460  0.00  0.00    -0.038 C 
ATOM     37  C   UNL     1      10.474  -3.655   0.112  0.00  0.00    -0.000 A 
ATOM     38  C   UNL     1       9.783  -2.474   0.490  0.00  0.00    +0.023 A 
ATOM     39  H   UNL     1      10.458  -6.303  -1.751  0.00  0.00    +0.160 HD
ENDBRANCH  23  26
ENDBRANCH  21  22
ENDBRANCH   8  21
TORSDOF 5
