REMARK  Name = ZINC62710076
REMARK  6 active torsions:
REMARK  status: ('A' for Active; 'I' for Inactive)
REMARK    1  A    between atoms: C_4  and  C_7
REMARK    2  A    between atoms: C_7  and  C_8
REMARK    3  A    between atoms: N_11  and  C_18
REMARK    4  A    between atoms: C_12  and  C_16
REMARK    5  A    between atoms: C_16  and  O_17
REMARK    6  A    between atoms: C_18  and  C_19
REMARK                            x       y       z     vdW  Elec       q    Type
REMARK                         _______ _______ _______ _____ _____    ______ ____
ROOT
ATOM      1  C   UNL     1       4.148  -1.126   1.389  0.00  0.00    -0.053 C 
ATOM      2  C   UNL     1       5.463  -1.909   1.366  0.00  0.00    +0.069 C 
ATOM      3  N   UNL     1       5.971  -2.047   2.738  0.00  0.00    -0.296 NA
ATOM      4  C   UNL     1       6.183  -0.729   3.351  0.00  0.00    +0.065 C 
ATOM      5  C   UNL     1       4.862   0.045   3.358  0.00  0.00    -0.061 C 
ATOM      6  N   UNL     1       4.378   0.199   1.980  0.00  0.00    +0.383 N 
ATOM      7  H   UNL     1       5.067   0.695   1.435  0.00  0.00    -0.085 HD
ATOM      8  H   UNL     1       3.514   0.720   1.984  0.00  0.00    -0.085 HD
ENDROOT
BRANCH   1   9
ATOM      9  C   UNL     1       3.626  -0.963  -0.040  0.00  0.00    +0.020 C 
BRANCH   9  13
ATOM     10  C   UNL     1      -0.209   0.915   0.048  0.00  0.00    +0.000 A 
ATOM     11  C   UNL     1       0.936   1.685  -0.035  0.00  0.00    +0.000 A 
ATOM     12  C   UNL     1       2.177   1.077  -0.063  0.00  0.00    +0.003 A 
ATOM     13  C   UNL     1       2.273  -0.301  -0.008  0.00  0.00    -0.049 A 
ATOM     14  C   UNL     1       1.128  -1.071   0.075  0.00  0.00    +0.003 A 
ATOM     15  C   UNL     1      -0.113  -0.463   0.102  0.00  0.00    +0.000 A 
ENDBRANCH   9  13
ENDBRANCH   1   9
BRANCH   4  16
ATOM     16  C   UNL     1       6.678  -0.908   4.788  0.00  0.00    +0.172 C 
BRANCH  16  17
ATOM     17  O   UNL     1       5.669  -1.561   5.561  0.00  0.00    -0.394 OA
ATOM     18  H   UNL     1       5.915  -1.707   6.485  0.00  0.00    +0.209 HD
ENDBRANCH  16  17
ENDBRANCH   4  16
BRANCH   3  19
ATOM     19  C   UNL     1       7.205  -2.844   2.764  0.00  0.00    +0.119 C 
BRANCH  19  20
ATOM     20  C   UNL     1       6.896  -4.264   2.364  0.00  0.00    -0.033 A 
ATOM     21  C   UNL     1       6.544  -5.192   3.325  0.00  0.00    +0.005 A 
ATOM     22  C   UNL     1       6.260  -6.494   2.958  0.00  0.00    +0.000 A 
ATOM     23  C   UNL     1       6.327  -6.867   1.629  0.00  0.00    +0.000 A 
ATOM     24  C   UNL     1       6.677  -5.939   0.667  0.00  0.00    +0.000 A 
ATOM     25  C   UNL     1       6.957  -4.636   1.034  0.00  0.00    +0.005 A 
ENDBRANCH  19  20
ENDBRANCH   3  19
TORSDOF 6
