REMARK  Name = ZINC45896357
REMARK  5 active torsions:
REMARK  status: ('A' for Active; 'I' for Inactive)
REMARK    1  A    between atoms: C_8  and  N_12
REMARK    2  A    between atoms: C_9  and  O_10
REMARK    3  A    between atoms: N_15  and  C_16
REMARK    4  A    between atoms: C_20  and  C_22
REMARK    5  A    between atoms: N_26  and  C_27
REMARK                            x       y       z     vdW  Elec       q    Type
REMARK                         _______ _______ _______ _____ _____    ______ ____
ROOT
ATOM      1  C   UNL     1       0.492   1.944  -1.627  0.00  0.00    +0.001 A 
ATOM      2  C   UNL     1       1.750   2.518  -1.526  0.00  0.00    +0.004 A 
ATOM      3  C   UNL     1       2.851   1.749  -1.212  0.00  0.00    +0.047 A 
ATOM      4  C   UNL     1       2.703   0.385  -0.992  0.00  0.00    +0.141 A 
ATOM      5  C   UNL     1       1.431  -0.193  -1.093  0.00  0.00    +0.042 A 
ATOM      6  C   UNL     1       0.327   0.592  -1.412  0.00  0.00    +0.013 A 
ATOM      7  C   UNL     1       1.297  -1.648  -0.855  0.00  0.00    +0.075 A 
ATOM      8  C   UNL     1       2.485  -2.368  -0.535  0.00  0.00    +0.140 A 
ATOM      9  C   UNL     1       3.665  -1.706  -0.464  0.00  0.00    +0.309 A 
ATOM     10  O   UNL     1       3.769  -0.385  -0.684  0.00  0.00    -0.424 OA
ATOM     11  N   UNL     1       0.130  -2.252  -0.935  0.00  0.00    -0.380 N 
ATOM     12  H   UNL     1       0.084  -3.186  -1.191  0.00  0.00    +0.160 HD
ENDROOT
BRANCH   8  13
ATOM     13  N   UNL     1       2.433  -3.756  -0.295  0.00  0.00    -0.262 N 
ATOM     14  C   UNL     1       1.689  -4.237   0.720  0.00  0.00    +0.308 C 
ATOM     15  O   UNL     1       1.002  -3.482   1.382  0.00  0.00    -0.252 OA
ATOM     16  N   UNL     1       1.707  -5.554   1.004  0.00  0.00    -0.269 N 
ATOM     17  H   UNL     1       2.932  -4.365  -0.862  0.00  0.00    +0.157 HD
ATOM     18  H   UNL     1       2.191  -6.168   0.429  0.00  0.00    +0.156 HD
BRANCH  16  19
ATOM     19  C   UNL     1       1.026  -6.038   2.126  0.00  0.00    +0.035 A 
ATOM     20  C   UNL     1       0.515  -7.330   2.128  0.00  0.00    +0.023 A 
ATOM     21  C   UNL     1      -0.156  -7.804   3.238  0.00  0.00    +0.002 A 
ATOM     22  C   UNL     1      -0.320  -6.994   4.347  0.00  0.00    +0.012 A 
ATOM     23  C   UNL     1       0.187  -5.708   4.349  0.00  0.00    +0.057 A 
ATOM     24  C   UNL     1       0.864  -5.229   3.244  0.00  0.00    +0.035 A 
BRANCH  23  25
ATOM     25  C   UNL     1       0.006  -4.829   5.559  0.00  0.00    +0.417 C 
ATOM     26  F   UNL     1      -0.699  -5.530   6.543  0.00  0.00    -0.166 F 
ATOM     27  F   UNL     1       1.260  -4.460   6.059  0.00  0.00    -0.166 F 
ATOM     28  F   UNL     1      -0.709  -3.682   5.200  0.00  0.00    -0.166 F 
ENDBRANCH  23  25
ENDBRANCH  16  19
ENDBRANCH   8  13
BRANCH  11  29
ATOM     29  C   UNL     1      -1.099  -1.513  -0.636  0.00  0.00    +0.079 C 
ATOM     30  C   UNL     1      -1.968  -2.311   0.358  0.00  0.00    +0.024 C 
ATOM     31  C   UNL     1      -3.420  -2.049  -0.112  0.00  0.00    +0.002 C 
ATOM     32  C   UNL     1      -3.286  -2.047  -1.655  0.00  0.00    +0.002 C 
ATOM     33  C   UNL     1      -1.937  -1.345  -1.916  0.00  0.00    +0.024 C 
ENDBRANCH  11  29
BRANCH   9  34
ATOM     34  O   UNL     1       4.784  -2.403  -0.160  0.00  0.00    -0.479 OA
ATOM     35  H   UNL     1       5.586  -1.865  -0.126  0.00  0.00    +0.295 HD
ENDBRANCH   9  34
TORSDOF 5
