REMARK  Name = ZINC65967887
REMARK  8 active torsions:
REMARK  status: ('A' for Active; 'I' for Inactive)
REMARK    1  A    between atoms: C_1  and  O_2
REMARK    2  A    between atoms: O_2  and  C_3
REMARK    3  A    between atoms: C_3  and  C_4
REMARK    4  A    between atoms: C_4  and  N_5
REMARK    5  A    between atoms: C_6  and  N_28
REMARK    6  A    between atoms: C_7  and  C_14
REMARK    7  A    between atoms: C_14  and  C_16
REMARK    8  A    between atoms: C_16  and  N_17
REMARK                            x       y       z     vdW  Elec       q    Type
REMARK                         _______ _______ _______ _____ _____    ______ ____
ROOT
ATOM      1  N   UNL     1      -0.630  -2.590   1.303  0.00  0.00    -0.279 N 
ATOM      2  C   UNL     1       0.732  -2.653   1.232  0.00  0.00    +0.116 A 
ATOM      3  C   UNL     1       1.455  -3.049   2.371  0.00  0.00    +0.118 A 
ATOM      4  C   UNL     1       0.697  -3.376   3.585  0.00  0.00    +0.266 A 
ATOM      5  O   UNL     1       1.271  -3.725   4.601  0.00  0.00    -0.267 OA
ATOM      6  N   UNL     1      -0.648  -3.283   3.552  0.00  0.00    -0.274 N 
ATOM      7  H   UNL     1      -1.162  -3.495   4.347  0.00  0.00    +0.173 HD
ATOM      8  C   UNL     1      -1.284  -2.893   2.436  0.00  0.00    +0.331 A 
ATOM      9  O   UNL     1      -2.497  -2.817   2.449  0.00  0.00    -0.246 OA
ENDROOT
BRANCH   2  10
ATOM     10  N   UNL     1       1.379  -2.338   0.077  0.00  0.00    -0.344 N 
ATOM     11  H   UNL     1       0.871  -2.143  -0.726  0.00  0.00    +0.144 HD
ATOM     12  H   UNL     1       2.349  -2.307   0.057  0.00  0.00    +0.144 HD
ENDBRANCH   2  10
BRANCH   3  13
ATOM     13  C   UNL     1       2.864  -3.130   2.347  0.00  0.00    +0.155 C 
ATOM     14  O   UNL     1       3.478  -2.754   1.369  0.00  0.00    -0.294 OA
BRANCH  13  15
ATOM     15  C   UNL     1       3.607  -3.682   3.536  0.00  0.00    +0.003 C 
BRANCH  15  16
ATOM     16  N   UNL     1       5.051  -3.660   3.265  0.00  0.00    +0.387 N 
ATOM     17  C   UNL     1       5.292  -4.435   2.084  0.00  0.00    -0.074 C 
ATOM     18  C   UNL     1       6.687  -4.955   1.927  0.00  0.00    -0.027 C 
ATOM     19  C   UNL     1       7.774  -3.968   2.294  0.00  0.00    +0.005 C 
ATOM     20  C   UNL     1       8.130  -3.964   3.771  0.00  0.00    -0.012 C 
ATOM     21  C   UNL     1       8.373  -5.386   4.280  0.00  0.00    +0.007 C 
ATOM     22  C   UNL     1       7.104  -6.203   4.029  0.00  0.00    -0.012 C 
ATOM     23  C   UNL     1       6.907  -6.331   2.515  0.00  0.00    +0.005 C 
ATOM     24  C   UNL     1       5.890  -5.559   4.663  0.00  0.00    -0.012 C 
ATOM     25  C   UNL     1       5.735  -4.081   4.459  0.00  0.00    -0.067 C 
ATOM     26  C   UNL     1       7.045  -3.316   4.624  0.00  0.00    -0.012 C 
ATOM     27  H   UNL     1       5.316  -2.706   3.072  0.00  0.00    -0.081 HD
ENDBRANCH  15  16
ENDBRANCH  13  15
ENDBRANCH   3  13
BRANCH   1  28
ATOM     28  C   UNL     1      -1.393  -2.178   0.122  0.00  0.00    +0.156 C 
BRANCH  28  29
ATOM     29  C   UNL     1      -1.567  -0.658   0.132  0.00  0.00    +0.181 C 
BRANCH  29  31
ATOM     30  C   UNL     1      -0.340   1.396  -0.007  0.00  0.00    +0.194 C 
ATOM     31  O   UNL     1      -0.290  -0.032  -0.005  0.00  0.00    -0.381 OA
ENDBRANCH  29  31
ENDBRANCH  28  29
ENDBRANCH   1  28
TORSDOF 7
