REMARK  Name = ZINC03326527
REMARK  10 active torsions:
REMARK  status: ('A' for Active; 'I' for Inactive)
REMARK    1  A    between atoms: C_1  and  C_2
REMARK    2  A    between atoms: C_2  and  C_4
REMARK    3  A    between atoms: C_2  and  N_48
REMARK    4  A    between atoms: C_11  and  C_12
REMARK    5  A    between atoms: C_11  and  N_48
REMARK    6  A    between atoms: N_14  and  C_15
REMARK    7  A    between atoms: C_18  and  C_21
REMARK    8  A    between atoms: C_21  and  C_22
REMARK    9  A    between atoms: C_21  and  C_23
REMARK   10  A    between atoms: C_21  and  C_24
REMARK                            x       y       z     vdW  Elec       q    Type
REMARK                         _______ _______ _______ _____ _____    ______ ____
ROOT
ATOM      1  C   UNL     1       2.410  -2.734  -0.137  0.00  0.00    +0.200 C 
ATOM      2  O   UNL     1       3.452  -2.114  -0.144  0.00  0.00    -0.278 OA
ATOM      3  N   UNL     1       1.237  -2.079  -0.020  0.00  0.00    -0.287 N 
ATOM      4  H   UNL     1       0.409  -2.578   0.062  0.00  0.00    +0.155 HD
ENDROOT
BRANCH   3   5
ATOM      5  C   UNL     1       1.214  -0.680  -0.019  0.00  0.00    +0.033 A 
ATOM      6  C   UNL     1       2.137   0.031  -0.774  0.00  0.00    +0.023 A 
ATOM      7  C   UNL     1       2.111   1.412  -0.771  0.00  0.00    +0.006 A 
ATOM      8  C   UNL     1       1.168   2.086  -0.017  0.00  0.00    -0.042 A 
ATOM      9  C   UNL     1       0.248   1.380   0.736  0.00  0.00    +0.006 A 
ATOM     10  C   UNL     1       0.268  -0.001   0.737  0.00  0.00    +0.023 A 
BRANCH   8  11
ATOM     11  C   UNL     1       1.143   3.593  -0.015  0.00  0.00    -0.013 C 
ATOM     12  C   UNL     1       0.910   4.100  -1.440  0.00  0.00    +0.015 C 
ATOM     13  C   UNL     1       0.013   4.083   0.892  0.00  0.00    +0.015 C 
ATOM     14  C   UNL     1       2.481   4.125   0.503  0.00  0.00    +0.015 C 
ENDBRANCH   8  11
ENDBRANCH   3   5
BRANCH   1  15
ATOM     15  C   UNL     1       2.425  -4.236  -0.258  0.00  0.00    +0.016 C 
BRANCH  15  16
ATOM     16  N   UNL     1       3.822  -4.697  -0.371  0.00  0.00    +0.389 N 
ATOM     17  H   UNL     1       4.251  -4.276  -1.203  0.00  0.00    -0.084 HD
ATOM     18  H   UNL     1       4.342  -4.410   0.466  0.00  0.00    -0.084 HD
BRANCH  16  20
ATOM     19  C   UNL     1       3.683  -6.566  -1.957  0.00  0.00    -0.009 C 
ATOM     20  C   UNL     1       3.867  -6.167  -0.492  0.00  0.00    -0.043 C 
BRANCH  20  21
ATOM     21  C   UNL     1       5.203  -6.662  -0.001  0.00  0.00    -0.061 A 
ATOM     22  C   UNL     1       6.355  -5.960  -0.306  0.00  0.00    +0.005 A 
ATOM     23  C   UNL     1       7.580  -6.410   0.148  0.00  0.00    +0.038 A 
ATOM     24  C   UNL     1       7.655  -7.571   0.899  0.00  0.00    +0.123 A 
ATOM     25  C   UNL     1       6.502  -8.276   1.200  0.00  0.00    +0.038 A 
ATOM     26  C   UNL     1       5.277  -7.821   0.750  0.00  0.00    +0.005 A 
ATOM     27  F   UNL     1       8.853  -8.015   1.338  0.00  0.00    -0.205 F 
ENDBRANCH  20  21
ENDBRANCH  16  20
ENDBRANCH  15  16
ENDBRANCH   1  15
TORSDOF 6
