REMARK  Name = ZINC39695628
REMARK  6 active torsions:
REMARK  status: ('A' for Active; 'I' for Inactive)
REMARK    1  A    between atoms: C_1  and  C_2
REMARK    2  A    between atoms: C_2  and  N_3
REMARK    3  A    between atoms: C_7  and  C_9
REMARK    4  A    between atoms: C_9  and  N_10
REMARK    5  A    between atoms: C_11  and  C_13
REMARK    6  A    between atoms: C_24  and  C_26
REMARK                            x       y       z     vdW  Elec       q    Type
REMARK                         _______ _______ _______ _____ _____    ______ ____
ROOT
ATOM      1  C   UNL     1       5.176  -0.213  -1.301  0.00  0.00    +0.100 C 
ATOM      2  C   UNL     1       4.795  -1.202  -2.425  0.00  0.00    +0.121 C 
ATOM      3  N   UNL     1       6.009  -1.294  -3.270  0.00  0.00    -0.300 N 
ATOM      4  C   UNL     1       7.133  -1.292  -2.303  0.00  0.00    +0.115 C 
ATOM      5  C   UNL     1       6.711  -0.275  -1.223  0.00  0.00    -0.004 C 
ATOM      6  C   UNL     1       7.311   1.095  -1.525  0.00  0.00    -0.010 C 
ATOM      7  C   UNL     1       8.835   1.021  -1.387  0.00  0.00    -0.082 C 
ATOM      8  N   UNL     1       9.184   0.601  -0.024  0.00  0.00    +0.379 N 
ATOM      9  C   UNL     1       8.682  -0.755   0.226  0.00  0.00    -0.082 C 
ATOM     10  C   UNL     1       7.152  -0.757   0.155  0.00  0.00    -0.010 C 
ATOM     11  C   UNL     1       6.077  -1.365  -4.614  0.00  0.00    +0.219 C 
ATOM     12  O   UNL     1       5.065  -1.276  -5.277  0.00  0.00    -0.275 OA
ATOM     13  H   UNL     1      10.187   0.612   0.083  0.00  0.00    -0.086 HD
ATOM     14  H   UNL     1       8.770   1.239   0.639  0.00  0.00    -0.086 HD
ENDROOT
BRANCH  11  15
ATOM     15  C   UNL     1       7.409  -1.553  -5.293  0.00  0.00    +0.079 C 
ATOM     16  C   UNL     1       7.343  -0.997  -6.721  0.00  0.00    +0.017 C 
ATOM     17  C   UNL     1       8.750  -1.038  -7.322  0.00  0.00    +0.027 C 
ATOM     18  C   UNL     1       9.358  -2.395  -7.120  0.00  0.00    -0.031 C 
ATOM     19  C   UNL     1       8.922  -3.266  -6.268  0.00  0.00    -0.030 C 
ATOM     20  C   UNL     1       7.743  -3.044  -5.365  0.00  0.00    +0.039 C 
ENDBRANCH  11  15
BRANCH   1  22
ATOM     21  N   UNL     1       4.275   0.271   0.951  0.00  0.00    -0.317 N 
ATOM     22  C   UNL     1       4.567  -0.646   0.008  0.00  0.00    +0.218 C 
ATOM     23  O   UNL     1       4.339  -1.819   0.212  0.00  0.00    -0.275 OA
ATOM     24  H   UNL     1       4.458   1.210   0.788  0.00  0.00    +0.149 HD
BRANCH  21  25
ATOM     25  C   UNL     1       3.683  -0.149   2.224  0.00  0.00    +0.089 C 
BRANCH  25  30
ATOM     26  N   UNL     1       4.715   1.821   3.272  0.00  0.00    +0.382 N 
ATOM     27  C   UNL     1       5.072   1.834   4.707  0.00  0.00    -0.078 C 
ATOM     28  C   UNL     1       3.728   1.632   5.451  0.00  0.00    -0.020 C 
ATOM     29  C   UNL     1       3.000   0.631   4.516  0.00  0.00    -0.016 C 
ATOM     30  C   UNL     1       3.453   1.077   3.109  0.00  0.00    -0.051 C 
ATOM     31  H   UNL     1       5.447   1.368   2.746  0.00  0.00    -0.081 HD
BRANCH  26  33
ATOM     32  C   UNL     1       5.883   3.931   2.849  0.00  0.00    -0.017 C 
ATOM     33  C   UNL     1       4.541   3.199   2.794  0.00  0.00    -0.082 C 
ENDBRANCH  26  33
ENDBRANCH  25  30
ENDBRANCH  21  25
ENDBRANCH   1  22
TORSDOF 5
