REMARK  Name = ZINC13479831
REMARK  6 active torsions:
REMARK  status: ('A' for Active; 'I' for Inactive)
REMARK    1  A    between atoms: C_3  and  C_6
REMARK    2  A    between atoms: C_6  and  N_33
REMARK    3  A    between atoms: C_7  and  C_8
REMARK    4  A    between atoms: C_7  and  N_33
REMARK    5  A    between atoms: N_10  and  C_11
REMARK    6  A    between atoms: C_15  and  C_17
REMARK                            x       y       z     vdW  Elec       q    Type
REMARK                         _______ _______ _______ _____ _____    ______ ____
ROOT
ATOM      1  C   UNL     1      -3.232   4.103  -2.828  0.00  0.00    +0.200 C 
ATOM      2  O   UNL     1      -2.710   3.497  -3.739  0.00  0.00    -0.278 OA
ATOM      3  N   UNL     1      -4.159   5.046  -3.089  0.00  0.00    -0.287 N 
ATOM      4  H   UNL     1      -4.632   5.476  -2.360  0.00  0.00    +0.155 HD
ENDROOT
BRANCH   3   5
ATOM      5  C   UNL     1      -4.440   5.403  -4.413  0.00  0.00    +0.034 A 
ATOM      6  C   UNL     1      -3.431   5.387  -5.367  0.00  0.00    +0.025 A 
ATOM      7  C   UNL     1      -3.712   5.735  -6.673  0.00  0.00    +0.022 A 
ATOM      8  C   UNL     1      -4.995   6.110  -7.030  0.00  0.00    +0.053 A 
ATOM      9  C   UNL     1      -6.002   6.133  -6.081  0.00  0.00    +0.075 A 
ATOM     10  C   UNL     1      -5.727   5.780  -4.774  0.00  0.00    +0.037 A 
ATOM     11 CL   UNL     1      -5.344   6.553  -8.672  0.00  0.00    -0.083 Cl
BRANCH   9  12
ATOM     12  C   UNL     1      -7.398   6.541  -6.473  0.00  0.00    +0.419 C 
ATOM     13  F   UNL     1      -8.232   6.486  -5.351  0.00  0.00    -0.166 F 
ATOM     14  F   UNL     1      -7.378   7.847  -6.975  0.00  0.00    -0.166 F 
ATOM     15  F   UNL     1      -7.880   5.671  -7.456  0.00  0.00    -0.166 F 
ENDBRANCH   9  12
ENDBRANCH   3   5
BRANCH   1  16
ATOM     16  C   UNL     1      -2.844   3.803  -1.403  0.00  0.00    +0.016 C 
BRANCH  16  17
ATOM     17  N   UNL     1      -1.819   2.741  -1.395  0.00  0.00    +0.388 N 
ATOM     18  H   UNL     1      -2.202   1.898  -1.837  0.00  0.00    -0.085 HD
ATOM     19  H   UNL     1      -0.997   3.060  -1.920  0.00  0.00    -0.085 HD
BRANCH  17  20
ATOM     20  C   UNL     1      -1.420   2.426  -0.010  0.00  0.00    -0.039 C 
BRANCH  20  23
ATOM     21  C   UNL     1       1.745   0.309  -0.116  0.00  0.00    +0.008 A 
ATOM     22  C   UNL     1       0.974   1.456  -0.103  0.00  0.00    +0.009 A 
ATOM     23  C   UNL     1      -0.375   1.341  -0.033  0.00  0.00    -0.027 A 
ATOM     24  S   UNL     1      -0.592  -0.430   0.018  0.00  0.00    -0.104 S 
ATOM     25  C   UNL     1       1.130  -0.897  -0.058  0.00  0.00    +0.045 A 
ENDBRANCH  20  23
ENDBRANCH  17  20
ENDBRANCH  16  17
ENDBRANCH   1  16
TORSDOF 6
