REMARK  Name = ZINC52907715
REMARK  8 active torsions:
REMARK  status: ('A' for Active; 'I' for Inactive)
REMARK    1  A    between atoms: C_1  and  C_2
REMARK    2  A    between atoms: C_2  and  C_3
REMARK    3  A    between atoms: C_2  and  N_4
REMARK    4  A    between atoms: C_7  and  C_10
REMARK    5  A    between atoms: C_10  and  N_11
REMARK    6  A    between atoms: N_11  and  C_12
REMARK    7  A    between atoms: C_17  and  C_18
REMARK    8  A    between atoms: C_18  and  N_20
REMARK                            x       y       z     vdW  Elec       q    Type
REMARK                         _______ _______ _______ _____ _____    ______ ____
ROOT
ATOM      1  N   UNL     1      -0.578  -2.251   5.444  0.00  0.00    -0.343 N 
ATOM      2  H   UNL     1      -0.900  -3.029   4.963  0.00  0.00    +0.146 HD
ENDROOT
BRANCH   1   3
ATOM      3  C   UNL     1      -0.500  -2.275   6.831  0.00  0.00    +0.038 A 
ATOM      4  C   UNL     1       0.065  -1.208   7.517  0.00  0.00    +0.024 A 
ATOM      5  C   UNL     1       0.143  -1.233   8.895  0.00  0.00    +0.003 A 
ATOM      6  C   UNL     1      -0.341  -2.319   9.605  0.00  0.00    +0.021 A 
ATOM      7  C   UNL     1      -0.907  -3.389   8.943  0.00  0.00    +0.052 A 
ATOM      8  C   UNL     1      -0.998  -3.375   7.547  0.00  0.00    +0.042 A 
ATOM      9 CL   UNL     1      -1.510  -4.747   9.841  0.00  0.00    -0.083 Cl
BRANCH   8  10
ATOM     10  C   UNL     1      -1.605  -4.510   6.833  0.00  0.00    +0.080 C 
ATOM     11  S   UNL     1      -3.263  -4.464   6.406  0.00  0.00    -0.035 S 
BRANCH  10  12
ATOM     12  N   UNL     1      -0.857  -5.585   6.516  0.00  0.00    -0.352 N 
ATOM     13  H   UNL     1       0.062  -5.644   6.822  0.00  0.00    +0.143 HD
ATOM     14  H   UNL     1      -1.238  -6.301   5.983  0.00  0.00    +0.143 HD
ENDBRANCH  10  12
ENDBRANCH   8  10
ENDBRANCH   1   3
BRANCH   1  15
ATOM     15  C   UNL     1      -0.174  -1.051   4.708  0.00  0.00    +0.103 C 
BRANCH  15  19
ATOM     16  N   UNL     1       0.758  -0.512   1.192  0.00  0.00    +0.381 N 
ATOM     17  C   UNL     1       0.773  -1.990   1.206  0.00  0.00    -0.078 C 
ATOM     18  C   UNL     1       0.627  -2.374   2.699  0.00  0.00    -0.015 C 
ATOM     19  C   UNL     1      -0.356  -1.287   3.207  0.00  0.00    -0.012 C 
ATOM     20  C   UNL     1       0.058  -0.038   2.400  0.00  0.00    -0.074 C 
ATOM     21  H   UNL     1       1.706  -0.165   1.191  0.00  0.00    -0.081 HD
BRANCH  16  23
ATOM     22  C   UNL     1       0.022   1.494  -0.004  0.00  0.00    -0.014 C 
ATOM     23  C   UNL     1       0.054  -0.035  -0.006  0.00  0.00    -0.075 C 
ATOM     24  C   UNL     1       0.784  -0.529  -1.256  0.00  0.00    -0.014 C 
ENDBRANCH  16  23
ENDBRANCH  15  19
ENDBRANCH   1  15
TORSDOF 6
