REMARK  Name = ZINC33521127
REMARK  5 active torsions:
REMARK  status: ('A' for Active; 'I' for Inactive)
REMARK    1  A    between atoms: C_6  and  N_10
REMARK    2  A    between atoms: C_7  and  C_8
REMARK    3  A    between atoms: C_11  and  C_13
REMARK    4  A    between atoms: C_13  and  C_14
REMARK    5  A    between atoms: C_14  and  N_15
REMARK                            x       y       z     vdW  Elec       q    Type
REMARK                         _______ _______ _______ _____ _____    ______ ____
ROOT
ATOM      1  C   UNL     1      -3.034   2.617  -7.764  0.00  0.00    +0.010 C 
ATOM      2  C   UNL     1      -1.598   2.168  -7.429  0.00  0.00    +0.037 C 
ATOM      3  C   UNL     1      -1.529   2.121  -5.902  0.00  0.00    -0.018 A 
ATOM      4  C   UNL     1      -2.561   2.830  -5.407  0.00  0.00    -0.004 A 
ATOM      5  S   UNL     1      -2.385   2.712  -3.644  0.00  0.00    -0.077 S 
ATOM      6  C   UNL     1      -0.960   1.732  -3.568  0.00  0.00    +0.090 A 
ATOM      7  C   UNL     1      -0.649   1.524  -4.899  0.00  0.00    +0.084 A 
ATOM      8  C   UNL     1      -3.418   3.414  -6.497  0.00  0.00    +0.043 C 
ENDROOT
BRANCH   6   9
ATOM      9  N   UNL     1      -0.288   1.272  -2.443  0.00  0.00    -0.279 N 
ATOM     10  C   UNL     1      -0.742   1.585  -1.213  0.00  0.00    +0.216 C 
ATOM     11  O   UNL     1      -1.736   2.268  -1.088  0.00  0.00    -0.276 OA
ATOM     12  H   UNL     1       0.614   0.653  -2.556  0.00  0.00    +0.155 HD
BRANCH  10  13
ATOM     13  C   UNL     1      -0.013   1.086   0.008  0.00  0.00    +0.077 C 
BRANCH  13  14
ATOM     14  C   UNL     1      -0.729   1.579   1.267  0.00  0.00    -0.077 C 
BRANCH  14  15
ATOM     15  N   UNL     1      -0.018   1.093   2.457  0.00  0.00    +0.378 N 
ATOM     16  H   UNL     1      -0.533   1.447   3.362  0.00  0.00    -0.090 HD
ATOM     17  H   UNL     1       1.014   1.473   2.449  0.00  0.00    -0.090 HD
ATOM     18  H   UNL     1      -0.004  -0.007   2.451  0.00  0.00    -0.090 HD
ENDBRANCH  14  15
ENDBRANCH  13  14
ENDBRANCH  10  13
ENDBRANCH   6   9
BRANCH   7  19
ATOM     19  C   UNL     1       0.492   0.748  -5.282  0.00  0.00    +0.102 C 
ATOM     20  N   UNL     1       1.397   0.132  -5.586  0.00  0.00    -0.191 NA
ENDBRANCH   7  19
TORSDOF 5
