REMARK  Name = ZINC35954557
REMARK  14 active torsions:
REMARK  status: ('A' for Active; 'I' for Inactive)
REMARK    1  A    between atoms: C_1  and  C_2
REMARK    2  A    between atoms: C_2  and  C_3
REMARK    3  A    between atoms: C_4  and  C_22
REMARK    4  A    between atoms: C_5  and  N_15
REMARK    5  A    between atoms: N_6  and  C_8
REMARK    6  A    between atoms: N_18  and  C_21
REMARK    7  A    between atoms: C_22  and  N_23
REMARK    8  A    between atoms: N_23  and  C_24
REMARK    9  A    between atoms: N_23  and  C_32
REMARK   10  A    between atoms: C_24  and  C_25
REMARK   11  A    between atoms: C_25  and  C_26
REMARK   12  A    between atoms: C_32  and  C_34
REMARK   13  A    between atoms: C_32  and  C_35
REMARK   14  A    between atoms: C_35  and  C_36
REMARK                            x       y       z     vdW  Elec       q    Type
REMARK                         _______ _______ _______ _____ _____    ______ ____
ROOT
ATOM      1  C   UNL     1      -2.431  -0.042  -0.725  0.00  0.00    +0.066 A 
ATOM      2  C   UNL     1      -1.575  -0.440  -1.755  0.00  0.00    -0.001 A 
ATOM      3  C   UNL     1      -0.540  -1.127  -1.197  0.00  0.00    +0.126 A 
ATOM      4  N   UNL     1      -0.748  -1.156   0.148  0.00  0.00    -0.218 N 
ATOM      5  N   UNL     1      -1.937  -0.463   0.412  0.00  0.00    -0.169 NA
ENDROOT
BRANCH   3   6
ATOM      6  N   UNL     1       0.533  -1.696  -1.877  0.00  0.00    -0.318 N 
ATOM      7  C   UNL     1       1.915  -1.484  -1.421  0.00  0.00    +0.088 C 
ATOM      8  C   UNL     1       2.609  -2.846  -1.323  0.00  0.00    -0.060 C 
ATOM      9  N   UNL     1       2.495  -3.547  -2.608  0.00  0.00    +0.380 N 
ATOM     10  C   UNL     1       1.085  -3.841  -2.894  0.00  0.00    -0.060 C 
ATOM     11  C   UNL     1       0.316  -2.532  -3.068  0.00  0.00    +0.088 C 
ATOM     12  C   UNL     1       3.253  -4.803  -2.548  0.00  0.00    -0.096 C 
ATOM     13  H   UNL     1       2.872  -2.965  -3.341  0.00  0.00    -0.082 HD
ENDBRANCH   3   6
BRANCH   4  14
ATOM     14  C   UNL     1       0.082  -1.766   1.099  0.00  0.00    +0.068 A 
ATOM     15  C   UNL     1       0.616  -3.023   0.852  0.00  0.00    +0.030 A 
ATOM     16  C   UNL     1       1.433  -3.622   1.790  0.00  0.00    +0.040 A 
ATOM     17  C   UNL     1       1.721  -2.969   2.977  0.00  0.00    +0.124 A 
ATOM     18  C   UNL     1       1.189  -1.714   3.226  0.00  0.00    +0.040 A 
ATOM     19  C   UNL     1       0.375  -1.110   2.288  0.00  0.00    +0.030 A 
ATOM     20  F   UNL     1       2.520  -3.556   3.894  0.00  0.00    -0.205 F 
ENDBRANCH   4  14
BRANCH   1  22
ATOM     21  C   UNL     1      -3.395   2.241  -0.816  0.00  0.00    +0.010 C 
ATOM     22  C   UNL     1      -3.705   0.745  -0.893  0.00  0.00    +0.054 C 
ENDBRANCH   1  22
BRANCH   2  23
ATOM     23  C   UNL     1      -1.763  -0.159  -3.224  0.00  0.00    -0.037 C 
BRANCH  23  24
ATOM     24  N   UNL     1      -1.426   1.244  -3.501  0.00  0.00    +0.384 N 
ATOM     25  H   UNL     1      -1.724   1.821  -2.728  0.00  0.00    -0.081 HD
BRANCH  24  26
ATOM     26  C   UNL     1       0.026   1.373  -3.677  0.00  0.00    -0.072 C 
ATOM     27  C   UNL     1       0.501   0.380  -4.740  0.00  0.00    -0.013 C 
BRANCH  26  28
ATOM     28  C   UNL     1       0.729   1.076  -2.351  0.00  0.00    -0.019 C 
ATOM     29  C   UNL     1       0.397   2.175  -1.340  0.00  0.00    +0.002 C 
ENDBRANCH  26  28
ENDBRANCH  24  26
BRANCH  24  30
ATOM     30  C   UNL     1      -2.109   1.679  -4.727  0.00  0.00    -0.073 C 
BRANCH  30  31
ATOM     31  C   UNL     1      -1.893   3.180  -4.926  0.00  0.00    +0.016 C 
BRANCH  31  32
ATOM     32  C   UNL     1      -2.703   3.652  -6.106  0.00  0.00    -0.049 A 
ATOM     33  C   UNL     1      -2.152   3.634  -7.374  0.00  0.00    +0.003 A 
ATOM     34  C   UNL     1      -2.894   4.067  -8.457  0.00  0.00    +0.000 A 
ATOM     35  C   UNL     1      -4.188   4.517  -8.272  0.00  0.00    +0.000 A 
ATOM     36  C   UNL     1      -4.740   4.534  -7.004  0.00  0.00    +0.000 A 
ATOM     37  C   UNL     1      -3.998   4.097  -5.922  0.00  0.00    +0.003 A 
ENDBRANCH  31  32
ENDBRANCH  30  31
ENDBRANCH  24  30
ENDBRANCH  23  24
ENDBRANCH   2  23
TORSDOF 10
