REMARK  Name = ZINC36550988
REMARK  6 active torsions:
REMARK  status: ('A' for Active; 'I' for Inactive)
REMARK    1  A    between atoms: C_1  and  C_2
REMARK    2  A    between atoms: C_2  and  N_3
REMARK    3  A    between atoms: C_14  and  C_16
REMARK    4  A    between atoms: C_27  and  S_32
REMARK    5  A    between atoms: S_32  and  N_35
REMARK    6  A    between atoms: N_38  and  C_41
REMARK                            x       y       z     vdW  Elec       q    Type
REMARK                         _______ _______ _______ _____ _____    ______ ____
ROOT
ATOM      1  C   UNL     1      -0.903  -1.842   6.430  0.00  0.00    +0.105 C 
ATOM      2  C   UNL     1      -0.970  -0.601   7.302  0.00  0.00    +0.029 C 
ATOM      3  C   UNL     1       0.268   0.305   7.328  0.00  0.00    +0.033 C 
ATOM      4  C   UNL     1      -0.357   1.674   7.604  0.00  0.00    -0.030 C 
ATOM      5  C   UNL     1      -1.613   1.694   7.175  0.00  0.00    -0.023 C 
ATOM      6  C   UNL     1      -1.948   0.368   6.570  0.00  0.00    +0.049 C 
ATOM      7  C   UNL     1      -3.301  -0.226   6.628  0.00  0.00    -0.018 A 
ATOM      8  C   UNL     1      -4.440   0.540   6.749  0.00  0.00    +0.034 A 
ATOM      9  C   UNL     1      -5.685  -0.061   6.785  0.00  0.00    +0.106 A 
ATOM     10  C   UNL     1      -5.790  -1.437   6.697  0.00  0.00    +0.030 A 
ATOM     11  C   UNL     1      -4.655  -2.213   6.581  0.00  0.00    +0.025 A 
ATOM     12  C   UNL     1      -3.399  -1.619   6.551  0.00  0.00    +0.031 A 
ATOM     13  N   UNL     1      -2.259  -2.433   6.467  0.00  0.00    -0.336 N 
ATOM     14  H   UNL     1      -2.359  -3.397   6.434  0.00  0.00    +0.147 HD
ENDROOT
BRANCH   1  26
ATOM     15  N   UNL     1       0.713  -0.457   1.198  0.00  0.00    -0.340 N 
ATOM     16  C   UNL     1       2.090  -0.525   1.313  0.00  0.00    +0.050 A 
ATOM     17  C   UNL     1       3.119  -0.299   0.404  0.00  0.00    +0.026 A 
ATOM     18  C   UNL     1       4.432  -0.442   0.797  0.00  0.00    +0.002 A 
ATOM     19  C   UNL     1       4.742  -0.810   2.098  0.00  0.00    +0.001 A 
ATOM     20  C   UNL     1       3.738  -1.039   3.013  0.00  0.00    +0.010 A 
ATOM     21  C   UNL     1       2.406  -0.898   2.628  0.00  0.00    +0.008 A 
ATOM     22  C   UNL     1       1.124  -1.061   3.337  0.00  0.00    +0.008 A 
ATOM     23  C   UNL     1       0.115  -0.771   2.405  0.00  0.00    +0.050 A 
ATOM     24  C   UNL     1      -1.217  -0.838   2.801  0.00  0.00    +0.027 A 
ATOM     25  C   UNL     1      -1.535  -1.183   4.097  0.00  0.00    +0.007 A 
ATOM     26  C   UNL     1      -0.537  -1.466   5.017  0.00  0.00    -0.026 A 
ATOM     27  C   UNL     1       0.788  -1.414   4.641  0.00  0.00    +0.016 A 
BRANCH  15  29
ATOM     28  C   UNL     1      -0.216   1.416  -0.070  0.00  0.00    +0.027 C 
ATOM     29  C   UNL     1      -0.008  -0.099  -0.026  0.00  0.00    +0.119 C 
ENDBRANCH  15  29
ENDBRANCH   1  26
BRANCH   9  30
ATOM     30  S   UNL     1      -7.136   0.925   6.943  0.00  0.00    +0.061 S 
ATOM     31  O   UNL     1      -8.139   0.087   7.501  0.00  0.00    -0.153 OA
ATOM     32  O   UNL     1      -6.735   2.143   7.555  0.00  0.00    -0.153 OA
BRANCH  30  33
ATOM     33  N   UNL     1      -7.637   1.308   5.412  0.00  0.00    -0.174 NA
ATOM     34  C   UNL     1      -7.149   2.521   4.739  0.00  0.00    +0.125 C 
ATOM     35  C   UNL     1      -6.623   2.132   3.354  0.00  0.00    +0.101 C 
ATOM     36  N   UNL     1      -7.665   1.395   2.627  0.00  0.00    -0.303 NA
ATOM     37  C   UNL     1      -7.999   0.135   3.305  0.00  0.00    +0.101 C 
ATOM     38  C   UNL     1      -8.577   0.440   4.686  0.00  0.00    +0.125 C 
ATOM     39  C   UNL     1      -7.264   1.152   1.234  0.00  0.00    +0.105 C 
ENDBRANCH  30  33
ENDBRANCH   9  30
TORSDOF 4
