REMARK  Name = ZINC39944132
REMARK  10 active torsions:
REMARK  status: ('A' for Active; 'I' for Inactive)
REMARK    1  A    between atoms: C_1  and  C_2
REMARK    2  A    between atoms: C_4  and  C_12
REMARK    3  A    between atoms: C_12  and  C_14
REMARK    4  A    between atoms: C_14  and  S_15
REMARK    5  A    between atoms: S_15  and  C_16
REMARK    6  A    between atoms: C_19  and  C_23
REMARK    7  A    between atoms: N_21  and  N_22
REMARK    8  A    between atoms: C_23  and  C_24
REMARK    9  A    between atoms: C_24  and  C_26
REMARK   10  A    between atoms: C_24  and  C_27
REMARK                            x       y       z     vdW  Elec       q    Type
REMARK                         _______ _______ _______ _____ _____    ______ ____
ROOT
ATOM      1  C   UNL     1       1.601  -1.439  -6.295  0.00  0.00    +0.189 C 
ATOM      2  N   UNL     1       2.629  -2.176  -6.043  0.00  0.00    -0.161 NA
ATOM      3  N   UNL     1       3.307  -2.531  -7.216  0.00  0.00    -0.245 N 
ATOM      4  C   UNL     1       2.562  -1.908  -8.324  0.00  0.00    +0.193 C 
ATOM      5  N   UNL     1       1.450  -1.210  -7.655  0.00  0.00    -0.225 N 
ATOM      6  H   UNL     1       4.106  -3.076  -7.285  0.00  0.00    +0.170 HD
ENDROOT
BRANCH   5   7
ATOM      7  N   UNL     1       0.466  -0.479  -8.256  0.00  0.00    -0.250 NA
ATOM      8  H   UNL     1      -0.174  -0.103  -7.572  0.00  0.00    +0.141 HD
ATOM      9  H   UNL     1       0.858   0.255  -8.827  0.00  0.00    +0.141 HD
ENDBRANCH   5   7
BRANCH   1  10
ATOM     10  S   UNL     1       0.513  -0.807  -5.062  0.00  0.00    -0.080 S 
BRANCH  10  11
ATOM     11  C   UNL     1       1.207  -1.427  -3.505  0.00  0.00    +0.156 C 
BRANCH  11  12
ATOM     12  C   UNL     1       0.360  -0.952  -2.353  0.00  0.00    +0.172 C 
ATOM     13  O   UNL     1      -0.617  -0.262  -2.562  0.00  0.00    -0.291 OA
BRANCH  12  16
ATOM     14  C   UNL     1      -0.042   0.595   0.398  0.00  0.00    +0.035 C 
ATOM     15  C   UNL     1      -0.027  -0.926   0.238  0.00  0.00    +0.111 C 
ATOM     16  C   UNL     1       0.702  -1.309  -1.031  0.00  0.00    +0.027 C 
ATOM     17  C   UNL     1       1.774  -2.083  -0.625  0.00  0.00    +0.006 A 
ATOM     18  C   UNL     1       2.814  -2.733  -1.330  0.00  0.00    +0.010 A 
ATOM     19  C   UNL     1       3.752  -3.441  -0.661  0.00  0.00    +0.001 A 
ATOM     20  C   UNL     1       3.747  -3.567   0.737  0.00  0.00    +0.002 A 
ATOM     21  C   UNL     1       2.799  -2.985   1.504  0.00  0.00    +0.026 A 
ATOM     22  C   UNL     1       1.738  -2.196   0.854  0.00  0.00    +0.043 A 
ATOM     23  N   UNL     1       0.720  -1.542   1.339  0.00  0.00    -0.377 N 
ATOM     24  H   UNL     1       0.492  -1.474   2.279  0.00  0.00    +0.160 HD
ENDBRANCH  12  16
ENDBRANCH  11  12
ENDBRANCH  10  11
ENDBRANCH   1  10
BRANCH   4  25
ATOM     25  C   UNL     1       2.026  -2.977  -9.278  0.00  0.00    +0.052 C 
BRANCH  25  26
ATOM     26  C   UNL     1       3.197  -3.736  -9.903  0.00  0.00    +0.019 C 
ATOM     27  C   UNL     1       2.662  -4.897 -10.745  0.00  0.00    +0.012 C 
BRANCH  26  28
ATOM     28  C   UNL     1       3.989  -2.803 -10.782  0.00  0.00    -0.044 A 
ATOM     29  C   UNL     1       3.379  -2.179 -11.854  0.00  0.00    +0.004 A 
ATOM     30  C   UNL     1       4.106  -1.322 -12.660  0.00  0.00    +0.000 A 
ATOM     31  C   UNL     1       5.442  -1.089 -12.394  0.00  0.00    +0.000 A 
ATOM     32  C   UNL     1       6.052  -1.712 -11.321  0.00  0.00    +0.000 A 
ATOM     33  C   UNL     1       5.324  -2.566 -10.513  0.00  0.00    +0.004 A 
ENDBRANCH  26  28
ENDBRANCH  25  26
ENDBRANCH   4  25
TORSDOF 8
