REMARK  Name = ZINC17297539
REMARK  11 active torsions:
REMARK  status: ('A' for Active; 'I' for Inactive)
REMARK    1  A    between atoms: C_1  and  C_2
REMARK    2  A    between atoms: C_2  and  O_3
REMARK    3  A    between atoms: O_3  and  C_4
REMARK    4  A    between atoms: C_4  and  C_6
REMARK    5  A    between atoms: C_10  and  N_11
REMARK    6  A    between atoms: C_12  and  C_14
REMARK    7  A    between atoms: C_17  and  S_20
REMARK    8  A    between atoms: S_20  and  N_23
REMARK    9  A    between atoms: C_25  and  C_32
REMARK   10  A    between atoms: C_28  and  C_31
REMARK   11  A    between atoms: N_34  and  C_37
REMARK                            x       y       z     vdW  Elec       q    Type
REMARK                         _______ _______ _______ _____ _____    ______ ____
ROOT
ATOM      1  N   UNL     1       3.745  -2.426   1.395  0.00  0.00    -0.275 N 
ATOM      2  C   UNL     1       5.048  -2.736   1.544  0.00  0.00    +0.249 C 
ATOM      3  O   UNL     1       5.447  -3.196   2.597  0.00  0.00    -0.270 OA
ATOM      4  H   UNL     1       3.427  -2.059   0.555  0.00  0.00    +0.156 HD
ENDROOT
BRANCH   1   9
ATOM      5  C   UNL     1       1.496  -2.371   2.467  0.00  0.00    +0.091 A 
ATOM      6  C   UNL     1       0.790  -2.682   3.694  0.00  0.00    -0.025 A 
ATOM      7  C   UNL     1       1.573  -3.188   4.674  0.00  0.00    -0.021 A 
ATOM      8  S   UNL     1       3.192  -3.244   3.968  0.00  0.00    -0.079 S 
ATOM      9  C   UNL     1       2.860  -2.630   2.440  0.00  0.00    +0.086 A 
ATOM     10  C   UNL     1       1.123  -3.594   6.042  0.00  0.00    -0.036 C 
ATOM     11  N   UNL     1      -0.208  -3.008   6.285  0.00  0.00    +0.381 N 
ATOM     12  C   UNL     1      -1.096  -3.317   5.156  0.00  0.00    -0.074 C 
ATOM     13  C   UNL     1      -0.701  -2.486   3.930  0.00  0.00    +0.018 C 
ATOM     14  C   UNL     1      -0.772  -3.571   7.519  0.00  0.00    -0.096 C 
ATOM     15  H   UNL     1      -0.123  -2.007   6.381  0.00  0.00    -0.082 HD
BRANCH   5  16
ATOM     16  C   UNL     1       0.801  -1.814   1.305  0.00  0.00    +0.342 C 
ATOM     17  O   UNL     1       0.321  -2.557   0.470  0.00  0.00    -0.245 OA
BRANCH  16  18
ATOM     18  O   UNL     1       0.693  -0.477   1.160  0.00  0.00    -0.461 OA
BRANCH  18  20
ATOM     19  C   UNL     1      -0.019   1.526   0.010  0.00  0.00    +0.048 C 
ATOM     20  C   UNL     1       0.002  -0.004   0.002  0.00  0.00    +0.229 C 
ENDBRANCH  18  20
ENDBRANCH  16  18
ENDBRANCH   5  16
ENDBRANCH   1   9
BRANCH   2  21
ATOM     21  C   UNL     1       5.992  -2.518   0.428  0.00  0.00    +0.037 A 
ATOM     22  C   UNL     1       5.539  -1.986  -0.780  0.00  0.00    +0.015 A 
ATOM     23  C   UNL     1       6.426  -1.785  -1.817  0.00  0.00    +0.029 A 
ATOM     24  C   UNL     1       7.762  -2.110  -1.662  0.00  0.00    +0.106 A 
ATOM     25  C   UNL     1       8.218  -2.638  -0.468  0.00  0.00    +0.029 A 
ATOM     26  C   UNL     1       7.343  -2.839   0.580  0.00  0.00    +0.015 A 
BRANCH  24  27
ATOM     27  S   UNL     1       8.888  -1.849  -2.992  0.00  0.00    +0.061 S 
ATOM     28  O   UNL     1       9.975  -2.740  -2.784  0.00  0.00    -0.153 OA
ATOM     29  O   UNL     1       8.116  -1.855  -4.185  0.00  0.00    -0.153 OA
BRANCH  27  30
ATOM     30  N   UNL     1       9.494  -0.317  -2.828  0.00  0.00    -0.176 NA
ATOM     31  C   UNL     1       8.821   0.826  -3.460  0.00  0.00    +0.112 C 
ATOM     32  C   UNL     1       8.550   1.891  -2.392  0.00  0.00    +0.002 C 
ATOM     33  C   UNL     1       9.861   2.245  -1.687  0.00  0.00    +0.009 C 
ATOM     34  C   UNL     1      10.423   1.000  -0.996  0.00  0.00    +0.002 C 
ATOM     35  C   UNL     1      10.712  -0.074  -2.043  0.00  0.00    +0.112 C 
ATOM     36  C   UNL     1      11.716   1.363  -0.263  0.00  0.00    +0.009 C 
ATOM     37  C   UNL     1       7.971   3.142  -3.054  0.00  0.00    +0.009 C 
ENDBRANCH  27  30
ENDBRANCH  24  27
ENDBRANCH   2  21
TORSDOF 7
