REMARK  Name = ZINC16192928
REMARK  9 active torsions:
REMARK  status: ('A' for Active; 'I' for Inactive)
REMARK    1  A    between atoms: C_1  and  C_2
REMARK    2  A    between atoms: C_2  and  O_3
REMARK    3  A    between atoms: O_3  and  C_4
REMARK    4  A    between atoms: C_4  and  C_6
REMARK    5  A    between atoms: C_9  and  N_12
REMARK    6  A    between atoms: C_13  and  C_15
REMARK    7  A    between atoms: C_19  and  N_20
REMARK    8  A    between atoms: C_21  and  C_23
REMARK    9  A    between atoms: C_23  and  N_61
REMARK                            x       y       z     vdW  Elec       q    Type
REMARK                         _______ _______ _______ _____ _____    ______ ____
ROOT
ATOM      1  C   UNL     1       2.407  -4.200  -0.256  0.00  0.00    +0.069 A 
ATOM      2  C   UNL     1       2.339  -4.855  -1.562  0.00  0.00    -0.023 A 
ATOM      3  C   UNL     1       2.361  -6.199  -1.528  0.00  0.00    -0.004 A 
ATOM      4  S   UNL     1       2.455  -6.607   0.198  0.00  0.00    -0.077 S 
ATOM      5  C   UNL     1       2.474  -5.010   0.865  0.00  0.00    +0.084 A 
ATOM      6  C   UNL     1       2.298  -6.799  -2.907  0.00  0.00    +0.043 C 
ATOM      7  C   UNL     1       2.672  -5.638  -3.854  0.00  0.00    +0.010 C 
ATOM      8  C   UNL     1       2.258  -4.408  -3.022  0.00  0.00    +0.037 C 
ENDROOT
BRANCH   1  10
ATOM      9  N   UNL     1       1.231  -2.078  -0.021  0.00  0.00    -0.281 N 
ATOM     10  C   UNL     1       2.400  -2.739  -0.137  0.00  0.00    +0.251 C 
ATOM     11  O   UNL     1       3.449  -2.122  -0.144  0.00  0.00    -0.270 OA
ATOM     12  H   UNL     1       0.401  -2.573   0.062  0.00  0.00    +0.155 HD
BRANCH   9  16
ATOM     13  C   UNL     1       1.184   2.086  -0.015  0.00  0.00    +0.059 A 
ATOM     14  C   UNL     1       2.128   1.397  -0.782  0.00  0.00    +0.017 A 
ATOM     15  C   UNL     1       2.141   0.021  -0.782  0.00  0.00    +0.024 A 
ATOM     16  C   UNL     1       1.215  -0.685  -0.019  0.00  0.00    +0.034 A 
ATOM     17  C   UNL     1       0.273  -0.002   0.745  0.00  0.00    +0.024 A 
ATOM     18  C   UNL     1       0.255   1.374   0.749  0.00  0.00    +0.017 A 
BRANCH  13  19
ATOM     19  C   UNL     1       1.168   3.560  -0.013  0.00  0.00    +0.339 C 
ATOM     20  O   UNL     1       1.976   4.178  -0.678  0.00  0.00    -0.245 OA
BRANCH  19  21
ATOM     21  O   UNL     1       0.257   4.223   0.726  0.00  0.00    -0.461 OA
BRANCH  21  23
ATOM     22  C   UNL     1      -0.801   6.245   1.576  0.00  0.00    +0.048 C 
ATOM     23  C   UNL     1       0.299   5.673   0.680  0.00  0.00    +0.229 C 
ENDBRANCH  21  23
ENDBRANCH  19  21
ENDBRANCH  13  19
ENDBRANCH   9  16
ENDBRANCH   1  10
BRANCH   5  24
ATOM     24  N   UNL     1       2.540  -4.634   2.198  0.00  0.00    -0.281 N 
ATOM     25  C   UNL     1       2.600  -5.574   3.162  0.00  0.00    +0.201 C 
ATOM     26  O   UNL     1       2.596  -6.750   2.863  0.00  0.00    -0.278 OA
ATOM     27  H   UNL     1       2.543  -3.693   2.437  0.00  0.00    +0.155 HD
BRANCH  25  28
ATOM     28  C   UNL     1       2.671  -5.165   4.610  0.00  0.00    +0.019 C 
BRANCH  28  34
ATOM     29  C   UNL     1       1.479  -7.132   5.365  0.00  0.00    -0.078 C 
ATOM     30  C   UNL     1       1.627  -8.443   6.140  0.00  0.00    -0.019 C 
ATOM     31  C   UNL     1       1.951  -8.132   7.603  0.00  0.00    -0.004 C 
ATOM     32  C   UNL     1       3.230  -7.292   7.667  0.00  0.00    -0.019 C 
ATOM     33  C   UNL     1       3.035  -6.014   6.848  0.00  0.00    -0.078 C 
ATOM     34  N   UNL     1       2.750  -6.382   5.445  0.00  0.00    +0.385 N 
ATOM     35  H   UNL     1       3.510  -6.977   5.095  0.00  0.00    -0.081 HD
ENDBRANCH  28  34
ENDBRANCH  25  28
ENDBRANCH   5  24
TORSDOF 8
