REMARK  Name = ZINC35309033
REMARK  6 active torsions:
REMARK  status: ('A' for Active; 'I' for Inactive)
REMARK    1  A    between atoms: C_1  and  C_2
REMARK    2  A    between atoms: C_2  and  C_4
REMARK    3  A    between atoms: C_2  and  S_15
REMARK    4  A    between atoms: N_6  and  C_7
REMARK    5  A    between atoms: C_12  and  N_13
REMARK    6  A    between atoms: S_15  and  C_18
REMARK                            x       y       z     vdW  Elec       q    Type
REMARK                         _______ _______ _______ _____ _____    ______ ____
ROOT
ATOM      1  C   UNL     1      -1.413  -0.522   0.012  0.00  0.00    +0.242 C 
ATOM      2  O   UNL     1      -1.926  -0.904  -1.018  0.00  0.00    -0.273 OA
ATOM      3  N   UNL     1      -2.103  -0.575   1.169  0.00  0.00    -0.282 N 
ATOM      4  H   UNL     1      -1.667  -0.346   2.005  0.00  0.00    +0.155 HD
ENDROOT
BRANCH   3   5
ATOM      5  C   UNL     1      -3.452  -0.961   1.163  0.00  0.00    +0.054 A 
ATOM      6  C   UNL     1      -4.217  -0.795   0.019  0.00  0.00    +0.028 A 
ATOM      7  C   UNL     1      -5.546  -1.175   0.015  0.00  0.00    +0.040 A 
ATOM      8  C   UNL     1      -6.117  -1.723   1.152  0.00  0.00    +0.125 A 
ATOM      9  C   UNL     1      -5.359  -1.892   2.298  0.00  0.00    +0.063 A 
ATOM     10  C   UNL     1      -4.024  -1.517   2.307  0.00  0.00    +0.049 A 
ATOM     11  F   UNL     1      -7.416  -2.093   1.142  0.00  0.00    -0.205 F 
BRANCH  10  12
ATOM     12  N   UNL     1      -3.254  -1.693   3.462  0.00  0.00    -0.356 N 
ATOM     13  H   UNL     1      -2.321  -1.427   3.468  0.00  0.00    +0.142 HD
ATOM     14  H   UNL     1      -3.653  -2.080   4.256  0.00  0.00    +0.142 HD
ENDBRANCH  10  12
ENDBRANCH   3   5
BRANCH   1  16
ATOM     15  C   UNL     1      -0.036   1.540   0.006  0.00  0.00    +0.042 C 
ATOM     16  C   UNL     1      -0.003   0.010   0.000  0.00  0.00    +0.219 C 
BRANCH  16  17
ATOM     17  S   UNL     1       0.850  -0.571  -1.492  0.00  0.00    +0.014 S 
ATOM     18  O   UNL     1       1.047  -1.976  -1.427  0.00  0.00    -0.168 OA
ATOM     19  O   UNL     1       0.279   0.028  -2.647  0.00  0.00    -0.168 OA
BRANCH  17  20
ATOM     20  C   UNL     1       2.469   0.116  -1.384  0.00  0.00    +0.126 A 
ATOM     21  C   UNL     1       3.583  -0.409  -0.816  0.00  0.00    +0.035 A 
ATOM     22  C   UNL     1       4.758   0.316  -0.851  0.00  0.00    +0.009 A 
ATOM     23  C   UNL     1       4.764   1.531  -1.452  0.00  0.00    +0.047 A 
ATOM     24  S   UNL     1       3.071   1.679  -2.001  0.00  0.00    -0.078 S 
ENDBRANCH  17  20
ENDBRANCH  16  17
ENDBRANCH   1  16
TORSDOF 5
