REMARK  Name = ZINC25355494
REMARK  9 active torsions:
REMARK  status: ('A' for Active; 'I' for Inactive)
REMARK    1  A    between atoms: C_1  and  O_2
REMARK    2  A    between atoms: O_2  and  C_3
REMARK    3  A    between atoms: C_6  and  N_9
REMARK    4  A    between atoms: N_9  and  S_10
REMARK    5  A    between atoms: S_10  and  C_13
REMARK    6  A    between atoms: C_16  and  N_22
REMARK    7  A    between atoms: C_17  and  N_19
REMARK    8  A    between atoms: N_22  and  N_23
REMARK    9  A    between atoms: N_23  and  C_24
REMARK                            x       y       z     vdW  Elec       q    Type
REMARK                         _______ _______ _______ _____ _____    ______ ____
ROOT
ATOM      1  C   UNL     1       2.365  -5.368  -2.808  0.00  0.00    +0.111 A 
ATOM      2  C   UNL     1       1.717  -5.349  -1.587  0.00  0.00    +0.031 A 
ATOM      3  C   UNL     1       0.683  -6.230  -1.338  0.00  0.00    +0.028 A 
ATOM      4  C   UNL     1       0.295  -7.137  -2.317  0.00  0.00    +0.075 A 
ATOM      5  C   UNL     1       0.949  -7.154  -3.542  0.00  0.00    +0.150 A 
ATOM      6  C   UNL     1       1.978  -6.265  -3.786  0.00  0.00    +0.063 A 
ENDROOT
BRANCH   1   7
ATOM      7  S   UNL     1       3.683  -4.240  -3.122  0.00  0.00    +0.072 S 
ATOM      8  O   UNL     1       4.407  -4.760  -4.228  0.00  0.00    -0.150 OA
ATOM      9  O   UNL     1       4.295  -3.973  -1.868  0.00  0.00    -0.150 OA
BRANCH   7  10
ATOM     10  N   UNL     1       3.001  -2.819  -3.628  0.00  0.00    -0.216 N 
ATOM     11  H   UNL     1       3.114  -2.012  -3.102  0.00  0.00    +0.174 HD
BRANCH  10  15
ATOM     12  C   UNL     1       0.798  -2.708  -7.166  0.00  0.00    +0.120 A 
ATOM     13  C   UNL     1       0.305  -2.097  -6.022  0.00  0.00    +0.047 A 
ATOM     14  C   UNL     1       1.034  -2.134  -4.850  0.00  0.00    +0.028 A 
ATOM     15  C   UNL     1       2.261  -2.782  -4.816  0.00  0.00    +0.048 A 
ATOM     16  C   UNL     1       2.755  -3.393  -5.961  0.00  0.00    +0.028 A 
ATOM     17  C   UNL     1       2.022  -3.360  -7.131  0.00  0.00    +0.047 A 
BRANCH  12  19
ATOM     18  C   UNL     1      -1.171  -1.982  -8.283  0.00  0.00    +0.277 C 
ATOM     19  O   UNL     1       0.080  -2.671  -8.320  0.00  0.00    -0.495 OA
ENDBRANCH  12  19
ENDBRANCH  10  15
ENDBRANCH   7  10
ENDBRANCH   1   7
BRANCH   5  20
ATOM     20  N   UNL     1       0.539  -8.118  -4.587  0.00  0.00    +0.058 N 
ATOM     21  O   UNL     1       0.217  -9.242  -4.280  0.00  0.00    -0.126 OA
ATOM     22  O   UNL     1       0.526  -7.782  -5.749  0.00  0.00    -0.126 OA
ENDBRANCH   5  20
BRANCH   4  23
ATOM     23  N   UNL     1      -0.749  -8.031  -2.068  0.00  0.00    -0.264 N 
ATOM     24  H   UNL     1      -1.072  -8.609  -2.777  0.00  0.00    +0.170 HD
BRANCH  23  25
ATOM     25  N   UNL     1      -1.331  -8.092  -0.795  0.00  0.00    -0.261 N 
ATOM     26  H   UNL     1      -1.069  -7.456  -0.111  0.00  0.00    +0.170 HD
BRANCH  25  27
ATOM     27  C   UNL     1      -2.245  -9.026  -0.523  0.00  0.00    +0.116 C 
ATOM     28  C   UNL     1      -2.665 -10.090  -1.358  0.00  0.00    +0.024 A 
ATOM     29  C   UNL     1      -2.302 -10.498  -2.647  0.00  0.00    +0.012 A 
ATOM     30  C   UNL     1      -2.906 -11.605  -3.210  0.00  0.00    +0.001 A 
ATOM     31  C   UNL     1      -3.867 -12.311  -2.505  0.00  0.00    +0.002 A 
ATOM     32  C   UNL     1      -4.241 -11.924  -1.228  0.00  0.00    +0.024 A 
ATOM     33  C   UNL     1      -3.650 -10.812  -0.634  0.00  0.00    +0.043 A 
ATOM     34  N   UNL     1      -3.835 -10.231   0.586  0.00  0.00    -0.280 N 
ATOM     35  C   UNL     1      -3.048  -9.182   0.740  0.00  0.00    +0.264 C 
ATOM     36  O   UNL     1      -2.986  -8.468   1.724  0.00  0.00    -0.268 OA
ATOM     37  H   UNL     1      -4.460 -10.550   1.255  0.00  0.00    +0.155 HD
ENDBRANCH  25  27
ENDBRANCH  23  25
ENDBRANCH   4  23
TORSDOF 8
