REMARK  Name = ZINC28911987
REMARK  6 active torsions:
REMARK  status: ('A' for Active; 'I' for Inactive)
REMARK    1  A    between atoms: C_3  and  S_24
REMARK    2  A    between atoms: C_6  and  N_7
REMARK    3  A    between atoms: C_8  and  C_10
REMARK    4  A    between atoms: C_10  and  C_22
REMARK    5  A    between atoms: C_11  and  C_12
REMARK    6  A    between atoms: S_24  and  N_27
REMARK                            x       y       z     vdW  Elec       q    Type
REMARK                         _______ _______ _______ _____ _____    ______ ____
ROOT
ATOM      1  N   UNL     1      -1.212  -0.718   0.027  0.00  0.00    -0.281 N 
ATOM      2  C   UNL     1      -1.190  -2.057  -0.126  0.00  0.00    +0.259 C 
ATOM      3  O   UNL     1      -0.128  -2.639  -0.239  0.00  0.00    -0.269 OA
ATOM      4  H   UNL     1      -2.052  -0.263   0.193  0.00  0.00    +0.155 HD
ENDROOT
BRANCH   1  10
ATOM      5  C   UNL     1       1.040  -0.465  -0.808  0.00  0.00    +0.025 A 
ATOM      6  C   UNL     1       2.212   0.260  -0.886  0.00  0.00    +0.030 A 
ATOM      7  C   UNL     1       2.329   1.463  -0.213  0.00  0.00    +0.105 A 
ATOM      8  C   UNL     1       1.272   1.943   0.539  0.00  0.00    +0.030 A 
ATOM      9  C   UNL     1       0.097   1.222   0.621  0.00  0.00    +0.025 A 
ATOM     10  C   UNL     1      -0.023   0.014  -0.054  0.00  0.00    +0.034 A 
BRANCH   7  11
ATOM     11  S   UNL     1       3.827   2.385  -0.315  0.00  0.00    +0.056 S 
ATOM     12  O   UNL     1       3.877   3.207   0.844  0.00  0.00    -0.153 OA
ATOM     13  O   UNL     1       4.854   1.458  -0.636  0.00  0.00    -0.153 OA
BRANCH  11  14
ATOM     14  N   UNL     1       3.687   3.405  -1.612  0.00  0.00    -0.204 NA
ATOM     15  H   UNL     1       2.877   3.404  -2.145  0.00  0.00    +0.144 HD
ATOM     16  H   UNL     1       4.416   4.004  -1.839  0.00  0.00    +0.144 HD
ENDBRANCH  11  14
ENDBRANCH   7  11
ENDBRANCH   1  10
BRANCH   2  17
ATOM     17  C   UNL     1      -2.451  -2.814  -0.157  0.00  0.00    +0.114 C 
ATOM     18  C   UNL     1      -2.429  -4.183  -0.314  0.00  0.00    +0.032 C 
BRANCH  18  19
ATOM     19  C   UNL     1      -3.678  -4.916  -0.526  0.00  0.00    -0.020 A 
ATOM     20  C   UNL     1      -4.773  -4.281  -1.130  0.00  0.00    +0.012 A 
ATOM     21  C   UNL     1      -5.946  -4.974  -1.325  0.00  0.00    +0.050 A 
ATOM     22  C   UNL     1      -6.051  -6.303  -0.928  0.00  0.00    +0.162 A 
ATOM     23  C   UNL     1      -4.966  -6.943  -0.330  0.00  0.00    +0.163 A 
ATOM     24  C   UNL     1      -3.784  -6.257  -0.132  0.00  0.00    +0.057 A 
ATOM     25  O   UNL     1      -5.053  -8.245   0.057  0.00  0.00    -0.485 OA
ATOM     26  C   UNL     1      -6.370  -8.794   0.177  0.00  0.00    +0.270 C 
ATOM     27  C   UNL     1      -7.173  -8.394  -1.068  0.00  0.00    +0.270 C 
ATOM     28  O   UNL     1      -7.222  -6.965  -1.129  0.00  0.00    -0.485 OA
ENDBRANCH  18  19
BRANCH  17  29
ATOM     29  C   UNL     1      -3.701  -2.129  -0.025  0.00  0.00    +0.104 C 
ATOM     30  N   UNL     1      -4.693  -1.585   0.081  0.00  0.00    -0.191 NA
ENDBRANCH  17  29
ENDBRANCH   2  17
TORSDOF 6
