REMARK  Name = ZINC32087358
REMARK  12 active torsions:
REMARK  status: ('A' for Active; 'I' for Inactive)
REMARK    1  A    between atoms: C_1  and  N_2
REMARK    2  A    between atoms: N_2  and  C_3
REMARK    3  A    between atoms: N_2  and  C_6
REMARK    4  A    between atoms: C_3  and  C_4
REMARK    5  A    between atoms: C_4  and  O_5
REMARK    6  A    between atoms: C_6  and  C_8
REMARK    7  A    between atoms: C_6  and  C_10
REMARK    8  A    between atoms: C_8  and  N_9
REMARK    9  A    between atoms: C_13  and  O_16
REMARK   10  A    between atoms: O_16  and  C_17
REMARK   11  A    between atoms: C_22  and  C_23
REMARK   12  A    between atoms: C_23  and  C_24
REMARK                            x       y       z     vdW  Elec       q    Type
REMARK                         _______ _______ _______ _____ _____    ______ ____
ROOT
ATOM      1  C   UNL     1       0.563   1.353   3.204  0.00  0.00    -0.032 A 
ATOM      2  C   UNL     1       1.793   1.927   3.469  0.00  0.00    +0.009 A 
ATOM      3  C   UNL     1       2.623   1.373   4.425  0.00  0.00    +0.046 A 
ATOM      4  C   UNL     1       2.227   0.234   5.110  0.00  0.00    +0.128 A 
ATOM      5  C   UNL     1       0.995  -0.343   4.838  0.00  0.00    +0.046 A 
ATOM      6  C   UNL     1       0.166   0.217   3.885  0.00  0.00    +0.009 A 
ENDROOT
BRANCH   1   7
ATOM      7  C   UNL     1      -0.343   1.962   2.164  0.00  0.00    +0.069 C 
BRANCH   7   9
ATOM      8  C   UNL     1      -0.578   3.864   3.644  0.00  0.00    +0.105 C 
ATOM      9  N   UNL     1      -0.294   3.426   2.271  0.00  0.00    -0.298 NA
BRANCH   9  10
ATOM     10  C   UNL     1      -1.218   4.054   1.317  0.00  0.00    +0.112 C 
BRANCH  10  11
ATOM     11  C   UNL     1      -0.868   5.536   1.166  0.00  0.00    +0.171 C 
BRANCH  11  12
ATOM     12  O   UNL     1       0.428   5.661   0.576  0.00  0.00    -0.394 OA
ATOM     13  H   UNL     1       0.853   6.658   0.389  0.00  0.00    +0.209 HD
ENDBRANCH  11  12
ENDBRANCH  10  11
ENDBRANCH   9  10
ENDBRANCH   7   9
BRANCH   7  14
ATOM     14  C   UNL     1       0.122   1.536   0.770  0.00  0.00    -0.063 C 
BRANCH  14  15
ATOM     15  N   UNL     1       0.002   0.078   0.638  0.00  0.00    +0.379 N 
ATOM     16  H   UNL     1       0.336  -0.228  -0.364  0.00  0.00    -0.090 HD
ATOM     17  H   UNL     1      -1.048  -0.218   0.781  0.00  0.00    -0.090 HD
ATOM     18  H   UNL     1       0.628  -0.412   1.399  0.00  0.00    -0.090 HD
ENDBRANCH  14  15
ENDBRANCH   7  14
ENDBRANCH   1   7
BRANCH   4  19
ATOM     19  O   UNL     1       3.044  -0.316   6.046  0.00  0.00    -0.456 OA
BRANCH  19  20
ATOM     20  C   UNL     1       4.281   0.222   6.208  0.00  0.00    +0.132 A 
ATOM     21  C   UNL     1       5.366  -0.313   5.527  0.00  0.00    +0.046 A 
ATOM     22  C   UNL     1       6.622   0.239   5.689  0.00  0.00    +0.004 A 
ATOM     23  C   UNL     1       6.800   1.317   6.537  0.00  0.00    +0.001 A 
ATOM     24  C   UNL     1       5.722   1.847   7.221  0.00  0.00    +0.007 A 
ATOM     25  C   UNL     1       4.463   1.302   7.058  0.00  0.00    -0.001 A 
BRANCH  25  26
ATOM     26  C   UNL     1       3.289   1.882   7.804  0.00  0.00    +0.065 C 
BRANCH  26  27
ATOM     27  C   UNL     1       3.067   1.104   9.075  0.00  0.00    -0.030 C 
ATOM     28  C   UNL     1       3.038   1.726  10.227  0.00  0.00    +0.004 C 
ENDBRANCH  26  27
ENDBRANCH  25  26
ENDBRANCH  19  20
ENDBRANCH   4  19
TORSDOF 11
