REMARK  Name = ZINC24985846
REMARK  6 active torsions:
REMARK  status: ('A' for Active; 'I' for Inactive)
REMARK    1  A    between atoms: C_1  and  C_2
REMARK    2  A    between atoms: C_2  and  C_4
REMARK    3  A    between atoms: C_2  and  N_11
REMARK    4  A    between atoms: N_11  and  C_12
REMARK    5  A    between atoms: C_12  and  C_13
REMARK    6  A    between atoms: C_17  and  C_26
REMARK                            x       y       z     vdW  Elec       q    Type
REMARK                         _______ _______ _______ _____ _____    ______ ____
ROOT
ATOM      1  C   UNL     1      -3.206  -2.368  -1.514  0.00  0.00    +0.203 C 
ATOM      2  O   UNL     1      -2.071  -2.796  -1.492  0.00  0.00    -0.277 OA
ATOM      3  N   UNL     1      -4.207  -3.137  -1.985  0.00  0.00    -0.266 N 
ATOM      4  C   UNL     1      -5.572  -2.604  -2.136  0.00  0.00    +0.168 C 
ATOM      5  C   UNL     1      -6.121  -3.120  -3.479  0.00  0.00    +0.276 C 
ATOM      6  O   UNL     1      -6.100  -4.549  -3.463  0.00  0.00    -0.476 OA
ATOM      7  C   UNL     1      -4.947  -5.162  -3.086  0.00  0.00    +0.143 A 
ATOM      8  C   UNL     1      -3.986  -4.478  -2.344  0.00  0.00    +0.078 A 
ATOM      9  C   UNL     1      -2.818  -5.117  -1.961  0.00  0.00    +0.027 A 
ATOM     10  C   UNL     1      -2.604  -6.435  -2.320  0.00  0.00    +0.002 A 
ATOM     11  C   UNL     1      -3.555  -7.115  -3.057  0.00  0.00    +0.004 A 
ATOM     12  C   UNL     1      -4.724  -6.483  -3.441  0.00  0.00    +0.047 A 
ENDROOT
BRANCH   5  13
ATOM     13  C   UNL     1      -7.537  -2.637  -3.663  0.00  0.00    +0.253 C 
ATOM     14  O   UNL     1      -8.451  -3.434  -3.680  0.00  0.00    -0.272 OA
ATOM     15  N   UNL     1      -7.786  -1.321  -3.809  0.00  0.00    -0.326 N 
ATOM     16  H   UNL     1      -8.820  -0.969  -3.943  0.00  0.00    +0.145 HD
ATOM     17  H   UNL     1      -6.957  -0.599  -3.793  0.00  0.00    +0.145 HD
ENDBRANCH   5  13
BRANCH   1  18
ATOM     18  C   UNL     1      -3.496  -0.976  -1.015  0.00  0.00    +0.016 C 
BRANCH  18  19
ATOM     19  N   UNL     1      -2.274  -0.396  -0.442  0.00  0.00    +0.389 N 
ATOM     20  H   UNL     1      -1.499  -0.367  -1.221  0.00  0.00    -0.084 HD
ATOM     21  H   UNL     1      -1.936  -1.035   0.388  0.00  0.00    -0.084 HD
BRANCH  19  23
ATOM     22  C   UNL     1      -3.075   0.892   1.480  0.00  0.00    -0.009 C 
ATOM     23  C   UNL     1      -2.520   0.963   0.057  0.00  0.00    -0.042 C 
BRANCH  23  24
ATOM     24  C   UNL     1      -1.227   1.738   0.060  0.00  0.00    -0.043 A 
ATOM     25  C   UNL     1      -0.019   1.068   0.040  0.00  0.00    +0.003 A 
ATOM     26  C   UNL     1       1.167   1.778   0.037  0.00  0.00    +0.000 A 
ATOM     27  C   UNL     1       1.144   3.161   0.060  0.00  0.00    +0.001 A 
ATOM     28  C   UNL     1      -0.063   3.832   0.086  0.00  0.00    +0.020 A 
ATOM     29  C   UNL     1      -1.250   3.121   0.089  0.00  0.00    +0.043 A 
ATOM     30 CL   UNL     1      -2.767   3.964   0.122  0.00  0.00    -0.083 Cl
ENDBRANCH  23  24
ENDBRANCH  19  23
ENDBRANCH  18  19
ENDBRANCH   1  18
TORSDOF 5
