REMARK  Name = ZINC67018224
REMARK  6 active torsions:
REMARK  status: ('A' for Active; 'I' for Inactive)
REMARK    1  A    between atoms: C_3  and  O_23
REMARK    2  A    between atoms: C_6  and  N_7
REMARK    3  A    between atoms: N_7  and  N_8
REMARK    4  A    between atoms: N_11  and  C_12
REMARK    5  A    between atoms: O_23  and  C_24
REMARK    6  A    between atoms: C_24  and  C_25
REMARK                            x       y       z     vdW  Elec       q    Type
REMARK                         _______ _______ _______ _____ _____    ______ ____
ROOT
ATOM      1  N   UNL     1      -1.180  -2.122   0.010  0.00  0.00    -0.220 N 
ATOM      2  C   UNL     1      -2.338  -2.812   0.011  0.00  0.00    +0.320 C 
ATOM      3  O   UNL     1      -2.321  -4.027   0.000  0.00  0.00    -0.251 OA
ATOM      4  N   UNL     1      -3.514  -2.154   0.025  0.00  0.00    -0.267 N 
ATOM      5  H   UNL     1      -0.334  -2.595  -0.000  0.00  0.00    +0.174 HD
ATOM      6  H   UNL     1      -3.529  -1.187   0.103  0.00  0.00    +0.156 HD
ENDROOT
BRANCH   4   7
ATOM      7  C   UNL     1      -4.718  -2.867  -0.072  0.00  0.00    +0.051 A 
ATOM      8  C   UNL     1      -4.843  -4.124   0.518  0.00  0.00    +0.028 A 
ATOM      9  C   UNL     1      -6.047  -4.792   0.397  0.00  0.00    +0.043 A 
ATOM     10  C   UNL     1      -7.088  -4.192  -0.306  0.00  0.00    +0.099 A 
ATOM     11  N   UNL     1      -6.933  -2.997  -0.854  0.00  0.00    -0.348 N 
ATOM     12  C   UNL     1      -5.799  -2.329  -0.752  0.00  0.00    +0.107 A 
ATOM     13  N   UNL     1      -8.305  -4.856  -0.434  0.00  0.00    -0.317 N 
ATOM     14  C   UNL     1      -8.622  -6.178   0.124  0.00  0.00    +0.106 C 
ATOM     15  C   UNL     1     -10.069  -6.516  -0.292  0.00  0.00    +0.020 C 
ATOM     16  C   UNL     1     -10.292  -5.615  -1.536  0.00  0.00    +0.020 C 
ATOM     17  C   UNL     1      -9.491  -4.346  -1.146  0.00  0.00    +0.106 C 
ATOM     18  H   UNL     1      -7.673  -2.600  -1.339  0.00  0.00    +0.167 HD
ENDBRANCH   4   7
BRANCH   1  19
ATOM     19  N   UNL     1      -1.200  -0.721   0.022  0.00  0.00    -0.263 N 
ATOM     20  H   UNL     1      -2.046  -0.248   0.033  0.00  0.00    +0.170 HD
BRANCH  19  26
ATOM     21  C   UNL     1      -0.016   1.384   0.033  0.00  0.00    +0.028 A 
ATOM     22  C   UNL     1       1.171   2.090   0.032  0.00  0.00    +0.047 A 
ATOM     23  C   UNL     1       2.381   1.413   0.018  0.00  0.00    +0.121 A 
ATOM     24  C   UNL     1       2.401   0.026   0.005  0.00  0.00    +0.047 A 
ATOM     25  C   UNL     1       1.215  -0.682   0.006  0.00  0.00    +0.028 A 
ATOM     26  C   UNL     1       0.002  -0.004   0.021  0.00  0.00    +0.045 A 
BRANCH  23  27
ATOM     27  O   UNL     1       3.549   2.109   0.015  0.00  0.00    -0.483 OA
BRANCH  27  28
ATOM     28  C   UNL     1       4.758   1.348   0.000  0.00  0.00    +0.342 C 
BRANCH  28  29
ATOM     29  C   UNL     1       5.959   2.296   0.000  0.00  0.00    +0.424 C 
ATOM     30  F   UNL     1       5.924   3.093   1.150  0.00  0.00    -0.167 F 
ATOM     31  F   UNL     1       7.142   1.551  -0.015  0.00  0.00    -0.167 F 
ATOM     32  F   UNL     1       5.908   3.113  -1.135  0.00  0.00    -0.167 F 
ENDBRANCH  28  29
ENDBRANCH  27  28
ENDBRANCH  23  27
ENDBRANCH  19  26
ENDBRANCH   1  19
TORSDOF 6
