REMARK  Name = ZINC39666780
REMARK  9 active torsions:
REMARK  status: ('A' for Active; 'I' for Inactive)
REMARK    1  A    between atoms: C_1  and  C_2
REMARK    2  A    between atoms: C_2  and  C_3
REMARK    3  A    between atoms: C_3  and  C_4
REMARK    4  A    between atoms: C_3  and  C_6
REMARK    5  A    between atoms: C_4  and  C_5
REMARK    6  A    between atoms: C_6  and  N_7
REMARK    7  A    between atoms: C_8  and  C_10
REMARK    8  A    between atoms: C_21  and  C_23
REMARK    9  A    between atoms: C_23  and  C_29
REMARK                            x       y       z     vdW  Elec       q    Type
REMARK                         _______ _______ _______ _____ _____    ______ ____
ROOT
ATOM      1  C   UNL     1      -3.439  -4.483  -0.384  0.00  0.00    +0.100 C 
ATOM      2  C   UNL     1      -3.735  -3.923  -1.793  0.00  0.00    +0.121 C 
ATOM      3  N   UNL     1      -3.439  -5.047  -2.712  0.00  0.00    -0.300 N 
ATOM      4  C   UNL     1      -3.950  -6.245  -2.005  0.00  0.00    +0.115 C 
ATOM      5  C   UNL     1      -3.585  -6.007  -0.526  0.00  0.00    -0.004 C 
ATOM      6  C   UNL     1      -2.266  -6.697  -0.191  0.00  0.00    -0.010 C 
ATOM      7  C   UNL     1      -2.451  -8.214  -0.285  0.00  0.00    -0.082 C 
ATOM      8  N   UNL     1      -3.500  -8.639   0.650  0.00  0.00    +0.379 N 
ATOM      9  C   UNL     1      -4.785  -8.043   0.266  0.00  0.00    -0.082 C 
ATOM     10  C   UNL     1      -4.699  -6.519   0.382  0.00  0.00    -0.010 C 
ATOM     11  C   UNL     1      -2.841  -4.992  -3.919  0.00  0.00    +0.222 C 
ATOM     12  O   UNL     1      -2.413  -3.937  -4.336  0.00  0.00    -0.275 OA
ATOM     13  H   UNL     1      -3.578  -9.645   0.631  0.00  0.00    -0.086 HD
ATOM     14  H   UNL     1      -3.258  -8.341   1.583  0.00  0.00    -0.086 HD
ENDROOT
BRANCH  11  15
ATOM     15  C   UNL     1      -2.705  -6.242  -4.750  0.00  0.00    +0.044 C 
ATOM     16  C   UNL     1      -1.757  -7.218  -4.051  0.00  0.00    +0.016 C 
ATOM     17  C   UNL     1      -0.384  -6.564  -3.884  0.00  0.00    +0.001 C 
ATOM     18  C   UNL     1       0.180  -6.203  -5.260  0.00  0.00    +0.000 C 
ATOM     19  C   UNL     1      -0.769  -5.227  -5.959  0.00  0.00    +0.001 C 
ATOM     20  C   UNL     1      -2.142  -5.881  -6.126  0.00  0.00    +0.016 C 
ATOM     21  C   UNL     1      -4.078  -6.896  -4.916  0.00  0.00    +0.021 C 
ENDBRANCH  11  15
BRANCH   1  23
ATOM     22  N   UNL     1      -1.712  -4.109   1.347  0.00  0.00    -0.315 N 
ATOM     23  C   UNL     1      -2.037  -4.127   0.039  0.00  0.00    +0.218 C 
ATOM     24  O   UNL     1      -1.202  -3.856  -0.797  0.00  0.00    -0.275 OA
ATOM     25  H   UNL     1      -2.380  -4.326   2.016  0.00  0.00    +0.149 HD
BRANCH  22  26
ATOM     26  C   UNL     1      -0.349  -3.763   1.758  0.00  0.00    +0.107 C 
BRANCH  26  27
ATOM     27  C   UNL     1      -0.247  -3.818   3.284  0.00  0.00    +0.006 C 
BRANCH  27  29
ATOM     28  C   UNL     1      -0.495  -5.290   5.287  0.00  0.00    +0.004 C 
ATOM     29  C   UNL     1      -0.460  -5.257   3.758  0.00  0.00    +0.002 C 
ENDBRANCH  27  29
BRANCH  27  30
ATOM     30  C   UNL     1       1.138  -3.336   3.720  0.00  0.00    +0.002 C 
ATOM     31  C   UNL     1       1.300  -1.857   3.363  0.00  0.00    +0.004 C 
ENDBRANCH  27  30
ENDBRANCH  26  27
ENDBRANCH  22  26
ENDBRANCH   1  23
TORSDOF 6
