REMARK  Name = ZINC05945298
REMARK  10 active torsions:
REMARK  status: ('A' for Active; 'I' for Inactive)
REMARK    1  A    between atoms: C_1  and  C_2
REMARK    2  A    between atoms: C_2  and  C_27
REMARK    3  A    between atoms: C_4  and  N_10
REMARK    4  A    between atoms: C_6  and  C_8
REMARK    5  A    between atoms: C_6  and  C_9
REMARK    6  A    between atoms: N_10  and  C_11
REMARK    7  A    between atoms: N_10  and  C_18
REMARK    8  A    between atoms: C_11  and  C_12
REMARK    9  A    between atoms: C_18  and  N_20
REMARK   10  A    between atoms: N_20  and  C_21
REMARK                            x       y       z     vdW  Elec       q    Type
REMARK                         _______ _______ _______ _____ _____    ______ ____
ROOT
ATOM      1  N   UNL     1      -2.931  -1.011   0.805  0.00  0.00    -0.305 N 
ENDROOT
BRANCH   1   5
ATOM      2  C   UNL     1       0.712  -1.850   3.135  0.00  0.00    -0.010 C 
ATOM      3  C   UNL     1       0.057  -0.466   3.080  0.00  0.00    -0.072 C 
ATOM      4  C   UNL     1      -1.406  -0.603   2.671  0.00  0.00    +0.009 C 
ATOM      5  C   UNL     1      -1.514  -0.915   1.178  0.00  0.00    +0.073 C 
ATOM      6  C   UNL     1      -0.865   0.232   0.403  0.00  0.00    +0.009 C 
ATOM      7  C   UNL     1       0.602   0.376   0.795  0.00  0.00    -0.072 C 
ATOM      8  N   UNL     1       0.809   0.441   2.231  0.00  0.00    +0.386 N 
ATOM      9  C   UNL     1       1.115   1.700   0.185  0.00  0.00    -0.010 C 
ATOM     10  C   UNL     1       1.420  -0.756   0.165  0.00  0.00    -0.010 C 
ATOM     11  C   UNL     1       0.083   0.105   4.517  0.00  0.00    -0.010 C 
ATOM     12  H   UNL     1       0.619   1.400   2.539  0.00  0.00    -0.084 HD
ATOM     13  H   UNL     1       1.807   0.302   2.418  0.00  0.00    -0.084 HD
ENDBRANCH   1   5
BRANCH   1  14
ATOM     14  C   UNL     1      -3.406  -2.144   0.251  0.00  0.00    +0.138 C 
ATOM     15  S   UNL     1      -5.037  -2.225  -0.266  0.00  0.00    -0.018 S 
BRANCH  14  16
ATOM     16  N   UNL     1      -2.599  -3.213   0.103  0.00  0.00    -0.297 N 
ATOM     17  H   UNL     1      -2.724  -3.996   0.661  0.00  0.00    +0.154 HD
BRANCH  16  18
ATOM     18  C   UNL     1      -1.579  -3.192  -0.854  0.00  0.00    +0.033 A 
ATOM     19  C   UNL     1      -1.416  -2.082  -1.673  0.00  0.00    +0.023 A 
ATOM     20  C   UNL     1      -0.408  -2.064  -2.617  0.00  0.00    +0.002 A 
ATOM     21  C   UNL     1       0.438  -3.150  -2.748  0.00  0.00    +0.000 A 
ATOM     22  C   UNL     1       0.279  -4.257  -1.934  0.00  0.00    +0.002 A 
ATOM     23  C   UNL     1      -0.724  -4.278  -0.984  0.00  0.00    +0.023 A 
ENDBRANCH  16  18
ENDBRANCH  14  16
ENDBRANCH   1  14
BRANCH   1  24
ATOM     24  C   UNL     1      -3.828   0.124   1.036  0.00  0.00    +0.142 C 
BRANCH  24  25
ATOM     25  C   UNL     1      -3.870   0.989  -0.197  0.00  0.00    -0.030 A 
ATOM     26  C   UNL     1      -3.072   2.115  -0.280  0.00  0.00    +0.005 A 
ATOM     27  C   UNL     1      -3.112   2.908  -1.411  0.00  0.00    +0.000 A 
ATOM     28  C   UNL     1      -3.949   2.575  -2.460  0.00  0.00    +0.000 A 
ATOM     29  C   UNL     1      -4.747   1.449  -2.377  0.00  0.00    +0.000 A 
ATOM     30  C   UNL     1      -4.704   0.654  -1.248  0.00  0.00    +0.005 A 
ENDBRANCH  24  25
ENDBRANCH   1  24
TORSDOF 6
