REMARK  Name = ZINC08836141
REMARK  11 active torsions:
REMARK  status: ('A' for Active; 'I' for Inactive)
REMARK    1  A    between atoms: C_1  and  C_2
REMARK    2  A    between atoms: C_2  and  N_3
REMARK    3  A    between atoms: N_3  and  C_4
REMARK    4  A    between atoms: N_3  and  C_6
REMARK    5  A    between atoms: C_4  and  C_5
REMARK    6  A    between atoms: C_9  and  C_12
REMARK    7  A    between atoms: C_21  and  C_28
REMARK    8  A    between atoms: C_23  and  C_24
REMARK    9  A    between atoms: C_23  and  N_63
REMARK   10  A    between atoms: C_24  and  O_26
REMARK   11  A    between atoms: O_26  and  C_27
REMARK                            x       y       z     vdW  Elec       q    Type
REMARK                         _______ _______ _______ _____ _____    ______ ____
ROOT
ATOM      1  C   UNL     1      -0.978  -1.976  -0.867  0.00  0.00    +0.049 C 
ATOM      2  N   UNL     1      -1.408  -2.388   0.478  0.00  0.00    -0.353 N 
ATOM      3  C   UNL     1      -0.910  -1.678   1.578  0.00  0.00    +0.028 A 
ATOM      4  C   UNL     1      -1.070  -2.186   2.860  0.00  0.00    +0.024 A 
ATOM      5  C   UNL     1      -0.585  -1.482   3.945  0.00  0.00    +0.017 A 
ATOM      6  C   UNL     1       0.060  -0.273   3.751  0.00  0.00    +0.018 A 
ATOM      7  C   UNL     1       0.221   0.234   2.474  0.00  0.00    +0.019 A 
ATOM      8  C   UNL     1      -0.262  -0.466   1.383  0.00  0.00    -0.035 A 
ATOM      9  C   UNL     1      -0.078   0.097  -0.001  0.00  0.00    -0.001 C 
ATOM     10 BR   UNL     1       0.723   0.690   5.237  0.00  0.00    -0.050 Br
ATOM     11  H   UNL     1      -2.019  -3.131   0.600  0.00  0.00    +0.145 HD
ATOM     12  N   UNL     1      -1.064  -0.500  -0.922  0.00  0.00    +0.409 N 
ATOM     13  H   UNL     1      -2.006  -0.210  -0.636  0.00  0.00    -0.076 HD
ENDROOT
BRANCH   1  17
ATOM     14  C   UNL     1       3.028  -3.289  -1.569  0.00  0.00    +0.030 A 
ATOM     15  C   UNL     1       2.642  -2.881  -0.298  0.00  0.00    +0.023 A 
ATOM     16  C   UNL     1       1.347  -2.458  -0.075  0.00  0.00    +0.005 A 
ATOM     17  C   UNL     1       0.435  -2.439  -1.114  0.00  0.00    -0.044 A 
ATOM     18  C   UNL     1       0.814  -2.849  -2.379  0.00  0.00    +0.005 A 
ATOM     19  C   UNL     1       2.110  -3.269  -2.611  0.00  0.00    +0.023 A 
BRANCH  14  20
ATOM     20  N   UNL     1       4.338  -3.717  -1.799  0.00  0.00    -0.330 N 
BRANCH  20  22
ATOM     21  C   UNL     1       5.272  -2.944  -3.922  0.00  0.00    +0.024 C 
ATOM     22  C   UNL     1       4.744  -4.147  -3.139  0.00  0.00    +0.102 C 
ENDBRANCH  20  22
BRANCH  20  23
ATOM     23  C   UNL     1       5.306  -3.737  -0.699  0.00  0.00    +0.102 C 
ATOM     24  C   UNL     1       5.255  -5.097   0.000  0.00  0.00    +0.024 C 
ENDBRANCH  20  23
ENDBRANCH  14  20
ENDBRANCH   1  17
BRANCH   9  25
ATOM     25  C   UNL     1      -0.288   1.589   0.035  0.00  0.00    -0.057 A 
ATOM     26  C   UNL     1      -1.570   2.106   0.034  0.00  0.00    +0.002 A 
ATOM     27  C   UNL     1      -1.762   3.474   0.072  0.00  0.00    +0.000 A 
ATOM     28  C   UNL     1      -0.673   4.325   0.102  0.00  0.00    +0.000 A 
ATOM     29  C   UNL     1       0.609   3.808   0.097  0.00  0.00    +0.000 A 
ATOM     30  C   UNL     1       0.801   2.439   0.064  0.00  0.00    +0.002 A 
ENDBRANCH   9  25
BRANCH  12  31
ATOM     31  C   UNL     1      -0.814  -0.030  -2.303  0.00  0.00    +0.048 C 
BRANCH  31  32
ATOM     32  C   UNL     1      -1.806  -0.683  -3.231  0.00  0.00    +0.290 C 
ATOM     33  O   UNL     1      -2.701  -1.358  -2.780  0.00  0.00    -0.253 OA
BRANCH  32  34
ATOM     34  O   UNL     1      -1.694  -0.516  -4.558  0.00  0.00    -0.469 OA
ATOM     35  C   UNL     1      -2.685  -1.175  -5.391  0.00  0.00    +0.280 C 
ENDBRANCH  32  34
ENDBRANCH  31  32
ENDBRANCH  12  31
TORSDOF 8
