REMARK  Name = ZINC09690893
REMARK  7 active torsions:
REMARK  status: ('A' for Active; 'I' for Inactive)
REMARK    1  A    between atoms: C_1  and  C_2
REMARK    2  A    between atoms: C_5  and  C_16
REMARK    3  A    between atoms: C_7  and  N_8
REMARK    4  A    between atoms: C_9  and  C_11
REMARK    5  A    between atoms: N_18  and  C_19
REMARK    6  A    between atoms: C_23  and  S_25
REMARK    7  A    between atoms: S_25  and  N_28
REMARK                            x       y       z     vdW  Elec       q    Type
REMARK                         _______ _______ _______ _____ _____    ______ ____
ROOT
ATOM      1  C   UNL     1       5.146  -0.818  -4.164  0.00  0.00    +0.248 C 
ATOM      2  O   UNL     1       4.930  -0.116  -5.133  0.00  0.00    -0.270 OA
ATOM      3  N   UNL     1       4.620  -0.492  -2.966  0.00  0.00    -0.281 N 
ATOM      4  H   UNL     1       4.848  -1.012  -2.179  0.00  0.00    +0.155 HD
ENDROOT
BRANCH   1   9
ATOM      5  C   UNL     1       8.409  -5.536  -4.676  0.00  0.00    +0.045 C 
ATOM      6  C   UNL     1       7.555  -4.301  -4.544  0.00  0.00    -0.029 A 
ATOM      7  C   UNL     1       7.015  -3.965  -3.317  0.00  0.00    +0.006 A 
ATOM      8  C   UNL     1       6.237  -2.833  -3.186  0.00  0.00    +0.013 A 
ATOM      9  C   UNL     1       5.984  -2.028  -4.299  0.00  0.00    +0.039 A 
ATOM     10  C   UNL     1       6.528  -2.367  -5.537  0.00  0.00    +0.036 A 
ATOM     11  C   UNL     1       7.313  -3.504  -5.657  0.00  0.00    +0.037 A 
BRANCH  11  12
ATOM     12  N   UNL     1       7.861  -3.849  -6.896  0.00  0.00    -0.279 N 
ATOM     13  C   UNL     1       7.272  -3.428  -8.034  0.00  0.00    +0.284 C 
ATOM     14  O   UNL     1       6.211  -2.835  -7.986  0.00  0.00    -0.266 OA
ATOM     15  H   UNL     1       8.665  -4.390  -6.938  0.00  0.00    +0.155 HD
BRANCH  13  16
ATOM     16  C   UNL     1       7.911  -3.685  -9.328  0.00  0.00    +0.189 A 
ATOM     17  C   UNL     1       7.426  -3.316 -10.550  0.00  0.00    +0.054 A 
ATOM     18  C   UNL     1       8.354  -3.761 -11.504  0.00  0.00    +0.042 A 
ATOM     19  C   UNL     1       9.352  -4.375 -10.832  0.00  0.00    +0.196 A 
ATOM     20  O   UNL     1       9.085  -4.322  -9.520  0.00  0.00    -0.458 OA
ENDBRANCH  13  16
ENDBRANCH  11  12
ENDBRANCH   1   9
BRANCH   3  21
ATOM     21  C   UNL     1       3.747   0.595  -2.857  0.00  0.00    +0.036 A 
ATOM     22  C   UNL     1       3.936   1.721  -3.648  0.00  0.00    +0.023 A 
ATOM     23  C   UNL     1       3.072   2.792  -3.538  0.00  0.00    +0.004 A 
ATOM     24  C   UNL     1       2.019   2.745  -2.642  0.00  0.00    +0.029 A 
ATOM     25  C   UNL     1       1.829   1.625  -1.854  0.00  0.00    +0.110 A 
ATOM     26  C   UNL     1       2.693   0.552  -1.955  0.00  0.00    +0.052 A 
BRANCH  25  27
ATOM     27  S   UNL     1       0.487   1.570  -0.713  0.00  0.00    +0.073 S 
ATOM     28  O   UNL     1       0.151   2.919  -0.416  0.00  0.00    -0.150 OA
ATOM     29  O   UNL     1       0.848   0.636   0.294  0.00  0.00    -0.150 OA
BRANCH  27  30
ATOM     30  N   UNL     1      -0.811   0.925  -1.515  0.00  0.00    -0.205 N 
ATOM     31  C   UNL     1      -0.768  -0.372  -1.954  0.00  0.00    +0.088 C 
ATOM     32  C   UNL     1      -0.009  -2.493  -2.365  0.00  0.00    +0.114 C 
ATOM     33  C   UNL     1      -1.216  -2.310  -3.314  0.00  0.00    +0.028 C 
ATOM     34  C   UNL     1      -1.894  -1.065  -2.690  0.00  0.00    +0.072 C 
ATOM     35  H   UNL     1      -1.599   1.466  -1.676  0.00  0.00    +0.175 HD
ATOM     36  N   UNL     1       0.249  -1.159  -1.783  0.00  0.00    -0.375 N 
ATOM     37  H   UNL     1       1.117  -0.891  -1.305  0.00  0.00    +0.161 HD
ENDBRANCH  27  30
ENDBRANCH  25  27
ENDBRANCH   3  21
TORSDOF 6
