REMARK  Name = ZINC43604447
REMARK  12 active torsions:
REMARK  status: ('A' for Active; 'I' for Inactive)
REMARK    1  A    between atoms: C_1  and  C_2
REMARK    2  A    between atoms: C_10  and  C_14
REMARK    3  A    between atoms: C_18  and  C_20
REMARK    4  A    between atoms: C_20  and  N_21
REMARK    5  A    between atoms: N_21  and  C_22
REMARK    6  A    between atoms: C_22  and  C_23
REMARK    7  A    between atoms: C_23  and  C_24
REMARK    8  A    between atoms: C_24  and  C_32
REMARK    9  A    between atoms: C_28  and  C_30
REMARK   10  A    between atoms: C_28  and  C_31
REMARK   11  A    between atoms: C_35  and  O_38
REMARK   12  A    between atoms: O_38  and  C_39
REMARK                            x       y       z     vdW  Elec       q    Type
REMARK                         _______ _______ _______ _____ _____    ______ ____
ROOT
ATOM      1  N   UNL     1      -3.061   1.722   4.074  0.00  0.00    +0.380 N 
ATOM      2  H   UNL     1      -3.275   0.957   4.695  0.00  0.00    -0.086 HD
ATOM      3  H   UNL     1      -2.063   1.868   4.050  0.00  0.00    -0.086 HD
ENDROOT
BRANCH   1   4
ATOM      4  C   UNL     1      -3.542   1.406   2.722  0.00  0.00    -0.068 C 
BRANCH   4  20
ATOM      5  C   UNL     1       0.150   1.712  -0.070  0.00  0.00    +0.039 C 
ATOM      6  C   UNL     1       0.172   0.206  -0.127  0.00  0.00    -0.073 C 
ATOM      7  C   UNL     1      -0.959  -0.430  -0.199  0.00  0.00    -0.064 C 
ATOM      8  C   UNL     1      -2.247   0.367  -0.243  0.00  0.00    +0.039 C 
ATOM      9  C   UNL     1      -3.242  -0.154   0.760  0.00  0.00    +0.046 C 
ATOM     10  C   UNL     1      -3.366  -1.690   0.791  0.00  0.00    +0.181 C 
ATOM     11  C   UNL     1      -1.990  -2.355   0.888  0.00  0.00    +0.056 C 
ATOM     12  C   UNL     1      -1.088  -1.926  -0.254  0.00  0.00    -0.007 C 
ATOM     13  C   UNL     1       0.249  -2.640  -0.138  0.00  0.00    +0.011 C 
ATOM     14  C   UNL     1       1.358  -1.841  -0.821  0.00  0.00    +0.005 C 
ATOM     15  C   UNL     1       1.500  -0.496  -0.105  0.00  0.00    +0.030 C 
ATOM     16  C   UNL     1      -1.727  -2.319  -1.587  0.00  0.00    +0.016 C 
ATOM     17  O   UNL     1      -4.001  -1.885   2.089  0.00  0.00    -0.461 OA
ATOM     18  C   UNL     1      -3.376  -1.071   2.968  0.00  0.00    +0.309 C 
ATOM     19  O   UNL     1      -3.246  -1.279   4.151  0.00  0.00    -0.251 OA
ATOM     20  C   UNL     1      -2.853   0.135   2.221  0.00  0.00    +0.088 C 
ENDBRANCH   4  20
ENDBRANCH   1   4
BRANCH   1  21
ATOM     21  C   UNL     1      -3.722   2.942   4.556  0.00  0.00    -0.082 C 
BRANCH  21  22
ATOM     22  C   UNL     1      -3.221   3.272   5.963  0.00  0.00    -0.007 C 
BRANCH  22  23
ATOM     23  C   UNL     1      -3.791   4.622   6.404  0.00  0.00    -0.001 C 
ATOM     24  C   UNL     1      -3.207   5.004   7.768  0.00  0.00    +0.039 C 
ATOM     25  C   UNL     1      -1.692   5.172   7.637  0.00  0.00    +0.161 C 
ATOM     26  O   UNL     1      -1.407   6.164   6.648  0.00  0.00    -0.374 OA
ATOM     27  C   UNL     1      -1.887   5.839   5.342  0.00  0.00    +0.065 C 
ATOM     28  C   UNL     1      -3.411   5.697   5.380  0.00  0.00    +0.046 C 
ATOM     29  C   UNL     1      -1.503   6.952   4.365  0.00  0.00    +0.041 C 
ATOM     30  C   UNL     1      -1.264   4.519   4.882  0.00  0.00    +0.041 C 
BRANCH  23  31
ATOM     31  C   UNL     1      -5.291   4.528   6.503  0.00  0.00    -0.041 A 
ATOM     32  C   UNL     1      -6.087   5.268   5.649  0.00  0.00    +0.008 A 
ATOM     33  C   UNL     1      -7.463   5.184   5.738  0.00  0.00    +0.046 A 
ATOM     34  C   UNL     1      -8.046   4.356   6.687  0.00  0.00    +0.120 A 
ATOM     35  C   UNL     1      -7.245   3.615   7.543  0.00  0.00    +0.046 A 
ATOM     36  C   UNL     1      -5.870   3.698   7.446  0.00  0.00    +0.008 A 
BRANCH  34  37
ATOM     37  O   UNL     1      -9.400   4.272   6.777  0.00  0.00    -0.495 OA
ATOM     38  C   UNL     1      -9.930   3.400   7.777  0.00  0.00    +0.277 C 
ENDBRANCH  34  37
ENDBRANCH  23  31
ENDBRANCH  22  23
ENDBRANCH  21  22
ENDBRANCH   1  21
TORSDOF 7
