REMARK  Name = ZINC39652641
REMARK  11 active torsions:
REMARK  status: ('A' for Active; 'I' for Inactive)
REMARK    1  A    between atoms: C_1  and  C_2
REMARK    2  A    between atoms: C_2  and  O_3
REMARK    3  A    between atoms: O_3  and  C_4
REMARK    4  A    between atoms: C_7  and  C_10
REMARK    5  A    between atoms: C_14  and  C_23
REMARK    6  A    between atoms: N_25  and  C_26
REMARK    7  A    between atoms: C_26  and  C_27
REMARK    8  A    between atoms: C_27  and  C_28
REMARK    9  A    between atoms: C_33  and  O_34
REMARK   10  A    between atoms: O_34  and  C_35
REMARK   11  A    between atoms: C_35  and  C_36
REMARK                            x       y       z     vdW  Elec       q    Type
REMARK                         _______ _______ _______ _____ _____    ______ ____
ROOT
ATOM      1  C   UNL     1      -1.996  -6.070  -0.014  0.00  0.00    +0.247 C 
ATOM      2  O   UNL     1      -1.029  -6.798  -0.132  0.00  0.00    -0.270 OA
ATOM      3  N   UNL     1      -3.230  -6.601   0.092  0.00  0.00    -0.296 N 
ATOM      4  C   UNL     1      -4.527  -5.885   0.115  0.00  0.00    +0.121 C 
ATOM      5  C   UNL     1      -5.477  -6.773  -0.720  0.00  0.00    +0.100 C 
ATOM      6  C   UNL     1      -4.862  -8.180  -0.651  0.00  0.00    -0.004 C 
ATOM      7  C   UNL     1      -3.597  -8.033   0.207  0.00  0.00    +0.115 C 
ATOM      8  C   UNL     1      -4.491  -8.665  -2.049  0.00  0.00    -0.010 C 
ATOM      9  C   UNL     1      -3.934 -10.088  -1.960  0.00  0.00    -0.082 C 
ATOM     10  N   UNL     1      -4.942 -10.974  -1.365  0.00  0.00    +0.379 N 
ATOM     11  C   UNL     1      -5.226 -10.556   0.013  0.00  0.00    -0.082 C 
ATOM     12  C   UNL     1      -5.837  -9.152   0.007  0.00  0.00    -0.010 C 
ATOM     13  H   UNL     1      -5.791 -10.929  -1.910  0.00  0.00    -0.086 HD
ATOM     14  H   UNL     1      -4.597 -11.922  -1.363  0.00  0.00    -0.086 HD
ENDROOT
BRANCH   1  18
ATOM     15  C   UNL     1      -1.481  -1.856   0.066  0.00  0.00    +0.121 A 
ATOM     16  C   UNL     1      -2.598  -2.429   0.663  0.00  0.00    +0.046 A 
ATOM     17  C   UNL     1      -2.768  -3.795   0.639  0.00  0.00    +0.016 A 
ATOM     18  C   UNL     1      -1.817  -4.605   0.014  0.00  0.00    +0.037 A 
ATOM     19  C   UNL     1      -0.696  -4.025  -0.586  0.00  0.00    +0.016 A 
ATOM     20  C   UNL     1      -0.535  -2.658  -0.562  0.00  0.00    +0.046 A 
BRANCH  15  21
ATOM     21  O   UNL     1      -1.317  -0.509   0.092  0.00  0.00    -0.492 OA
BRANCH  21  23
ATOM     22  C   UNL     1      -1.972   1.742   0.680  0.00  0.00    +0.048 C 
ATOM     23  C   UNL     1      -2.327   0.255   0.754  0.00  0.00    +0.225 C 
ENDBRANCH  21  23
ENDBRANCH  15  21
ENDBRANCH   1  18
BRANCH   5  24
ATOM     24  C   UNL     1      -5.527  -6.289  -2.147  0.00  0.00    +0.218 C 
ATOM     25  O   UNL     1      -4.534  -5.826  -2.665  0.00  0.00    -0.275 OA
ATOM     26  N   UNL     1      -6.676  -6.372  -2.847  0.00  0.00    -0.315 N 
ATOM     27  H   UNL     1      -7.471  -6.743  -2.432  0.00  0.00    +0.149 HD
BRANCH  26  28
ATOM     28  C   UNL     1      -6.725  -5.903  -4.233  0.00  0.00    +0.109 C 
BRANCH  28  29
ATOM     29  C   UNL     1      -8.134  -6.109  -4.793  0.00  0.00    +0.057 C 
BRANCH  29  30
ATOM     30  C   UNL     1      -8.184  -5.625  -6.219  0.00  0.00    -0.004 A 
ATOM     31  C   UNL     1      -8.611  -4.342  -6.500  0.00  0.00    +0.007 A 
ATOM     32  C   UNL     1      -8.658  -3.898  -7.808  0.00  0.00    +0.000 A 
ATOM     33  C   UNL     1      -8.277  -4.737  -8.839  0.00  0.00    +0.004 A 
ATOM     34  C   UNL     1      -7.848  -6.021  -8.564  0.00  0.00    +0.046 A 
ATOM     35  C   UNL     1      -7.796  -6.467  -7.251  0.00  0.00    +0.124 A 
BRANCH  35  36
ATOM     36  O   UNL     1      -7.369  -7.728  -6.977  0.00  0.00    -0.492 OA
BRANCH  36  37
ATOM     37  C   UNL     1      -6.985  -8.539  -8.089  0.00  0.00    +0.225 C 
ATOM     38  C   UNL     1      -6.537  -9.913  -7.588  0.00  0.00    +0.048 C 
ENDBRANCH  36  37
ENDBRANCH  35  36
ENDBRANCH  29  30
ENDBRANCH  28  29
ENDBRANCH  26  28
ENDBRANCH   5  24
TORSDOF 9
