REMARK  Name = ZINC39638700
REMARK  9 active torsions:
REMARK  status: ('A' for Active; 'I' for Inactive)
REMARK    1  A    between atoms: C_1  and  C_2
REMARK    2  A    between atoms: C_2  and  O_3
REMARK    3  A    between atoms: O_3  and  C_4
REMARK    4  A    between atoms: C_9  and  C_10
REMARK    5  A    between atoms: C_10  and  N_11
REMARK    6  A    between atoms: C_12  and  C_14
REMARK    7  A    between atoms: C_25  and  C_27
REMARK    8  A    between atoms: C_31  and  O_32
REMARK    9  A    between atoms: O_32  and  C_33
REMARK                            x       y       z     vdW  Elec       q    Type
REMARK                         _______ _______ _______ _____ _____    ______ ____
ROOT
ATOM      1  C   UNL     1       5.307   0.483  -3.320  0.00  0.00    +0.100 C 
ATOM      2  C   UNL     1       5.128   1.418  -2.104  0.00  0.00    +0.121 C 
ATOM      3  N   UNL     1       6.142   2.482  -2.296  0.00  0.00    -0.296 N 
ATOM      4  C   UNL     1       6.122   2.751  -3.754  0.00  0.00    +0.115 C 
ATOM      5  C   UNL     1       5.959   1.361  -4.402  0.00  0.00    -0.004 C 
ATOM      6  C   UNL     1       5.053   1.453  -5.625  0.00  0.00    -0.010 C 
ATOM      7  C   UNL     1       5.748   2.283  -6.709  0.00  0.00    -0.082 C 
ATOM      8  N   UNL     1       7.024   1.653  -7.066  0.00  0.00    +0.379 N 
ATOM      9  C   UNL     1       7.925   1.653  -5.907  0.00  0.00    -0.082 C 
ATOM     10  C   UNL     1       7.322   0.797  -4.790  0.00  0.00    -0.010 C 
ATOM     11  C   UNL     1       6.910   3.070  -1.358  0.00  0.00    +0.251 C 
ATOM     12  O   UNL     1       6.881   2.670  -0.210  0.00  0.00    -0.270 OA
ATOM     13  H   UNL     1       6.858   0.703  -7.361  0.00  0.00    -0.086 HD
ATOM     14  H   UNL     1       7.451   2.167  -7.822  0.00  0.00    -0.086 HD
ENDROOT
BRANCH  11  15
ATOM     15  C   UNL     1       7.782   4.197  -1.722  0.00  0.00    +0.087 A 
ATOM     16  C   UNL     1       7.410   5.117  -2.678  0.00  0.00    +0.063 A 
ATOM     17  S   UNL     1       8.700   6.189  -2.745  0.00  0.00    -0.081 S 
ATOM     18  C   UNL     1       9.771   5.465  -1.521  0.00  0.00    +0.120 A 
ATOM     19  C   UNL     1       9.067   4.395  -1.091  0.00  0.00    +0.158 A 
ATOM     20 CL   UNL     1      11.336   6.007  -1.002  0.00  0.00    -0.072 Cl
BRANCH  19  21
ATOM     21  O   UNL     1       9.539   3.555  -0.129  0.00  0.00    -0.492 OA
ATOM     22  C   UNL     1      10.315   2.438  -0.567  0.00  0.00    +0.277 C 
ENDBRANCH  19  21
ENDBRANCH  11  15
BRANCH   1  24
ATOM     23  N   UNL     1       3.900  -1.145  -4.541  0.00  0.00    -0.311 N 
ATOM     24  C   UNL     1       3.970  -0.025  -3.793  0.00  0.00    +0.218 C 
ATOM     25  O   UNL     1       2.956   0.573  -3.501  0.00  0.00    -0.275 OA
ATOM     26  H   UNL     1       4.711  -1.623  -4.775  0.00  0.00    +0.149 HD
BRANCH  23  27
ATOM     27  C   UNL     1       2.600  -1.639  -5.001  0.00  0.00    +0.143 C 
BRANCH  27  33
ATOM     28  C   UNL     1       2.994  -4.109  -5.172  0.00  0.00    +0.125 A 
ATOM     29  C   UNL     1       3.170  -5.264  -5.921  0.00  0.00    +0.046 A 
ATOM     30  C   UNL     1       3.155  -5.200  -7.301  0.00  0.00    +0.004 A 
ATOM     31  C   UNL     1       2.964  -3.986  -7.936  0.00  0.00    +0.001 A 
ATOM     32  C   UNL     1       2.788  -2.834  -7.192  0.00  0.00    +0.009 A 
ATOM     33  C   UNL     1       2.797  -2.894  -5.811  0.00  0.00    +0.011 A 
BRANCH  28  34
ATOM     34  O   UNL     1       3.008  -4.169  -3.814  0.00  0.00    -0.492 OA
BRANCH  34  36
ATOM     35  C   UNL     1       3.200  -5.324  -1.700  0.00  0.00    +0.048 C 
ATOM     36  C   UNL     1       3.215  -5.454  -3.224  0.00  0.00    +0.225 C 
ENDBRANCH  34  36
ENDBRANCH  28  34
ENDBRANCH  27  33
ENDBRANCH  23  27
ENDBRANCH   1  24
TORSDOF 7
