REMARK  Name = ZINC39631512
REMARK  11 active torsions:
REMARK  status: ('A' for Active; 'I' for Inactive)
REMARK    1  A    between atoms: C_1  and  C_2
REMARK    2  A    between atoms: C_2  and  C_4
REMARK    3  A    between atoms: C_2  and  N_11
REMARK    4  A    between atoms: C_4  and  C_5
REMARK    5  A    between atoms: C_5  and  C_6
REMARK    6  A    between atoms: C_6  and  C_7
REMARK    7  A    between atoms: C_7  and  C_8
REMARK    8  A    between atoms: C_7  and  C_9
REMARK    9  A    between atoms: C_7  and  O_10
REMARK   10  A    between atoms: C_12  and  C_14
REMARK   11  A    between atoms: C_25  and  C_27
REMARK                            x       y       z     vdW  Elec       q    Type
REMARK                         _______ _______ _______ _____ _____    ______ ____
ROOT
ATOM      1  C   UNL     1       4.148   1.597  10.918  0.00  0.00    +0.100 C 
ATOM      2  C   UNL     1       5.043   0.395  11.293  0.00  0.00    +0.121 C 
ATOM      3  N   UNL     1       6.211   0.500  10.387  0.00  0.00    -0.296 N 
ATOM      4  C   UNL     1       6.496   1.954  10.320  0.00  0.00    +0.115 C 
ATOM      5  C   UNL     1       5.106   2.619  10.282  0.00  0.00    -0.004 C 
ATOM      6  C   UNL     1       4.696   2.902   8.840  0.00  0.00    -0.010 C 
ATOM      7  C   UNL     1       5.629   3.963   8.248  0.00  0.00    -0.082 C 
ATOM      8  N   UNL     1       5.549   5.190   9.050  0.00  0.00    +0.379 N 
ATOM      9  C   UNL     1       6.032   4.931  10.412  0.00  0.00    -0.082 C 
ATOM     10  C   UNL     1       5.117   3.910  11.095  0.00  0.00    -0.010 C 
ATOM     11  C   UNL     1       6.867  -0.499   9.765  0.00  0.00    +0.247 C 
ATOM     12  O   UNL     1       7.828  -0.252   9.064  0.00  0.00    -0.270 OA
ATOM     13  H   UNL     1       6.117   5.906   8.624  0.00  0.00    -0.086 HD
ATOM     14  H   UNL     1       4.590   5.503   9.089  0.00  0.00    -0.086 HD
ENDROOT
BRANCH  11  15
ATOM     15  C   UNL     1       6.416  -1.897   9.934  0.00  0.00    +0.038 A 
ATOM     16  C   UNL     1       5.207  -2.317   9.376  0.00  0.00    +0.013 A 
ATOM     17  C   UNL     1       4.792  -3.622   9.537  0.00  0.00    +0.002 A 
ATOM     18  C   UNL     1       5.570  -4.516  10.251  0.00  0.00    +0.020 A 
ATOM     19  C   UNL     1       6.770  -4.107  10.807  0.00  0.00    +0.042 A 
ATOM     20  C   UNL     1       7.199  -2.804  10.649  0.00  0.00    +0.033 A 
ATOM     21 CL   UNL     1       7.739  -5.236  11.701  0.00  0.00    -0.084 Cl
ENDBRANCH  11  15
BRANCH   1  23
ATOM     22  N   UNL     1       1.946   1.875   9.826  0.00  0.00    -0.312 N 
ATOM     23  C   UNL     1       3.095   1.178   9.925  0.00  0.00    +0.218 C 
ATOM     24  O   UNL     1       3.281   0.212   9.215  0.00  0.00    -0.275 OA
ATOM     25  H   UNL     1       1.828   2.690  10.339  0.00  0.00    +0.149 HD
BRANCH  22  27
ATOM     26  C   UNL     1       1.143   1.883   7.516  0.00  0.00    +0.028 C 
ATOM     27  C   UNL     1       0.876   1.403   8.944  0.00  0.00    +0.070 C 
BRANCH  27  28
ATOM     28  C   UNL     1      -0.465   1.960   9.427  0.00  0.00    +0.022 C 
BRANCH  28  29
ATOM     29  C   UNL     1      -0.806   1.357  10.791  0.00  0.00    +0.005 C 
BRANCH  29  30
ATOM     30  C   UNL     1      -2.203   1.815  11.216  0.00  0.00    +0.034 C 
BRANCH  30  31
ATOM     31  C   UNL     1      -2.571   1.159  12.548  0.00  0.00    +0.061 C 
ATOM     32  C   UNL     1      -2.904   2.242  13.576  0.00  0.00    +0.041 C 
ATOM     33  C   UNL     1      -3.788   0.252  12.351  0.00  0.00    +0.041 C 
BRANCH  31  34
ATOM     34  O   UNL     1      -1.468   0.380  13.017  0.00  0.00    -0.389 OA
ATOM     35  H   UNL     1      -0.686   0.902  13.243  0.00  0.00    +0.210 HD
ENDBRANCH  31  34
ENDBRANCH  30  31
ENDBRANCH  29  30
ENDBRANCH  28  29
ENDBRANCH  27  28
ENDBRANCH  22  27
ENDBRANCH   1  23
TORSDOF 8
