REMARK  Name = ZINC20465955
REMARK  12 active torsions:
REMARK  status: ('A' for Active; 'I' for Inactive)
REMARK    1  A    between atoms: C_1  and  N_2
REMARK    2  A    between atoms: N_2  and  C_3
REMARK    3  A    between atoms: N_2  and  C_10
REMARK    4  A    between atoms: C_3  and  C_4
REMARK    5  A    between atoms: C_12  and  C_22
REMARK    6  A    between atoms: C_15  and  C_20
REMARK    7  A    between atoms: C_17  and  O_19
REMARK    8  A    between atoms: C_20  and  O_21
REMARK    9  A    between atoms: C_22  and  N_23
REMARK   10  A    between atoms: N_26  and  C_27
REMARK   11  A    between atoms: C_31  and  O_33
REMARK   12  A    between atoms: O_33  and  C_34
REMARK                            x       y       z     vdW  Elec       q    Type
REMARK                         _______ _______ _______ _____ _____    ______ ____
ROOT
ATOM      1  C   UNL     1       2.203   3.706   0.911  0.00  0.00    -0.006 C 
ATOM      2  C   UNL     1       2.940   2.363   1.109  0.00  0.00    +0.125 C 
ATOM      3  O   UNL     1       1.946   1.353   0.831  0.00  0.00    -0.369 OA
ATOM      4  C   UNL     1       1.209   1.847  -0.308  0.00  0.00    +0.171 C 
ATOM      5  C   UNL     1       1.038   3.359  -0.043  0.00  0.00    +0.134 C 
ENDROOT
BRANCH   1   7
ATOM      6  C   UNL     1       2.395   5.968   0.068  0.00  0.00    -0.095 C 
ATOM      7  N   UNL     1       3.097   4.698   0.297  0.00  0.00    +0.386 N 
ATOM      8  H   UNL     1       3.415   4.307  -0.681  0.00  0.00    -0.081 HD
BRANCH   7   9
ATOM      9  C   UNL     1       4.300   4.901   1.115  0.00  0.00    -0.043 C 
BRANCH   9  10
ATOM     10  C   UNL     1       5.297   5.728   0.345  0.00  0.00    -0.064 A 
ATOM     11  C   UNL     1       6.236   5.107  -0.458  0.00  0.00    +0.002 A 
ATOM     12  C   UNL     1       7.147   5.866  -1.168  0.00  0.00    +0.000 A 
ATOM     13  C   UNL     1       7.127   7.244  -1.067  0.00  0.00    +0.000 A 
ATOM     14  C   UNL     1       6.192   7.864  -0.259  0.00  0.00    +0.000 A 
ATOM     15  C   UNL     1       5.277   7.106   0.447  0.00  0.00    +0.002 A 
ENDBRANCH   9  10
ENDBRANCH   7   9
ENDBRANCH   1   7
BRANCH   5  16
ATOM     16  O   UNL     1      -0.218   3.618   0.587  0.00  0.00    -0.391 OA
ATOM     17  H   UNL     1      -1.155   3.424   0.044  0.00  0.00    +0.210 HD
ENDBRANCH   5  16
BRANCH   4  18
ATOM     18  C   UNL     1      -0.157   1.164  -0.396  0.00  0.00    +0.190 C 
BRANCH  18  19
ATOM     19  O   UNL     1       0.022  -0.225  -0.684  0.00  0.00    -0.392 OA
ATOM     20  H   UNL     1      -0.854  -0.883  -0.785  0.00  0.00    +0.210 HD
ENDBRANCH  18  19
ENDBRANCH   4  18
BRANCH   2  21
ATOM     21  C   UNL     1       3.441   2.237   2.549  0.00  0.00    +0.135 C 
BRANCH  21  22
ATOM     22  N   UNL     1       4.173   0.978   2.703  0.00  0.00    -0.297 N 
ATOM     23  C   UNL     1       4.708   0.651   3.896  0.00  0.00    +0.304 C 
ATOM     24  O   UNL     1       4.583   1.401   4.844  0.00  0.00    -0.253 OA
ATOM     25  N   UNL     1       5.382  -0.508   4.038  0.00  0.00    -0.269 N 
ATOM     26  H   UNL     1       4.286   0.299   1.845  0.00  0.00    +0.150 HD
ATOM     27  H   UNL     1       5.423  -1.226   3.205  0.00  0.00    +0.156 HD
BRANCH  25  28
ATOM     28  C   UNL     1       6.031  -0.797   5.244  0.00  0.00    +0.038 A 
ATOM     29  C   UNL     1       6.124  -2.111   5.685  0.00  0.00    +0.023 A 
ATOM     30  C   UNL     1       6.764  -2.397   6.875  0.00  0.00    +0.005 A 
ATOM     31  C   UNL     1       7.314  -1.377   7.630  0.00  0.00    +0.046 A 
ATOM     32  C   UNL     1       7.224  -0.063   7.193  0.00  0.00    +0.122 A 
ATOM     33  C   UNL     1       6.586   0.227   5.997  0.00  0.00    +0.069 A 
BRANCH  32  34
ATOM     34  O   UNL     1       7.766   0.939   7.935  0.00  0.00    -0.495 OA
ATOM     35  C   UNL     1       8.412   0.566   9.154  0.00  0.00    +0.277 C 
ENDBRANCH  32  34
ENDBRANCH  25  28
ENDBRANCH  21  22
ENDBRANCH   2  21
TORSDOF 10
