REMARK  Name = ZINC39406346
REMARK  3 active torsions:
REMARK  status: ('A' for Active; 'I' for Inactive)
REMARK    1  A    between atoms: C_6  and  C_7
REMARK    2  A    between atoms: C_7  and  C_9
REMARK    3  A    between atoms: C_16  and  C_18
REMARK                            x       y       z     vdW  Elec       q    Type
REMARK                         _______ _______ _______ _____ _____    ______ ____
ROOT
ATOM      1  C   UNL     1      -2.575  -0.025   0.028  0.00  0.00    +0.078 C 
ATOM      2  C   UNL     1      -2.946   0.324   1.471  0.00  0.00    +0.014 C 
ATOM      3  C   UNL     1      -4.267   1.098   1.487  0.00  0.00    +0.020 C 
ATOM      4  C   UNL     1      -5.376   0.218   0.901  0.00  0.00    +0.108 C 
ATOM      5  N   UNL     1      -4.962  -0.241  -0.431  0.00  0.00    -0.299 N 
ATOM      6  C   UNL     1      -3.665  -0.917  -0.575  0.00  0.00    +0.119 C 
ATOM      7  C   UNL     1      -5.756  -0.047  -1.502  0.00  0.00    +0.244 C 
ATOM      8  O   UNL     1      -5.402  -0.430  -2.597  0.00  0.00    -0.273 OA
ENDROOT
BRANCH   7   9
ATOM      9  C   UNL     1      -7.083   0.648  -1.340  0.00  0.00    +0.215 C 
ATOM     10  C   UNL     1      -6.887   2.147  -1.301  0.00  0.00    +0.026 C 
ATOM     11  C   UNL     1      -7.562   2.632  -2.332  0.00  0.00    +0.036 A 
ATOM     12  C   UNL     1      -8.222   1.541  -3.090  0.00  0.00    +0.074 A 
ATOM     13  N   UNL     1      -7.937   0.386  -2.501  0.00  0.00    -0.266 NA
ATOM     14  C   UNL     1      -8.981   2.019  -4.238  0.00  0.00    +0.035 A 
ATOM     15  C   UNL     1      -9.023   3.331  -4.506  0.00  0.00    +0.048 A 
ATOM     16  S   UNL     1      -8.035   4.088  -3.232  0.00  0.00    -0.095 S 
ENDBRANCH   7   9
BRANCH   1  17
ATOM     17  C   UNL     1      -1.258  -0.758   0.011  0.00  0.00    +0.168 C 
ATOM     18  O   UNL     1      -1.239  -1.971   0.004  0.00  0.00    -0.292 OA
BRANCH  17  24
ATOM     19  C   UNL     1      -0.017   1.395   0.010  0.00  0.00    +0.015 A 
ATOM     20  C   UNL     1       1.166   2.100   0.002  0.00  0.00    +0.050 A 
ATOM     21  C   UNL     1       2.381   1.426  -0.013  0.00  0.00    +0.166 A 
ATOM     22  C   UNL     1       2.408   0.030  -0.021  0.00  0.00    +0.167 A 
ATOM     23  C   UNL     1       1.227  -0.683  -0.013  0.00  0.00    +0.061 A 
ATOM     24  C   UNL     1       0.002  -0.004   0.002  0.00  0.00    +0.021 A 
ATOM     25  O   UNL     1       3.711  -0.380  -0.037  0.00  0.00    -0.453 OA
ATOM     26  C   UNL     1       4.470   0.771  -0.451  0.00  0.00    +0.466 C 
ATOM     27  O   UNL     1       3.665   1.885  -0.023  0.00  0.00    -0.453 OA
ENDBRANCH  17  24
ENDBRANCH   1  17
TORSDOF 3
