REMARK  Name = ZINC11563427
REMARK  8 active torsions:
REMARK  status: ('A' for Active; 'I' for Inactive)
REMARK    1  A    between atoms: C_1  and  O_2
REMARK    2  A    between atoms: O_2  and  C_3
REMARK    3  A    between atoms: C_7  and  C_9
REMARK    4  A    between atoms: C_9  and  C_11
REMARK    5  A    between atoms: C_9  and  N_57
REMARK    6  A    between atoms: C_11  and  N_12
REMARK    7  A    between atoms: C_13  and  C_15
REMARK    8  A    between atoms: C_15  and  C_16
REMARK                            x       y       z     vdW  Elec       q    Type
REMARK                         _______ _______ _______ _____ _____    ______ ____
ROOT
ATOM      1  N   UNL     1      -0.057   3.617  -4.652  0.00  0.00    -0.316 N 
ATOM      2  C   UNL     1      -0.788   3.709  -3.524  0.00  0.00    +0.215 C 
ATOM      3  O   UNL     1      -0.238   3.889  -2.458  0.00  0.00    -0.276 OA
ATOM      4  H   UNL     1      -0.497   3.473  -5.505  0.00  0.00    +0.149 HD
ENDROOT
BRANCH   1   5
ATOM      5  C   UNL     1       1.401   3.735  -4.592  0.00  0.00    +0.093 C 
BRANCH   5   6
ATOM      6  C   UNL     1       1.992   3.480  -5.980  0.00  0.00    -0.020 C 
BRANCH   6  11
ATOM      7  C   UNL     1       0.098   5.351  -8.662  0.00  0.00    +0.120 A 
ATOM      8  C   UNL     1       0.745   6.579  -8.649  0.00  0.00    +0.045 A 
ATOM      9  C   UNL     1       1.790   6.798  -7.774  0.00  0.00    +0.004 A 
ATOM     10  C   UNL     1       2.190   5.796  -6.907  0.00  0.00    +0.002 A 
ATOM     11  C   UNL     1       1.551   4.571  -6.922  0.00  0.00    -0.056 A 
ATOM     12  C   UNL     1       0.504   4.347  -7.795  0.00  0.00    +0.047 A 
BRANCH   7  14
ATOM     13  C   UNL     1      -1.296   6.213 -10.384  0.00  0.00    +0.277 C 
ATOM     14  O   UNL     1      -0.932   5.134  -9.521  0.00  0.00    -0.495 OA
ENDBRANCH   7  14
ENDBRANCH   6  11
BRANCH   6  19
ATOM     15  C   UNL     1       3.930   2.425  -4.952  0.00  0.00    -0.078 C 
ATOM     16  C   UNL     1       5.403   2.203  -5.375  0.00  0.00    -0.020 C 
ATOM     17  C   UNL     1       5.343   2.330  -6.915  0.00  0.00    -0.020 C 
ATOM     18  C   UNL     1       4.064   3.137  -7.202  0.00  0.00    -0.078 C 
ATOM     19  N   UNL     1       3.483   3.459  -5.898  0.00  0.00    +0.385 N 
ATOM     20  H   UNL     1       3.816   4.380  -5.588  0.00  0.00    -0.081 HD
ENDBRANCH   6  19
ENDBRANCH   5   6
ENDBRANCH   1   5
BRANCH   2  21
ATOM     21  C   UNL     1      -2.289   3.587  -3.586  0.00  0.00    +0.119 C 
BRANCH  21  22
ATOM     22  C   UNL     1      -2.871   3.726  -2.178  0.00  0.00    +0.146 C 
ATOM     23  C   UNL     1      -4.361   3.509  -2.222  0.00  0.00    +0.231 C 
ATOM     24  O   UNL     1      -4.794   2.417  -1.921  0.00  0.00    -0.274 OA
ATOM     25  N   UNL     1      -5.224   4.457  -2.574  0.00  0.00    -0.284 N 
ATOM     26  C   UNL     1      -4.929   5.791  -2.839  0.00  0.00    +0.048 A 
ATOM     27  C   UNL     1      -5.855   6.566  -3.531  0.00  0.00    +0.044 A 
ATOM     28  C   UNL     1      -5.581   7.890  -3.815  0.00  0.00    +0.043 A 
ATOM     29  C   UNL     1      -4.385   8.460  -3.416  0.00  0.00    +0.021 A 
ATOM     30  C   UNL     1      -3.458   7.702  -2.724  0.00  0.00    +0.018 A 
ATOM     31  C   UNL     1      -3.729   6.375  -2.435  0.00  0.00    +0.030 A 
ATOM     32  S   UNL     1      -2.552   5.403  -1.547  0.00  0.00    -0.110 S 
ATOM     33 CL   UNL     1      -6.745   8.844  -4.680  0.00  0.00    -0.083 Cl
ATOM     34  H   UNL     1      -6.154   4.191  -2.655  0.00  0.00    +0.155 HD
ENDBRANCH  21  22
ENDBRANCH   2  21
TORSDOF 7
