REMARK  Name = ZINC63472952
REMARK  8 active torsions:
REMARK  status: ('A' for Active; 'I' for Inactive)
REMARK    1  A    between atoms: C_1  and  C_2
REMARK    2  A    between atoms: C_4  and  C_41
REMARK    3  A    between atoms: C_6  and  N_8
REMARK    4  A    between atoms: C_13  and  C_34
REMARK    5  A    between atoms: C_16  and  C_21
REMARK    6  A    between atoms: C_16  and  C_31
REMARK    7  A    between atoms: C_21  and  C_22
REMARK    8  A    between atoms: C_39  and  O_40
REMARK                            x       y       z     vdW  Elec       q    Type
REMARK                         _______ _______ _______ _____ _____    ______ ____
ROOT
ATOM      1  N   UNL     1       0.134  -2.796   2.501  0.00  0.00    -0.210 N 
ATOM      2  C   UNL     1       0.262  -4.160   2.593  0.00  0.00    +0.229 C 
ATOM      3  O   UNL     1       0.585  -4.935   1.718  0.00  0.00    -0.275 OA
ATOM      4  C   UNL     1      -0.074  -4.466   3.964  0.00  0.00    +0.077 C 
ATOM      5  C   UNL     1       0.090  -5.541   4.953  0.00  0.00    -0.023 C 
ATOM      6  N   UNL     1      -0.149  -4.870   6.273  0.00  0.00    +0.396 N 
ATOM      7  C   UNL     1      -0.321  -3.404   6.010  0.00  0.00    +0.052 C 
ATOM      8  C   UNL     1       0.510  -3.208   4.723  0.00  0.00    +0.086 C 
ATOM      9  C   UNL     1       0.040  -2.190   3.721  0.00  0.00    +0.229 C 
ATOM     10  O   UNL     1      -0.345  -1.064   3.950  0.00  0.00    -0.275 OA
ATOM     11  H   UNL     1      -0.985  -5.241   6.699  0.00  0.00    -0.083 HD
ATOM     12  H   UNL     1       0.642  -5.018   6.881  0.00  0.00    -0.083 HD
ENDROOT
BRANCH   1  18
ATOM     13  C   UNL     1      -0.184   1.466   0.068  0.00  0.00    +0.044 C 
ATOM     14  C   UNL     1      -0.045  -0.034   0.077  0.00  0.00    -0.048 A 
ATOM     15  C   UNL     1       0.056  -0.726  -1.117  0.00  0.00    +0.006 A 
ATOM     16  C   UNL     1       0.183  -2.103  -1.113  0.00  0.00    -0.048 A 
ATOM     17  C   UNL     1       0.209  -2.791   0.084  0.00  0.00    +0.027 A 
ATOM     18  C   UNL     1       0.108  -2.100   1.284  0.00  0.00    +0.044 A 
ATOM     19  C   UNL     1      -0.013  -0.717   1.277  0.00  0.00    +0.027 A 
ATOM     20  C   UNL     1       0.293  -2.852  -2.415  0.00  0.00    +0.044 C 
ENDBRANCH   1  18
BRANCH   5  21
ATOM     21  C   UNL     1       1.486  -6.105   4.891  0.00  0.00    -0.019 A 
ATOM     22  C   UNL     1       2.478  -5.587   5.702  0.00  0.00    +0.005 A 
ATOM     23  C   UNL     1       3.759  -6.104   5.646  0.00  0.00    +0.000 A 
ATOM     24  C   UNL     1       4.051  -7.140   4.778  0.00  0.00    +0.004 A 
ATOM     25  C   UNL     1       3.064  -7.661   3.965  0.00  0.00    +0.045 A 
ATOM     26  C   UNL     1       1.776  -7.148   4.023  0.00  0.00    +0.118 A 
BRANCH  26  27
ATOM     27  O   UNL     1       0.801  -7.662   3.229  0.00  0.00    -0.507 OA
ATOM     28  H   UNL     1       0.726  -7.229   2.368  0.00  0.00    +0.292 HD
ENDBRANCH  26  27
ENDBRANCH   5  21
BRANCH   7  29
ATOM     29  C   UNL     1       0.255  -2.587   7.138  0.00  0.00    +0.347 C 
ATOM     30  O   UNL     1       0.747  -3.145   8.104  0.00  0.00    -0.248 OA
ATOM     31  O   UNL     1       0.230  -1.370   7.083  0.00  0.00    -0.248 OA
ENDBRANCH   7  29
BRANCH   7  32
ATOM     32  C   UNL     1      -1.796  -3.062   5.789  0.00  0.00    +0.033 C 
BRANCH  32  33
ATOM     33  C   UNL     1      -2.568  -3.329   7.055  0.00  0.00    -0.042 C 
ATOM     34  C   UNL     1      -2.861  -2.440   8.031  0.00  0.00    -0.001 A 
ATOM     35  C   UNL     1      -2.559  -1.014   8.201  0.00  0.00    +0.010 A 
ATOM     36  C   UNL     1      -2.995  -0.378   9.312  0.00  0.00    +0.001 A 
ATOM     37  C   UNL     1      -3.727  -1.046  10.303  0.00  0.00    +0.002 A 
ATOM     38  C   UNL     1      -4.044  -2.355  10.219  0.00  0.00    +0.026 A 
ATOM     39  C   UNL     1      -3.636  -3.122   9.092  0.00  0.00    +0.043 A 
ATOM     40  N   UNL     1      -3.815  -4.383   8.784  0.00  0.00    -0.380 N 
ATOM     41  C   UNL     1      -3.179  -4.643   7.488  0.00  0.00    +0.144 C 
ATOM     42  H   UNL     1      -4.292  -5.035   9.321  0.00  0.00    +0.160 HD
ENDBRANCH  32  33
ENDBRANCH   7  32
TORSDOF 6
