REMARK  Name = ZINC08868990
REMARK  10 active torsions:
REMARK  status: ('A' for Active; 'I' for Inactive)
REMARK    1  A    between atoms: C_1  and  C_2
REMARK    2  A    between atoms: C_2  and  C_3
REMARK    3  A    between atoms: C_2  and  N_64
REMARK    4  A    between atoms: C_9  and  N_14
REMARK    5  A    between atoms: C_10  and  C_11
REMARK    6  A    between atoms: C_15  and  C_17
REMARK    7  A    between atoms: N_22  and  S_23
REMARK    8  A    between atoms: S_23  and  C_26
REMARK    9  A    between atoms: C_29  and  O_32
REMARK   10  A    between atoms: O_32  and  C_33
REMARK                            x       y       z     vdW  Elec       q    Type
REMARK                         _______ _______ _______ _____ _____    ______ ____
ROOT
ATOM      1  N   UNL     1      -0.143  -0.250   2.977  0.00  0.00    -0.278 N 
ATOM      2  C   UNL     1      -1.161   0.299   2.285  0.00  0.00    +0.236 C 
ATOM      3  O   UNL     1      -2.292  -0.109   2.444  0.00  0.00    -0.274 OA
ATOM      4  H   UNL     1       0.762   0.076   2.850  0.00  0.00    +0.155 HD
ENDROOT
BRANCH   1  10
ATOM      5  C   UNL     1      -0.091  -4.524   7.484  0.00  0.00    -0.073 C 
ATOM      6  C   UNL     1       0.842  -3.867   6.463  0.00  0.00    +0.018 C 
ATOM      7  C   UNL     1      -0.004  -3.015   5.525  0.00  0.00    -0.027 A 
ATOM      8  C   UNL     1      -1.340  -3.211   5.450  0.00  0.00    -0.021 A 
ATOM      9  S   UNL     1      -1.904  -2.027   4.264  0.00  0.00    -0.079 S 
ATOM     10  C   UNL     1      -0.390  -1.282   3.871  0.00  0.00    +0.084 A 
ATOM     11  C   UNL     1       0.518  -1.972   4.663  0.00  0.00    +0.068 A 
ATOM     12  C   UNL     1      -2.134  -4.222   6.217  0.00  0.00    -0.035 C 
ATOM     13  N   UNL     1      -1.185  -5.217   6.773  0.00  0.00    +0.384 N 
ATOM     14  H   UNL     1      -0.788  -5.767   6.002  0.00  0.00    -0.081 HD
BRANCH  11  15
ATOM     15  C   UNL     1       1.950  -1.655   4.634  0.00  0.00    +0.244 C 
ATOM     16  O   UNL     1       2.404  -0.820   5.394  0.00  0.00    -0.270 OA
ATOM     17  N   UNL     1       2.762  -2.287   3.764  0.00  0.00    -0.325 N 
ATOM     18  H   UNL     1       2.400  -2.952   3.158  0.00  0.00    +0.145 HD
ATOM     19  H   UNL     1       3.709  -2.077   3.744  0.00  0.00    +0.145 HD
ENDBRANCH  11  15
BRANCH  13  21
ATOM     20  C   UNL     1      -3.034  -6.815   6.946  0.00  0.00    -0.014 C 
ATOM     21  C   UNL     1      -1.893  -6.128   7.698  0.00  0.00    -0.074 C 
ATOM     22  C   UNL     1      -0.908  -7.184   8.205  0.00  0.00    -0.014 C 
ENDBRANCH  13  21
ENDBRANCH   1  10
BRANCH   2  23
ATOM     23  C   UNL     1      -0.893   1.420   1.314  0.00  0.00    +0.166 C 
ATOM     24  C   UNL     1      -0.521   0.840  -0.067  0.00  0.00    +0.031 C 
ATOM     25  C   UNL     1      -1.220   1.811  -1.056  0.00  0.00    +0.019 C 
ATOM     26  C   UNL     1      -2.519   2.157  -0.286  0.00  0.00    +0.110 C 
ATOM     27  N   UNL     1      -2.112   2.230   1.129  0.00  0.00    -0.165 NA
BRANCH  27  28
ATOM     28  S   UNL     1      -2.893   3.081   2.315  0.00  0.00    +0.062 S 
ATOM     29  O   UNL     1      -4.268   3.109   1.957  0.00  0.00    -0.153 OA
ATOM     30  O   UNL     1      -2.440   2.557   3.556  0.00  0.00    -0.153 OA
BRANCH  28  31
ATOM     31  C   UNL     1      -2.316   4.743   2.230  0.00  0.00    +0.106 A 
ATOM     32  C   UNL     1      -1.148   5.103   2.878  0.00  0.00    +0.032 A 
ATOM     33  C   UNL     1      -0.691   6.404   2.808  0.00  0.00    +0.047 A 
ATOM     34  C   UNL     1      -1.410   7.354   2.097  0.00  0.00    +0.120 A 
ATOM     35  C   UNL     1      -2.584   6.992   1.453  0.00  0.00    +0.047 A 
ATOM     36  C   UNL     1      -3.035   5.688   1.521  0.00  0.00    +0.032 A 
BRANCH  34  37
ATOM     37  O   UNL     1      -0.965   8.636   2.030  0.00  0.00    -0.495 OA
ATOM     38  C   UNL     1       0.251   8.937   2.718  0.00  0.00    +0.277 C 
ENDBRANCH  34  37
ENDBRANCH  28  31
ENDBRANCH  27  28
ENDBRANCH   2  23
TORSDOF 7
