REMARK  Name = ZINC06285093
REMARK  14 active torsions:
REMARK  status: ('A' for Active; 'I' for Inactive)
REMARK    1  A    between atoms: C_1  and  C_2
REMARK    2  A    between atoms: C_2  and  C_3
REMARK    3  A    between atoms: C_7  and  C_31
REMARK    4  A    between atoms: C_8  and  N_9
REMARK    5  A    between atoms: N_9  and  C_10
REMARK    6  A    between atoms: C_10  and  N_12
REMARK    7  A    between atoms: N_12  and  C_13
REMARK    8  A    between atoms: N_12  and  C_21
REMARK    9  A    between atoms: C_13  and  C_14
REMARK   10  A    between atoms: C_19  and  C_20
REMARK   11  A    between atoms: C_23  and  C_29
REMARK   12  A    between atoms: C_23  and  C_30
REMARK   13  A    between atoms: C_25  and  C_27
REMARK   14  A    between atoms: C_25  and  C_28
REMARK                            x       y       z     vdW  Elec       q    Type
REMARK                         _______ _______ _______ _____ _____    ______ ____
ROOT
ATOM      1  N   UNL     1      -2.333  -0.564  -3.928  0.00  0.00    -0.305 N 
ENDROOT
BRANCH   1   2
ATOM      2  C   UNL     1      -1.284   0.454  -4.064  0.00  0.00    +0.073 C 
ATOM      3  C   UNL     1       0.041  -0.119  -3.558  0.00  0.00    +0.009 C 
ATOM      4  C   UNL     1       1.142   0.934  -3.681  0.00  0.00    -0.072 C 
ATOM      5  N   UNL     1       0.785   2.180  -3.019  0.00  0.00    +0.386 N 
ATOM      6  C   UNL     1      -0.543   2.719  -3.267  0.00  0.00    -0.072 C 
ATOM      7  C   UNL     1      -1.642   1.665  -3.202  0.00  0.00    +0.009 C 
ATOM      8  C   UNL     1      -0.612   3.464  -4.603  0.00  0.00    -0.010 C 
ATOM      9  C   UNL     1      -0.837   3.756  -2.157  0.00  0.00    -0.010 C 
ATOM     10  C   UNL     1       1.509   1.146  -5.149  0.00  0.00    -0.010 C 
ATOM     11  C   UNL     1       2.396   0.371  -2.971  0.00  0.00    -0.010 C 
ATOM     12  H   UNL     1       0.897   2.051  -2.011  0.00  0.00    -0.084 HD
ATOM     13  H   UNL     1       1.475   2.890  -3.278  0.00  0.00    -0.084 HD
ENDBRANCH   1   2
BRANCH   1  14
ATOM     14  C   UNL     1      -2.848  -0.844  -2.714  0.00  0.00    +0.138 C 
ATOM     15  S   UNL     1      -4.188  -1.900  -2.576  0.00  0.00    -0.018 S 
BRANCH  14  16
ATOM     16  N   UNL     1      -2.308  -0.292  -1.610  0.00  0.00    -0.296 N 
ATOM     17  H   UNL     1      -2.742   0.462  -1.182  0.00  0.00    +0.154 HD
BRANCH  16  23
ATOM     18  C   UNL     1      -0.364  -0.048  -0.197  0.00  0.00    -0.026 A 
ATOM     19  C   UNL     1       0.805  -0.562   0.329  0.00  0.00    +0.005 A 
ATOM     20  C   UNL     1       1.225  -1.831  -0.026  0.00  0.00    +0.001 A 
ATOM     21  C   UNL     1       0.477  -2.588  -0.909  0.00  0.00    +0.005 A 
ATOM     22  C   UNL     1      -0.692  -2.080  -1.439  0.00  0.00    -0.029 A 
ATOM     23  C   UNL     1      -1.120  -0.808  -1.080  0.00  0.00    +0.039 A 
ATOM     24  C   UNL     1      -1.506  -2.906  -2.401  0.00  0.00    +0.045 C 
BRANCH  18  26
ATOM     25  C   UNL     1      -1.811   1.237   1.353  0.00  0.00    +0.009 C 
ATOM     26  C   UNL     1      -0.822   1.335   0.190  0.00  0.00    +0.033 C 
ENDBRANCH  18  26
ENDBRANCH  16  23
ENDBRANCH  14  16
ENDBRANCH   1  14
BRANCH   1  27
ATOM     27  C   UNL     1      -2.820  -1.276  -5.112  0.00  0.00    +0.142 C 
BRANCH  27  28
ATOM     28  C   UNL     1      -3.963  -0.508  -5.725  0.00  0.00    -0.027 A 
ATOM     29  C   UNL     1      -4.356   0.699  -5.178  0.00  0.00    +0.005 A 
ATOM     30  C   UNL     1      -5.405   1.403  -5.740  0.00  0.00    +0.000 A 
ATOM     31  C   UNL     1      -6.060   0.900  -6.849  0.00  0.00    +0.000 A 
ATOM     32  C   UNL     1      -5.667  -0.307  -7.395  0.00  0.00    +0.003 A 
ATOM     33  C   UNL     1      -4.615  -1.009  -6.836  0.00  0.00    -0.046 A 
ATOM     34  C   UNL     1      -4.183  -2.322  -7.435  0.00  0.00    +0.044 C 
ENDBRANCH  27  28
ENDBRANCH   1  27
TORSDOF 7
