REMARK  Name = ZINC44452604
REMARK  3 active torsions:
REMARK  status: ('A' for Active; 'I' for Inactive)
REMARK    1  A    between atoms: C_5  and  C_6
REMARK    2  A    between atoms: N_8  and  C_9
REMARK    3  A    between atoms: C_10  and  C_17
REMARK                            x       y       z     vdW  Elec       q    Type
REMARK                         _______ _______ _______ _____ _____    ______ ____
ROOT
ATOM      1  C   UNL     1      -1.955  -3.157   0.004  0.00  0.00    +0.085 A 
ATOM      2  C   UNL     1      -1.909  -4.540   0.002  0.00  0.00    +0.069 A 
ATOM      3  C   UNL     1      -3.187  -5.252   0.009  0.00  0.00    -0.023 A 
ATOM      4  C   UNL     1      -4.263  -4.447   0.016  0.00  0.00    -0.004 A 
ATOM      5  S   UNL     1      -3.594  -2.803   0.022  0.00  0.00    -0.077 S 
ATOM      6  C   UNL     1      -5.549  -5.229   0.018  0.00  0.00    +0.043 C 
ATOM      7  C   UNL     1      -5.141  -6.653  -0.420  0.00  0.00    +0.010 C 
ATOM      8  C   UNL     1      -3.662  -6.704   0.014  0.00  0.00    +0.037 C 
ENDROOT
BRANCH   2   9
ATOM      9  C   UNL     1      -0.634  -5.261  -0.008  0.00  0.00    +0.254 C 
ATOM     10  O   UNL     1      -0.098  -5.563   1.041  0.00  0.00    -0.270 OA
ATOM     11  N   UNL     1      -0.056  -5.591  -1.180  0.00  0.00    -0.236 N 
ATOM     12  C   UNL     1       1.117  -6.255  -1.189  0.00  0.00    +0.304 C 
ATOM     13  O   UNL     1       1.654  -6.556  -0.140  0.00  0.00    -0.253 OA
ATOM     14  N   UNL     1       1.696  -6.584  -2.361  0.00  0.00    -0.313 N 
ATOM     15  H   UNL     1      -0.483  -5.351  -2.017  0.00  0.00    +0.159 HD
ATOM     16  H   UNL     1       1.268  -6.344  -3.197  0.00  0.00    +0.146 HD
ATOM     17  H   UNL     1       2.541  -7.062  -2.367  0.00  0.00    +0.146 HD
ENDBRANCH   2   9
BRANCH   1  20
ATOM     18  C   UNL     1      -1.122  -0.942   0.008  0.00  0.00    +0.255 C 
ATOM     19  O   UNL     1      -2.265  -0.523   0.021  0.00  0.00    -0.269 OA
ATOM     20  N   UNL     1      -0.892  -2.270  -0.002  0.00  0.00    -0.275 N 
ATOM     21  H   UNL     1       0.019  -2.604  -0.012  0.00  0.00    +0.156 HD
BRANCH  18  26
ATOM     22  C   UNL     1      -0.017   1.383   0.010  0.00  0.00    +0.022 A 
ATOM     23  C   UNL     1       1.212   1.997   0.001  0.00  0.00    +0.024 A 
ATOM     24  C   UNL     1       2.332   1.230  -0.014  0.00  0.00    +0.056 A 
ATOM     25  S   UNL     1       1.751  -0.347  -0.017  0.00  0.00    -0.077 S 
ATOM     26  C   UNL     1       0.002  -0.004   0.002  0.00  0.00    +0.075 A 
ATOM     27 BR   UNL     1       4.134   1.804  -0.029  0.00  0.00    -0.043 Br
ENDBRANCH  18  26
ENDBRANCH   1  20
TORSDOF 3
