REMARK  Name = ZINC16566938
REMARK  9 active torsions:
REMARK  status: ('A' for Active; 'I' for Inactive)
REMARK    1  A    between atoms: C_1  and  C_2
REMARK    2  A    between atoms: C_3  and  C_21
REMARK    3  A    between atoms: C_5  and  C_13
REMARK    4  A    between atoms: N_6  and  C_7
REMARK    5  A    between atoms: C_17  and  O_19
REMARK    6  A    between atoms: O_19  and  C_20
REMARK    7  A    between atoms: N_31  and  C_32
REMARK    8  A    between atoms: C_37  and  O_38
REMARK    9  A    between atoms: O_38  and  C_39
REMARK                            x       y       z     vdW  Elec       q    Type
REMARK                         _______ _______ _______ _____ _____    ______ ____
ROOT
ATOM      1  C   UNL     1       5.397   4.459   1.667  0.00  0.00    +0.064 C 
ATOM      2  C   UNL     1       4.346   4.662   0.607  0.00  0.00    +0.033 A 
ATOM      3  C   UNL     1       3.916   5.878   0.118  0.00  0.00    +0.058 A 
ATOM      4  C   UNL     1       2.928   5.604  -0.863  0.00  0.00    +0.041 A 
ATOM      5  C   UNL     1       2.791   4.255  -0.927  0.00  0.00    +0.055 A 
ATOM      6  N   UNL     1       3.663   3.686  -0.028  0.00  0.00    -0.312 N 
ENDROOT
BRANCH   3   7
ATOM      7  C   UNL     1       4.396   7.207   0.532  0.00  0.00    +0.248 C 
ATOM      8  O   UNL     1       5.535   7.345   0.935  0.00  0.00    -0.270 OA
ATOM      9  N   UNL     1       3.572   8.272   0.464  0.00  0.00    -0.294 N 
ATOM     10  C   UNL     1       2.201   8.126  -0.045  0.00  0.00    +0.127 C 
ATOM     11  C   UNL     1       1.228   8.661   1.019  0.00  0.00    +0.128 C 
ATOM     12  N   UNL     1       1.687   9.990   1.447  0.00  0.00    -0.282 N 
ATOM     13  C   UNL     1       3.059  10.137   1.950  0.00  0.00    +0.128 C 
ATOM     14  C   UNL     1       4.030   9.601   0.891  0.00  0.00    +0.127 C 
ATOM     15  C   UNL     1       0.863  11.054   1.379  0.00  0.00    +0.307 C 
ATOM     16  O   UNL     1       1.282  12.165   1.643  0.00  0.00    -0.252 OA
ATOM     17  N   UNL     1      -0.425  10.888   1.018  0.00  0.00    -0.266 N 
ATOM     18  H   UNL     1      -0.784   9.995   0.900  0.00  0.00    +0.156 HD
BRANCH  17  19
ATOM     19  C   UNL     1      -1.245  12.006   0.812  0.00  0.00    +0.077 A 
ATOM     20  C   UNL     1      -0.680  13.258   0.625  0.00  0.00    +0.027 A 
ATOM     21  C   UNL     1      -1.490  14.358   0.418  0.00  0.00    +0.002 A 
ATOM     22  C   UNL     1      -2.866  14.216   0.408  0.00  0.00    +0.004 A 
ATOM     23  C   UNL     1      -3.437  12.971   0.599  0.00  0.00    +0.047 A 
ATOM     24  C   UNL     1      -2.631  11.863   0.802  0.00  0.00    +0.141 A 
BRANCH  24  25
ATOM     25  O   UNL     1      -3.191  10.638   0.991  0.00  0.00    -0.493 OA
ATOM     26  C   UNL     1      -4.618  10.567   0.968  0.00  0.00    +0.277 C 
ENDBRANCH  24  25
ENDBRANCH  17  19
ENDBRANCH   3   7
BRANCH   6  27
ATOM     27  C   UNL     1       3.817   2.311   0.194  0.00  0.00    +0.047 A 
ATOM     28  C   UNL     1       2.788   1.580   0.772  0.00  0.00    +0.026 A 
ATOM     29  C   UNL     1       2.941   0.224   0.985  0.00  0.00    +0.002 A 
ATOM     30  C   UNL     1       4.122  -0.403   0.633  0.00  0.00    +0.000 A 
ATOM     31  C   UNL     1       5.151   0.323   0.063  0.00  0.00    +0.002 A 
ATOM     32  C   UNL     1       5.002   1.678  -0.158  0.00  0.00    +0.026 A 
ENDBRANCH   6  27
BRANCH   5  33
ATOM     33  C   UNL     1       1.866   3.521  -1.817  0.00  0.00    +0.002 A 
ATOM     34  C   UNL     1       0.748   4.165  -2.349  0.00  0.00    +0.010 A 
ATOM     35  C   UNL     1      -0.113   3.478  -3.180  0.00  0.00    +0.004 A 
ATOM     36  C   UNL     1       0.124   2.149  -3.482  0.00  0.00    +0.045 A 
ATOM     37  C   UNL     1       1.236   1.502  -2.961  0.00  0.00    +0.121 A 
ATOM     38  C   UNL     1       2.107   2.183  -2.127  0.00  0.00    +0.055 A 
BRANCH  37  39
ATOM     39  O   UNL     1       1.468   0.198  -3.266  0.00  0.00    -0.495 OA
ATOM     40  C   UNL     1       0.529  -0.443  -4.132  0.00  0.00    +0.277 C 
ENDBRANCH  37  39
ENDBRANCH   5  33
TORSDOF 6
