REMARK  Name = ZINC26548028
REMARK  5 active torsions:
REMARK  status: ('A' for Active; 'I' for Inactive)
REMARK    1  A    between atoms: C_1  and  C_2
REMARK    2  A    between atoms: C_2  and  C_3
REMARK    3  A    between atoms: C_2  and  N_4
REMARK    4  A    between atoms: C_5  and  C_9
REMARK    5  A    between atoms: N_13  and  N_14
REMARK                            x       y       z     vdW  Elec       q    Type
REMARK                         _______ _______ _______ _____ _____    ______ ____
ROOT
ATOM      1  C   UNL     1       1.717   3.250   0.000  0.00  0.00    +0.200 A 
ATOM      2  N   UNL     1       0.948   4.311   0.102  0.00  0.00    -0.125 NA
ATOM      3  N   UNL     1       1.664   5.377   0.059  0.00  0.00    -0.120 NA
ATOM      4  C   UNL     1       2.934   5.064  -0.073  0.00  0.00    +0.220 A 
ATOM      5  N   UNL     1       3.014   3.701  -0.109  0.00  0.00    -0.222 N 
ATOM      6  S   UNL     1       4.282   6.194  -0.176  0.00  0.00    -0.008 SA
ENDROOT
BRANCH   1   8
ATOM      7  N   UNL     1      -0.014   1.399   0.014  0.00  0.00    -0.258 N 
ATOM      8  C   UNL     1       1.277   1.844   0.007  0.00  0.00    +0.108 A 
ATOM      9  C   UNL     1       2.090   0.730   0.008  0.00  0.00    +0.052 A 
ATOM     10  C   UNL     1       1.267  -0.395   0.016  0.00  0.00    +0.135 A 
ATOM     11  N   UNL     1       0.018  -0.002   0.019  0.00  0.00    -0.179 NA
BRANCH   7  13
ATOM     12  C   UNL     1      -1.980   2.024  -1.298  0.00  0.00    +0.032 C 
ATOM     13  C   UNL     1      -1.216   2.235   0.010  0.00  0.00    +0.102 C 
ATOM     14  C   UNL     1      -2.110   1.849   1.191  0.00  0.00    +0.032 C 
ENDBRANCH   7  13
ENDBRANCH   1   8
BRANCH   5  15
ATOM     15  N   UNL     1       4.144   2.944  -0.232  0.00  0.00    -0.294 N 
ATOM     16  H   UNL     1       5.127   3.431  -0.311  0.00  0.00    +0.163 HD
ATOM     17  H   UNL     1       4.071   1.846  -0.251  0.00  0.00    +0.163 HD
ENDBRANCH   5  15
TORSDOF 3
