REMARK  Name = ZINC34734812
REMARK  10 active torsions:
REMARK  status: ('A' for Active; 'I' for Inactive)
REMARK    1  A    between atoms: C_1  and  C_2
REMARK    2  A    between atoms: C_5  and  N_8
REMARK    3  A    between atoms: C_9  and  C_11
REMARK    4  A    between atoms: C_11  and  N_12
REMARK    5  A    between atoms: N_25  and  C_28
REMARK    6  A    between atoms: C_28  and  C_29
REMARK    7  A    between atoms: C_29  and  C_30
REMARK    8  A    between atoms: C_29  and  C_31
REMARK    9  A    between atoms: C_34  and  C_36
REMARK   10  A    between atoms: C_34  and  C_37
REMARK                            x       y       z     vdW  Elec       q    Type
REMARK                         _______ _______ _______ _____ _____    ______ ____
ROOT
ATOM      1  N   UNL     1       0.400  -6.946   2.886  0.00  0.00    -0.271 N 
ATOM      2  C   UNL     1       1.554  -6.922   3.579  0.00  0.00    +0.264 A 
ATOM      3  O   UNL     1       2.596  -6.606   3.033  0.00  0.00    -0.267 OA
ATOM      4  C   UNL     1       1.539  -7.271   4.967  0.00  0.00    +0.076 A 
ATOM      5  C   UNL     1       2.659  -7.314   5.906  0.00  0.00    -0.018 A 
ATOM      6  C   UNL     1       2.382  -7.678   7.177  0.00  0.00    +0.021 A 
ATOM      7  S   UNL     1       0.638  -7.980   7.199  0.00  0.00    -0.071 S 
ATOM      8  C   UNL     1       0.284  -7.617   5.497  0.00  0.00    +0.118 A 
ATOM      9  N   UNL     1      -0.818  -7.622   4.756  0.00  0.00    -0.208 NA
ATOM     10  C   UNL     1      -0.777  -7.291   3.482  0.00  0.00    +0.202 A 
ATOM     11  N   UNL     1      -1.933  -7.299   2.743  0.00  0.00    -0.304 N 
ATOM     12  C   UNL     1      -2.323  -8.482   1.961  0.00  0.00    +0.089 C 
ATOM     13  C   UNL     1      -3.776  -8.831   2.299  0.00  0.00    -0.060 C 
ATOM     14  N   UNL     1      -4.625  -7.654   2.080  0.00  0.00    +0.382 N 
ATOM     15  C   UNL     1      -4.248  -6.585   3.014  0.00  0.00    -0.060 C 
ATOM     16  C   UNL     1      -2.821  -6.126   2.715  0.00  0.00    +0.089 C 
ATOM     17  C   UNL     1       3.366  -7.793   8.299  0.00  0.00    +0.203 C 
ATOM     18  O   UNL     1       4.687  -7.764   7.734  0.00  0.00    -0.368 OA
ATOM     19  C   UNL     1       4.883  -6.698   6.800  0.00  0.00    +0.068 C 
ATOM     20  C   UNL     1       4.094  -6.971   5.516  0.00  0.00    +0.071 C 
ATOM     21  C   UNL     1       4.403  -5.385   7.421  0.00  0.00    +0.041 C 
ATOM     22  C   UNL     1       6.372  -6.584   6.467  0.00  0.00    +0.041 C 
ATOM     23  H   UNL     1      -4.508  -7.327   1.133  0.00  0.00    -0.082 HD
ENDROOT
BRANCH   1  24
ATOM     24  C   UNL     1       0.409  -6.590   1.465  0.00  0.00    +0.224 C 
BRANCH  24  26
ATOM     25  N   UNL     1       0.290  -4.534   0.096  0.00  0.00    -0.284 N 
ATOM     26  C   UNL     1       0.301  -5.094   1.322  0.00  0.00    +0.237 C 
ATOM     27  O   UNL     1       0.225  -4.394   2.309  0.00  0.00    -0.274 OA
ATOM     28  H   UNL     1       0.277  -5.096  -0.694  0.00  0.00    +0.155 HD
BRANCH  25  33
ATOM     29  C   UNL     1       0.319   1.113  -0.444  0.00  0.00    +0.044 C 
ATOM     30  C   UNL     1       0.311  -0.387  -0.300  0.00  0.00    -0.050 A 
ATOM     31  C   UNL     1       0.971  -0.982   0.759  0.00  0.00    +0.005 A 
ATOM     32  C   UNL     1       0.966  -2.357   0.893  0.00  0.00    +0.023 A 
ATOM     33  C   UNL     1       0.297  -3.141  -0.037  0.00  0.00    +0.033 A 
ATOM     34  C   UNL     1      -0.366  -2.540  -1.099  0.00  0.00    +0.023 A 
ATOM     35  C   UNL     1      -0.361  -1.165  -1.225  0.00  0.00    +0.005 A 
ENDBRANCH  25  33
ENDBRANCH  24  26
ENDBRANCH   1  24
BRANCH  14  36
ATOM     36  C   UNL     1      -6.031  -8.018   2.299  0.00  0.00    -0.076 C 
BRANCH  36  37
ATOM     37  C   UNL     1      -6.469  -9.024   1.233  0.00  0.00    -0.034 C 
ATOM     38  C   UNL     1      -7.899  -9.485   1.522  0.00  0.00    +0.005 C 
ATOM     39  C   UNL     1      -6.416  -8.362  -0.145  0.00  0.00    +0.005 C 
ENDBRANCH  36  37
ENDBRANCH  14  36
TORSDOF 5
