REMARK  Name = ZINC18114088
REMARK  2 active torsions:
REMARK  status: ('A' for Active; 'I' for Inactive)
REMARK    1  A    between atoms: C_4  and  N_7
REMARK    2  A    between atoms: N_10  and  C_11
REMARK                            x       y       z     vdW  Elec       q    Type
REMARK                         _______ _______ _______ _____ _____    ______ ____
ROOT
ATOM      1  N   UNL     1       3.588  -0.656  -0.082  0.00  0.00    -0.326 N 
ATOM      2  C   UNL     1       3.643  -2.018   0.020  0.00  0.00    +0.203 C 
ATOM      3  N   UNL     1       2.514  -2.728   0.316  0.00  0.00    -0.369 N 
ATOM      4  N   UNL     1       4.790  -2.649  -0.169  0.00  0.00    -0.179 NA
ATOM      5  H   UNL     1       1.641  -2.331   0.173  0.00  0.00    +0.159 HD
ATOM      6  H   UNL     1       2.586  -3.628   0.669  0.00  0.00    +0.159 HD
ATOM      7  H   UNL     1       4.228  -0.185  -0.636  0.00  0.00    +0.169 HD
ENDROOT
BRANCH   4   8
ATOM      8  C   UNL     1       5.929  -1.949  -0.289  0.00  0.00    +0.234 A 
ATOM      9  N   UNL     1       7.083  -2.592  -0.628  0.00  0.00    -0.327 N 
ATOM     10  C   UNL     1       8.261  -1.899  -0.758  0.00  0.00    +0.027 A 
ATOM     11  C   UNL     1       8.263  -0.573  -0.554  0.00  0.00    +0.038 A 
ATOM     12  C   UNL     1       7.043   0.071  -0.194  0.00  0.00    +0.278 A 
ATOM     13  N   UNL     1       5.919  -0.640  -0.082  0.00  0.00    -0.173 NA
ATOM     14  O   UNL     1       7.026   1.276   0.008  0.00  0.00    -0.265 OA
ATOM     15  C   UNL     1       9.497   0.276  -0.695  0.00  0.00    +0.042 C 
ATOM     16  C   UNL     1      10.755  -0.589  -0.648  0.00  0.00    +0.005 C 
ATOM     17  C   UNL     1      10.585  -1.740  -1.647  0.00  0.00    +0.006 C 
ATOM     18  C   UNL     1       9.498  -2.675  -1.121  0.00  0.00    +0.054 C 
ATOM     19  H   UNL     1       7.071  -3.550  -0.779  0.00  0.00    +0.169 HD
ENDBRANCH   4   8
BRANCH   1  23
ATOM     20  C   UNL     1       0.666   1.469   1.992  0.00  0.00    +0.000 A 
ATOM     21  C   UNL     1       1.099   1.917   0.758  0.00  0.00    +0.002 A 
ATOM     22  C   UNL     1       2.068   1.215   0.068  0.00  0.00    +0.026 A 
ATOM     23  C   UNL     1       2.607   0.058   0.615  0.00  0.00    +0.042 A 
ATOM     24  C   UNL     1       2.170  -0.390   1.855  0.00  0.00    +0.026 A 
ATOM     25  C   UNL     1       1.201   0.317   2.540  0.00  0.00    +0.002 A 
ENDBRANCH   1  23
TORSDOF 2
