REMARK  Name = ZINC56769867
REMARK  7 active torsions:
REMARK  status: ('A' for Active; 'I' for Inactive)
REMARK    1  A    between atoms: C_1  and  C_2
REMARK    2  A    between atoms: C_2  and  C_4
REMARK    3  A    between atoms: C_2  and  N_12
REMARK    4  A    between atoms: C_4  and  C_5
REMARK    5  A    between atoms: C_8  and  O_11
REMARK    6  A    between atoms: N_15  and  C_16
REMARK    7  A    between atoms: C_16  and  C_17
REMARK                            x       y       z     vdW  Elec       q    Type
REMARK                         _______ _______ _______ _____ _____    ______ ____
ROOT
ATOM      1  N   UNL     1       0.668  -0.535  -1.189  0.00  0.00    -0.297 N 
ATOM      2  C   UNL     1      -0.006  -0.641  -2.352  0.00  0.00    +0.300 C 
ATOM      3  O   UNL     1      -1.185  -0.349  -2.399  0.00  0.00    -0.253 OA
ATOM      4  N   UNL     1       0.627  -1.071  -3.461  0.00  0.00    -0.295 N 
ATOM      5  H   UNL     1       1.609  -0.768  -1.151  0.00  0.00    +0.151 HD
ATOM      6  H   UNL     1       1.568  -1.304  -3.423  0.00  0.00    +0.151 HD
ENDROOT
BRANCH   1   8
ATOM      7  C   UNL     1      -0.018   1.462   0.045  0.00  0.00    +0.028 C 
ATOM      8  C   UNL     1      -0.020  -0.068   0.017  0.00  0.00    +0.076 C 
BRANCH   8   9
ATOM      9  C   UNL     1       0.702  -0.603   1.255  0.00  0.00    +0.057 C 
BRANCH   9  10
ATOM     10  C   UNL     1       0.593  -2.105   1.291  0.00  0.00    -0.045 A 
ATOM     11  C   UNL     1      -0.475  -2.705   1.932  0.00  0.00    +0.007 A 
ATOM     12  C   UNL     1      -0.577  -4.082   1.966  0.00  0.00    +0.045 A 
ATOM     13  C   UNL     1       0.393  -4.864   1.356  0.00  0.00    +0.117 A 
ATOM     14  C   UNL     1       1.464  -4.260   0.713  0.00  0.00    +0.045 A 
ATOM     15  C   UNL     1       1.558  -2.882   0.677  0.00  0.00    +0.007 A 
BRANCH  13  16
ATOM     16  O   UNL     1       0.295  -6.219   1.389  0.00  0.00    -0.507 OA
ATOM     17  H   UNL     1      -0.194  -6.596   0.645  0.00  0.00    +0.292 HD
ENDBRANCH  13  16
ENDBRANCH   9  10
ENDBRANCH   8   9
ENDBRANCH   1   8
BRANCH   4  18
ATOM     18  C   UNL     1      -0.105  -1.186  -4.725  0.00  0.00    +0.142 C 
BRANCH  18  19
ATOM     19  C   UNL     1       0.824  -1.684  -5.801  0.00  0.00    -0.014 A 
ATOM     20  C   UNL     1       1.552  -0.785  -6.570  0.00  0.00    +0.010 A 
ATOM     21  C   UNL     1       2.394  -1.284  -7.547  0.00  0.00    +0.042 A 
ATOM     22  C   UNL     1       2.483  -2.661  -7.726  0.00  0.00    +0.099 A 
ATOM     23  N   UNL     1       1.772  -3.485  -6.972  0.00  0.00    -0.349 N 
ATOM     24  C   UNL     1       0.965  -3.038  -6.029  0.00  0.00    +0.089 A 
ATOM     25  N   UNL     1       3.325  -3.175  -8.705  0.00  0.00    -0.317 N 
ATOM     26  C   UNL     1       3.534  -4.625  -8.826  0.00  0.00    +0.106 C 
ATOM     27  C   UNL     1       3.236  -5.048 -10.268  0.00  0.00    +0.019 C 
ATOM     28  C   UNL     1       4.083  -4.208 -11.227  0.00  0.00    +0.003 C 
ATOM     29  C   UNL     1       3.719  -2.730 -11.072  0.00  0.00    +0.019 C 
ATOM     30  C   UNL     1       4.017  -2.281  -9.643  0.00  0.00    +0.106 C 
ATOM     31  H   UNL     1       1.849  -4.441  -7.115  0.00  0.00    +0.167 HD
ENDBRANCH  18  19
ENDBRANCH   4  18
TORSDOF 6
