REMARK  Name = ZINC19994982
REMARK  6 active torsions:
REMARK  status: ('A' for Active; 'I' for Inactive)
REMARK    1  A    between atoms: C_1  and  C_2
REMARK    2  A    between atoms: C_5  and  C_8
REMARK    3  A    between atoms: C_11  and  C_35
REMARK    4  A    between atoms: C_16  and  C_18
REMARK    5  A    between atoms: N_23  and  C_26
REMARK    6  A    between atoms: C_26  and  C_27
REMARK                            x       y       z     vdW  Elec       q    Type
REMARK                         _______ _______ _______ _____ _____    ______ ____
ROOT
ATOM      1  C   UNL     1       0.127  -4.285  -0.019  0.00  0.00    +0.104 C 
ATOM      2  C   UNL     1       1.416  -5.080   0.215  0.00  0.00    +0.063 C 
ATOM      3  C   UNL     1       2.064  -4.649   1.536  0.00  0.00    +0.215 C 
ATOM      4  N   UNL     1       1.049  -4.679   2.593  0.00  0.00    -0.237 N 
ATOM      5  C   UNL     1      -0.296  -4.663   2.353  0.00  0.00    +0.137 A 
ATOM      6  C   UNL     1      -0.935  -4.703   3.540  0.00  0.00    +0.112 A 
ATOM      7  C   UNL     1       0.050  -4.744   4.553  0.00  0.00    +0.167 A 
ATOM      8  N   UNL     1       1.238  -4.729   3.974  0.00  0.00    -0.163 NA
ATOM      9 CL   UNL     1      -2.654  -4.704   3.780  0.00  0.00    -0.078 Cl
ATOM     10  N   UNL     1      -0.830  -4.609   1.057  0.00  0.00    -0.321 N 
ATOM     11  H   UNL     1      -1.769  -4.776   0.877  0.00  0.00    +0.148 HD
ENDROOT
BRANCH   7  12
ATOM     12  C   UNL     1      -0.204  -4.794   6.007  0.00  0.00    +0.268 C 
ATOM     13  O   UNL     1      -1.340  -4.920   6.422  0.00  0.00    -0.268 OA
ATOM     14  N   UNL     1       0.823  -4.701   6.875  0.00  0.00    -0.294 N 
ATOM     15  C   UNL     1       0.615  -4.904   8.316  0.00  0.00    +0.123 C 
ATOM     16  C   UNL     1       1.225  -3.716   9.068  0.00  0.00    +0.103 C 
ATOM     17  N   UNL     1       2.626  -3.550   8.661  0.00  0.00    -0.295 NA
ATOM     18  C   UNL     1       2.730  -3.225   7.232  0.00  0.00    +0.103 C 
ATOM     19  C   UNL     1       2.183  -4.399   6.404  0.00  0.00    +0.123 C 
BRANCH  17  20
ATOM     20  C   UNL     1       3.296  -2.533   9.482  0.00  0.00    +0.119 C 
BRANCH  20  21
ATOM     21  C   UNL     1       4.778  -2.562   9.208  0.00  0.00    -0.033 A 
ATOM     22  C   UNL     1       5.603  -3.383   9.953  0.00  0.00    +0.005 A 
ATOM     23  C   UNL     1       6.962  -3.410   9.701  0.00  0.00    +0.000 A 
ATOM     24  C   UNL     1       7.496  -2.616   8.704  0.00  0.00    +0.000 A 
ATOM     25  C   UNL     1       6.670  -1.795   7.957  0.00  0.00    +0.000 A 
ATOM     26  C   UNL     1       5.311  -1.772   8.207  0.00  0.00    +0.005 A 
ENDBRANCH  20  21
ENDBRANCH  17  20
ENDBRANCH   7  12
BRANCH   1  31
ATOM     27  C   UNL     1       1.292   1.374   0.061  0.00  0.00    +0.044 C 
ATOM     28  C   UNL     1       0.989  -0.102   0.040  0.00  0.00    -0.050 A 
ATOM     29  C   UNL     1       0.838  -0.759  -1.166  0.00  0.00    +0.004 A 
ATOM     30  C   UNL     1       0.559  -2.113  -1.185  0.00  0.00    +0.006 A 
ATOM     31  C   UNL     1       0.432  -2.809   0.002  0.00  0.00    -0.027 A 
ATOM     32  C   UNL     1       0.584  -2.152   1.208  0.00  0.00    +0.006 A 
ATOM     33  C   UNL     1       0.867  -0.799   1.227  0.00  0.00    +0.004 A 
ENDBRANCH   1  31
BRANCH   3  34
ATOM     34  C   UNL     1       3.201  -5.611   1.886  0.00  0.00    +0.412 C 
ATOM     35  F   UNL     1       4.161  -5.588   0.869  0.00  0.00    -0.168 F 
ATOM     36  F   UNL     1       3.790  -5.216   3.092  0.00  0.00    -0.168 F 
ATOM     37  F   UNL     1       2.692  -6.907   2.019  0.00  0.00    -0.168 F 
ENDBRANCH   3  34
TORSDOF 5
