REMARK  Name = ZINC16009793
REMARK  5 active torsions:
REMARK  status: ('A' for Active; 'I' for Inactive)
REMARK    1  A    between atoms: C_1  and  C_2
REMARK    2  A    between atoms: C_16  and  C_19
REMARK    3  A    between atoms: C_19  and  C_20
REMARK    4  A    between atoms: N_25  and  C_28
REMARK    5  A    between atoms: C_28  and  C_29
REMARK                            x       y       z     vdW  Elec       q    Type
REMARK                         _______ _______ _______ _____ _____    ______ ____
ROOT
ATOM      1  C   UNL     1       0.186   1.554   0.110  0.00  0.00    +0.046 C 
ATOM      2  C   UNL     1       0.174   0.048   0.075  0.00  0.00    -0.028 A 
ATOM      3  C   UNL     1       0.197  -0.612  -1.136  0.00  0.00    +0.025 A 
ATOM      4  C   UNL     1       0.187  -1.995  -1.178  0.00  0.00    +0.042 A 
ATOM      5  C   UNL     1       0.153  -2.720   0.002  0.00  0.00    +0.027 A 
ATOM      6  C   UNL     1       0.129  -2.065   1.212  0.00  0.00    +0.005 A 
ATOM      7  C   UNL     1       0.146  -0.674   1.266  0.00  0.00    +0.042 A 
ATOM      8  N   UNL     1       0.124  -0.242   2.595  0.00  0.00    -0.283 N 
ATOM      9  C   UNL     1       0.096  -1.271   3.463  0.00  0.00    +0.243 C 
ATOM     10  O   UNL     1       0.070  -1.197   4.673  0.00  0.00    -0.273 OA
ATOM     11  C   UNL     1       0.089  -2.531   2.640  0.00  0.00    +0.136 C 
ATOM     12  C   UNL     1       1.296  -3.413   2.982  0.00  0.00    +0.122 C 
ATOM     13  C   UNL     1       0.737  -4.471   3.973  0.00  0.00    +0.107 C 
ATOM     14  C   UNL     1      -0.751  -4.104   4.149  0.00  0.00    +0.076 C 
ATOM     15  N   UNL     1      -1.104  -3.356   2.906  0.00  0.00    -0.295 NA
ATOM     16  C   UNL     1       0.860  -5.768   3.205  0.00  0.00    +0.227 C 
ATOM     17  O   UNL     1       0.523  -6.858   3.613  0.00  0.00    -0.275 OA
ATOM     18  N   UNL     1       1.397  -5.524   2.004  0.00  0.00    -0.237 N 
ATOM     19  C   UNL     1       1.693  -4.224   1.769  0.00  0.00    +0.229 C 
ATOM     20  O   UNL     1       2.190  -3.776   0.759  0.00  0.00    -0.275 OA
ATOM     21 CL   UNL     1       0.215  -2.820  -2.706  0.00  0.00    -0.084 Cl
ATOM     22  H   UNL     1       0.129   0.691   2.861  0.00  0.00    +0.155 HD
ATOM     23  H   UNL     1      -1.918  -2.778   3.055  0.00  0.00    +0.124 HD
ENDROOT
BRANCH  14  24
ATOM     24  C   UNL     1      -1.604  -5.370   4.253  0.00  0.00    +0.115 C 
BRANCH  24  25
ATOM     25  C   UNL     1      -3.032  -4.992   4.547  0.00  0.00    +0.212 C 
ATOM     26  O   UNL     1      -3.339  -3.824   4.662  0.00  0.00    -0.276 OA
ATOM     27  N   UNL     1      -3.970  -5.951   4.681  0.00  0.00    -0.329 N 
ATOM     28  H   UNL     1      -3.725  -6.885   4.589  0.00  0.00    +0.145 HD
ATOM     29  H   UNL     1      -4.889  -5.707   4.871  0.00  0.00    +0.145 HD
ENDBRANCH  24  25
ENDBRANCH  14  24
BRANCH  18  30
ATOM     30  C   UNL     1       1.654  -6.580   1.022  0.00  0.00    +0.153 C 
BRANCH  30  31
ATOM     31  C   UNL     1       3.094  -7.013   1.115  0.00  0.00    -0.011 A 
ATOM     32  C   UNL     1       4.038  -6.464   0.268  0.00  0.00    +0.006 A 
ATOM     33  C   UNL     1       5.359  -6.862   0.353  0.00  0.00    +0.000 A 
ATOM     34  C   UNL     1       5.737  -7.809   1.286  0.00  0.00    +0.001 A 
ATOM     35  C   UNL     1       4.794  -8.360   2.134  0.00  0.00    +0.020 A 
ATOM     36  C   UNL     1       3.473  -7.958   2.053  0.00  0.00    +0.046 A 
ATOM     37 CL   UNL     1       2.289  -8.643   3.122  0.00  0.00    -0.083 Cl
ENDBRANCH  30  31
ENDBRANCH  18  30
TORSDOF 4
