REMARK  Name = ZINC67269277
REMARK  8 active torsions:
REMARK  status: ('A' for Active; 'I' for Inactive)
REMARK    1  A    between atoms: C_1  and  C_2
REMARK    2  A    between atoms: C_5  and  C_29
REMARK    3  A    between atoms: N_8  and  C_10
REMARK    4  A    between atoms: C_10  and  C_11
REMARK    5  A    between atoms: C_10  and  C_12
REMARK    6  A    between atoms: C_10  and  C_13
REMARK    7  A    between atoms: C_13  and  N_14
REMARK    8  A    between atoms: C_15  and  C_17
REMARK                            x       y       z     vdW  Elec       q    Type
REMARK                         _______ _______ _______ _____ _____    ______ ____
ROOT
ATOM      1  N   UNL     1       3.474  -2.390   0.904  0.00  0.00    -0.316 N 
ATOM      2  C   UNL     1       4.768  -2.196   0.578  0.00  0.00    +0.216 C 
ATOM      3  O   UNL     1       5.533  -1.722   1.391  0.00  0.00    -0.276 OA
ATOM      4  H   UNL     1       2.862  -2.769   0.254  0.00  0.00    +0.149 HD
ENDROOT
BRANCH   2   5
ATOM      5  C   UNL     1       5.263  -2.568  -0.796  0.00  0.00    +0.075 C 
ATOM      6  C   UNL     1       4.492  -1.769  -1.849  0.00  0.00    +0.015 C 
ATOM      7  C   UNL     1       4.987  -2.157  -3.245  0.00  0.00    +0.036 C 
ATOM      8  C   UNL     1       6.480  -1.868  -3.356  0.00  0.00    +0.112 C 
ATOM      9  C   UNL     1       7.260  -2.638  -2.296  0.00  0.00    +0.036 C 
ATOM     10  C   UNL     1       6.755  -2.248  -0.904  0.00  0.00    +0.015 C 
ATOM     11  C   UNL     1       6.742  -0.385  -3.231  0.00  0.00    +0.244 C 
ATOM     12  O   UNL     1       6.495   0.326  -2.281  0.00  0.00    -0.273 OA
ATOM     13  N   UNL     1       7.308  -0.019  -4.400  0.00  0.00    -0.238 N 
ATOM     14  C   UNL     1       7.435  -1.059  -5.233  0.00  0.00    +0.307 C 
ATOM     15  O   UNL     1       7.917  -0.979  -6.346  0.00  0.00    -0.252 OA
ATOM     16  N   UNL     1       6.970  -2.205  -4.699  0.00  0.00    -0.285 N 
ATOM     17  H   UNL     1       7.587   0.885  -4.611  0.00  0.00    +0.159 HD
ATOM     18  H   UNL     1       6.960  -3.079  -5.119  0.00  0.00    +0.151 HD
ENDBRANCH   2   5
BRANCH   1  19
ATOM     19  C   UNL     1       2.993  -2.028   2.239  0.00  0.00    +0.092 C 
BRANCH  19  20
ATOM     20  C   UNL     1       1.478  -2.227   2.306  0.00  0.00    -0.055 C 
ATOM     21  C   UNL     1       0.963  -1.768   3.672  0.00  0.00    -0.008 C 
ATOM     22  C   UNL     1       1.148  -3.708   2.108  0.00  0.00    -0.008 C 
BRANCH  20  28
ATOM     23  C   UNL     1       0.931   2.275   0.461  0.00  0.00    +0.005 C 
ATOM     24  C   UNL     1       0.574   0.798   0.278  0.00  0.00    -0.031 C 
ATOM     25  C   UNL     1      -0.949   0.636   0.288  0.00  0.00    +0.003 C 
ATOM     26  C   UNL     1      -1.294  -0.852   0.182  0.00  0.00    -0.031 C 
ATOM     27  C   UNL     1      -0.623  -1.609   1.330  0.00  0.00    -0.075 C 
ATOM     28  N   UNL     1       0.833  -1.436   1.250  0.00  0.00    +0.384 N 
ATOM     29  C   UNL     1       1.177  -0.019   1.421  0.00  0.00    -0.075 C 
ATOM     30  C   UNL     1      -0.792  -1.400  -1.155  0.00  0.00    +0.005 C 
ATOM     31  H   UNL     1       1.159  -1.753   0.349  0.00  0.00    -0.081 HD
ENDBRANCH  20  28
ENDBRANCH  19  20
ENDBRANCH   1  19
TORSDOF 4
