REMARK  Name = ZINC14006043
REMARK  8 active torsions:
REMARK  status: ('A' for Active; 'I' for Inactive)
REMARK    1  A    between atoms: C_4  and  N_7
REMARK    2  A    between atoms: N_7  and  C_8
REMARK    3  A    between atoms: C_11  and  N_14
REMARK    4  A    between atoms: C_15  and  C_17
REMARK    5  A    between atoms: C_22  and  N_23
REMARK    6  A    between atoms: N_23  and  C_24
REMARK    7  A    between atoms: C_24  and  N_26
REMARK    8  A    between atoms: C_27  and  C_29
REMARK                            x       y       z     vdW  Elec       q    Type
REMARK                         _______ _______ _______ _____ _____    ______ ____
ROOT
ATOM      1  C   UNL     1       8.248   6.309  -0.439  0.00  0.00    +0.058 A 
ATOM      2  C   UNL     1       9.483   5.688  -0.642  0.00  0.00    +0.015 A 
ATOM      3  C   UNL     1      10.648   6.404  -0.472  0.00  0.00    +0.001 A 
ATOM      4  C   UNL     1      10.602   7.735  -0.089  0.00  0.00    +0.002 A 
ATOM      5  C   UNL     1       9.389   8.361   0.120  0.00  0.00    +0.024 A 
ATOM      6  C   UNL     1       8.205   7.657  -0.052  0.00  0.00    +0.045 A 
ENDROOT
BRANCH   1   8
ATOM      7  N   UNL     1       7.042   4.225  -0.865  0.00  0.00    -0.281 N 
ATOM      8  C   UNL     1       6.997   5.551  -0.626  0.00  0.00    +0.250 C 
ATOM      9  O   UNL     1       5.925   6.121  -0.564  0.00  0.00    -0.270 OA
ATOM     10  H   UNL     1       7.897   3.780  -0.971  0.00  0.00    +0.155 HD
BRANCH   7  14
ATOM     11  C   UNL     1       3.503   2.036  -1.146  0.00  0.00    +0.031 A 
ATOM     12  C   UNL     1       3.557   3.336  -1.634  0.00  0.00    +0.025 A 
ATOM     13  C   UNL     1       4.726   4.062  -1.535  0.00  0.00    +0.025 A 
ATOM     14  C   UNL     1       5.853   3.490  -0.959  0.00  0.00    +0.034 A 
ATOM     15  C   UNL     1       5.801   2.188  -0.477  0.00  0.00    +0.025 A 
ATOM     16  C   UNL     1       4.630   1.464  -0.569  0.00  0.00    +0.025 A 
BRANCH  11  17
ATOM     17  N   UNL     1       2.316   1.302  -1.240  0.00  0.00    -0.314 N 
ATOM     18  H   UNL     1       2.349   0.342  -1.372  0.00  0.00    +0.152 HD
BRANCH  17  22
ATOM     19  C   UNL     1      -1.358   3.240  -0.953  0.00  0.00    +0.000 A 
ATOM     20  C   UNL     1      -1.275   2.007  -1.574  0.00  0.00    +0.002 A 
ATOM     21  C   UNL     1      -0.059   1.359  -1.666  0.00  0.00    +0.023 A 
ATOM     22  C   UNL     1       1.083   1.952  -1.143  0.00  0.00    +0.031 A 
ATOM     23  C   UNL     1       0.997   3.193  -0.525  0.00  0.00    +0.023 A 
ATOM     24  C   UNL     1      -0.223   3.833  -0.432  0.00  0.00    +0.002 A 
ENDBRANCH  17  22
ENDBRANCH  11  17
ENDBRANCH   7  14
ENDBRANCH   1   8
BRANCH   6  25
ATOM     25  N   UNL     1       6.981   8.286   0.159  0.00  0.00    -0.296 N 
ATOM     26  H   UNL     1       6.274   7.824   0.638  0.00  0.00    +0.154 HD
BRANCH  25  27
ATOM     27  C   UNL     1       6.777   9.536  -0.301  0.00  0.00    +0.141 C 
ATOM     28  S   UNL     1       7.968  10.297  -1.266  0.00  0.00    -0.018 S 
BRANCH  27  29
ATOM     29  N   UNL     1       5.635  10.186  -0.002  0.00  0.00    -0.264 N 
ATOM     30  C   UNL     1       5.431  11.436  -0.462  0.00  0.00    +0.250 C 
ATOM     31  O   UNL     1       6.277  11.977  -1.147  0.00  0.00    -0.270 OA
ATOM     32  H   UNL     1       4.960   9.755   0.545  0.00  0.00    +0.157 HD
BRANCH  30  33
ATOM     33  C   UNL     1       4.180  12.150  -0.134  0.00  0.00    +0.038 A 
ATOM     34  C   UNL     1       3.203  11.529   0.648  0.00  0.00    +0.013 A 
ATOM     35  C   UNL     1       2.039  12.202   0.956  0.00  0.00    +0.002 A 
ATOM     36  C   UNL     1       1.833  13.486   0.482  0.00  0.00    +0.020 A 
ATOM     37  C   UNL     1       2.793  14.105  -0.299  0.00  0.00    +0.042 A 
ATOM     38  C   UNL     1       3.966  13.445  -0.609  0.00  0.00    +0.033 A 
ATOM     39 CL   UNL     1       2.524  15.716  -0.889  0.00  0.00    -0.084 Cl
ENDBRANCH  30  33
ENDBRANCH  27  29
ENDBRANCH  25  27
ENDBRANCH   6  25
TORSDOF 8
