REMARK  Name = ZINC52123154
REMARK  2 active torsions:
REMARK  status: ('A' for Active; 'I' for Inactive)
REMARK    1  A    between atoms: C_1  and  C_2
REMARK    2  A    between atoms: C_2  and  N_9
REMARK                            x       y       z     vdW  Elec       q    Type
REMARK                         _______ _______ _______ _____ _____    ______ ____
ROOT
ATOM      1  N   UNL     1      -1.463  -0.314   0.217  0.00  0.00    -0.306 N 
ATOM      2  C   UNL     1      -2.457  -0.040  -0.708  0.00  0.00    +0.071 A 
ATOM      3  C   UNL     1      -2.595   0.896  -1.722  0.00  0.00    +0.066 A 
ATOM      4  C   UNL     1      -3.743   0.913  -2.491  0.00  0.00    +0.125 A 
ATOM      5  C   UNL     1      -4.760  -0.003  -2.254  0.00  0.00    +0.040 A 
ATOM      6  C   UNL     1      -4.638  -0.938  -1.251  0.00  0.00    +0.030 A 
ATOM      7  C   UNL     1      -3.483  -0.967  -0.465  0.00  0.00    +0.066 A 
ATOM      8  N   UNL     1      -3.079  -1.749   0.572  0.00  0.00    -0.328 N 
ATOM      9  C   UNL     1      -1.890  -1.370   0.970  0.00  0.00    +0.172 A 
ATOM     10  N   UNL     1      -1.178  -1.950   1.999  0.00  0.00    -0.330 N 
ATOM     11  F   UNL     1      -3.876   1.825  -3.478  0.00  0.00    -0.205 F 
ATOM     12  H   UNL     1      -0.258  -1.686   2.161  0.00  0.00    +0.145 HD
ATOM     13  H   UNL     1      -1.596  -2.621   2.561  0.00  0.00    +0.145 HD
ATOM     14  H   UNL     1      -3.591  -2.477   0.956  0.00  0.00    +0.169 HD
ENDROOT
BRANCH   1  16
ATOM     15  C   UNL     1      -0.122   1.497  -0.701  0.00  0.00    +0.036 C 
ATOM     16  C   UNL     1      -0.187   0.393   0.356  0.00  0.00    +0.066 C 
ATOM     17  C   UNL     1       0.948  -0.598   0.100  0.00  0.00    +0.052 C 
ATOM     18  C   UNL     1       2.221  -0.172   0.883  0.00  0.00    +0.168 C 
ATOM     19  S   UNL     1       1.440   0.394   2.458  0.00  0.00    -0.029 S 
ATOM     20  O   UNL     1       2.193   1.475   2.991  0.00  0.00    -0.174 OA
ATOM     21  O   UNL     1       1.159  -0.736   3.272  0.00  0.00    -0.174 OA
ATOM     22  C   UNL     1      -0.133   1.042   1.753  0.00  0.00    +0.194 C 
ENDBRANCH   1  16
TORSDOF 1
