REMARK  Name = ZINC07684008
REMARK  11 active torsions:
REMARK  status: ('A' for Active; 'I' for Inactive)
REMARK    1  A    between atoms: C_1  and  C_2
REMARK    2  A    between atoms: C_2  and  N_64
REMARK    3  A    between atoms: C_3  and  C_4
REMARK    4  A    between atoms: C_3  and  N_64
REMARK    5  A    between atoms: N_9  and  C_10
REMARK    6  A    between atoms: C_20  and  C_21
REMARK    7  A    between atoms: C_20  and  N_64
REMARK    8  A    between atoms: N_23  and  C_24
REMARK    9  A    between atoms: C_24  and  C_25
REMARK   10  A    between atoms: C_24  and  C_26
REMARK   11  A    between atoms: C_24  and  C_27
REMARK                            x       y       z     vdW  Elec       q    Type
REMARK                         _______ _______ _______ _____ _____    ______ ____
ROOT
ATOM      1  C   UNL     1      -7.194   1.196   2.101  0.00  0.00    +0.204 C 
ATOM      2  O   UNL     1      -6.776   1.846   3.035  0.00  0.00    -0.277 OA
ATOM      3  N   UNL     1      -6.384   0.915   1.061  0.00  0.00    -0.242 N 
ATOM      4  C   UNL     1      -5.111   1.356   1.059  0.00  0.00    +0.306 C 
ATOM      5  O   UNL     1      -4.692   2.008   1.996  0.00  0.00    -0.252 OA
ATOM      6  N   UNL     1      -4.302   1.075   0.019  0.00  0.00    -0.294 N 
ATOM      7  H   UNL     1      -6.718   0.394   0.313  0.00  0.00    +0.159 HD
ATOM      8  H   UNL     1      -4.636   0.554  -0.729  0.00  0.00    +0.151 HD
ENDROOT
BRANCH   6   9
ATOM      9  C   UNL     1      -2.917   1.554   0.017  0.00  0.00    +0.037 C 
ATOM     10  C   UNL     1      -2.222   1.101  -1.268  0.00  0.00    +0.029 C 
ATOM     11  C   UNL     1      -0.777   1.602  -1.270  0.00  0.00    -0.008 C 
ATOM     12  C   UNL     1      -0.036   1.028  -0.060  0.00  0.00    +0.007 C 
ATOM     13  C   UNL     1      -0.732   1.482   1.225  0.00  0.00    -0.008 C 
ATOM     14  C   UNL     1      -2.177   0.981   1.227  0.00  0.00    +0.029 C 
ATOM     15  C   UNL     1      -0.721   3.010   1.298  0.00  0.00    +0.007 C 
ATOM     16  C   UNL     1      -1.462   3.584   0.088  0.00  0.00    -0.008 C 
ATOM     17  C   UNL     1      -0.766   3.130  -1.197  0.00  0.00    +0.007 C 
ATOM     18  C   UNL     1      -2.907   3.083   0.090  0.00  0.00    +0.029 C 
ENDBRANCH   6   9
BRANCH   1  19
ATOM     19  C   UNL     1      -8.618   0.702   2.103  0.00  0.00    +0.020 C 
BRANCH  19  20
ATOM     20  N   UNL     1      -9.237   1.049   3.400  0.00  0.00    +0.391 N 
ATOM     21  H   UNL     1      -8.560   0.871   4.151  0.00  0.00    -0.080 HD
BRANCH  20  23
ATOM     22  C   UNL     1      -9.984  -1.178   4.076  0.00  0.00    -0.017 C 
ATOM     23  C   UNL     1     -10.435   0.213   3.626  0.00  0.00    -0.081 C 
ENDBRANCH  20  23
BRANCH  20  24
ATOM     24  C   UNL     1      -9.608   2.479   3.416  0.00  0.00    +0.019 C 
BRANCH  24  25
ATOM     25  C   UNL     1     -10.030   2.856   4.813  0.00  0.00    +0.197 C 
ATOM     26  O   UNL     1     -10.037   2.019   5.691  0.00  0.00    -0.278 OA
ATOM     27  N   UNL     1     -10.400   4.122   5.087  0.00  0.00    -0.312 N 
ATOM     28  H   UNL     1     -10.395   4.792   4.385  0.00  0.00    +0.149 HD
BRANCH  27  29
ATOM     29  C   UNL     1     -10.810   4.489   6.445  0.00  0.00    +0.026 C 
ATOM     30  C   UNL     1      -9.657   4.223   7.415  0.00  0.00    +0.031 C 
ATOM     31  C   UNL     1     -11.177   5.973   6.484  0.00  0.00    +0.031 C 
ATOM     32  C   UNL     1     -12.024   3.652   6.854  0.00  0.00    +0.031 C 
ENDBRANCH  27  29
ENDBRANCH  24  25
ENDBRANCH  20  24
ENDBRANCH  19  20
ENDBRANCH   1  19
TORSDOF 7
