REMARK  Name = ZINC36870722
REMARK  4 active torsions:
REMARK  status: ('A' for Active; 'I' for Inactive)
REMARK    1  A    between atoms: C_3  and  N_11
REMARK    2  A    between atoms: C_4  and  C_8
REMARK    3  A    between atoms: C_12  and  C_14
REMARK    4  A    between atoms: C_14  and  C_15
REMARK                            x       y       z     vdW  Elec       q    Type
REMARK                         _______ _______ _______ _____ _____    ______ ____
ROOT
ATOM      1  N   UNL     1       3.425   2.073  -0.038  0.00  0.00    -0.285 N 
ATOM      2  C   UNL     1       3.343   3.412  -0.170  0.00  0.00    +0.218 C 
ATOM      3  O   UNL     1       2.258   3.954  -0.181  0.00  0.00    -0.275 OA
ATOM      4  H   UNL     1       4.292   1.647   0.051  0.00  0.00    +0.155 HD
ENDROOT
BRANCH   1   7
ATOM      5  C   UNL     1      -0.032   0.999  -0.649  0.00  0.00    +0.022 A 
ATOM      6  C   UNL     1       1.117   1.765  -0.656  0.00  0.00    +0.025 A 
ATOM      7  C   UNL     1       2.267   1.302  -0.032  0.00  0.00    +0.048 A 
ATOM      8  C   UNL     1       2.255   0.051   0.607  0.00  0.00    +0.086 A 
ATOM      9  C   UNL     1       1.085  -0.714   0.606  0.00  0.00    +0.037 A 
ATOM     10  C   UNL     1      -0.047  -0.237  -0.019  0.00  0.00    +0.042 A 
ATOM     11 CL   UNL     1      -1.500  -1.188  -0.019  0.00  0.00    -0.084 Cl
BRANCH   8  12
ATOM     12  C   UNL     1       3.468  -0.452   1.272  0.00  0.00    +0.388 C 
ATOM     13  O   UNL     1       3.484  -1.581   1.743  0.00  0.00    -0.241 OA
ATOM     14  O   UNL     1       4.460   0.259   1.355  0.00  0.00    -0.241 OA
ENDBRANCH   8  12
ENDBRANCH   1   7
BRANCH   2  15
ATOM     15  C   UNL     1       4.598   4.234  -0.305  0.00  0.00    +0.101 C 
BRANCH  15  16
ATOM     16  C   UNL     1       4.228   5.713  -0.439  0.00  0.00    +0.020 C 
ATOM     17  C   UNL     1       3.574   6.196   0.867  0.00  0.00    +0.028 C 
ATOM     18  C   UNL     1       3.497   7.749   0.824  0.00  0.00    +0.166 C 
ATOM     19  S   UNL     1       5.136   8.148   0.084  0.00  0.00    -0.031 S 
ATOM     20  O   UNL     1       6.074   8.365   1.128  0.00  0.00    -0.174 OA
ATOM     21  O   UNL     1       4.962   9.142  -0.917  0.00  0.00    -0.174 OA
ATOM     22  C   UNL     1       5.505   6.539  -0.726  0.00  0.00    +0.170 C 
ENDBRANCH  15  16
ENDBRANCH   2  15
TORSDOF 4
