REMARK  Name = ZINC36307927
REMARK  16 active torsions:
REMARK  status: ('A' for Active; 'I' for Inactive)
REMARK    1  A    between atoms: C_1  and  C_2
REMARK    2  A    between atoms: C_2  and  C_3
REMARK    3  A    between atoms: C_2  and  C_4
REMARK    4  A    between atoms: C_5  and  C_23
REMARK    5  A    between atoms: C_6  and  O_15
REMARK    6  A    between atoms: N_7  and  C_9
REMARK    7  A    between atoms: O_15  and  C_16
REMARK    8  A    between atoms: C_23  and  N_24
REMARK    9  A    between atoms: N_24  and  C_25
REMARK   10  A    between atoms: N_24  and  C_29
REMARK   11  A    between atoms: C_25  and  C_26
REMARK   12  A    between atoms: C_29  and  C_30
REMARK   13  A    between atoms: C_30  and  C_32
REMARK   14  A    between atoms: C_30  and  O_35
REMARK   15  A    between atoms: C_32  and  C_33
REMARK   16  A    between atoms: C_32  and  C_34
REMARK                            x       y       z     vdW  Elec       q    Type
REMARK                         _______ _______ _______ _____ _____    ______ ____
ROOT
ATOM      1  C   UNL     1      -2.118  -0.815   0.907  0.00  0.00    +0.071 A 
ATOM      2  C   UNL     1      -2.290  -1.347  -0.375  0.00  0.00    +0.021 A 
ATOM      3  C   UNL     1      -3.604  -1.664  -0.523  0.00  0.00    +0.225 A 
ATOM      4  N   UNL     1      -4.236  -1.339   0.637  0.00  0.00    -0.200 N 
ATOM      5  N   UNL     1      -3.277  -0.815   1.514  0.00  0.00    -0.168 NA
ENDROOT
BRANCH   4   6
ATOM      6  C   UNL     1      -5.601  -1.504   0.908  0.00  0.00    +0.069 A 
ATOM      7  C   UNL     1      -6.547  -1.154  -0.045  0.00  0.00    +0.028 A 
ATOM      8  C   UNL     1      -7.892  -1.318   0.225  0.00  0.00    +0.002 A 
ATOM      9  C   UNL     1      -8.296  -1.830   1.444  0.00  0.00    +0.000 A 
ATOM     10  C   UNL     1      -7.356  -2.180   2.396  0.00  0.00    +0.002 A 
ATOM     11  C   UNL     1      -6.010  -2.024   2.129  0.00  0.00    +0.028 A 
ENDBRANCH   4   6
BRANCH   1  13
ATOM     12  C   UNL     1      -0.981   1.111   1.976  0.00  0.00    +0.014 C 
ATOM     13  C   UNL     1      -0.817  -0.331   1.492  0.00  0.00    +0.034 C 
ATOM     14  C   UNL     1      -0.425  -1.223   2.672  0.00  0.00    +0.014 C 
ENDBRANCH   1  13
BRANCH   3  15
ATOM     15  O   UNL     1      -4.180  -2.206  -1.626  0.00  0.00    -0.435 OA
BRANCH  15  16
ATOM     16  C   UNL     1      -4.574  -1.365  -2.619  0.00  0.00    +0.165 A 
ATOM     17  C   UNL     1      -4.285  -0.011  -2.537  0.00  0.00    +0.049 A 
ATOM     18  C   UNL     1      -4.686   0.843  -3.547  0.00  0.00    +0.004 A 
ATOM     19  C   UNL     1      -5.375   0.348  -4.640  0.00  0.00    +0.003 A 
ATOM     20  C   UNL     1      -5.665  -1.001  -4.725  0.00  0.00    +0.042 A 
ATOM     21  C   UNL     1      -5.261  -1.861  -3.720  0.00  0.00    +0.165 A 
ATOM     22  F   UNL     1      -5.540  -3.180  -3.805  0.00  0.00    -0.202 F 
ENDBRANCH  15  16
ENDBRANCH   3  15
BRANCH   2  23
ATOM     23  C   UNL     1      -1.211  -1.534  -1.410  0.00  0.00    -0.036 C 
BRANCH  23  24
ATOM     24  N   UNL     1      -0.513  -2.803  -1.165  0.00  0.00    +0.384 N 
ATOM     25  H   UNL     1      -0.167  -2.820  -0.218  0.00  0.00    -0.081 HD
BRANCH  24  26
ATOM     26  C   UNL     1       0.613  -2.931  -2.100  0.00  0.00    -0.075 C 
BRANCH  26  27
ATOM     27  C   UNL     1       1.606  -1.792  -1.861  0.00  0.00    -0.028 C 
ATOM     28  C   UNL     1       1.816  -0.788  -2.997  0.00  0.00    +0.002 C 
ATOM     29  C   UNL     1       2.907  -1.808  -2.666  0.00  0.00    +0.002 C 
ENDBRANCH  26  27
ENDBRANCH  24  26
BRANCH  24  30
ATOM     30  C   UNL     1      -1.445  -3.921  -1.366  0.00  0.00    -0.046 C 
BRANCH  30  31
ATOM     31  C   UNL     1      -0.780  -5.226  -0.922  0.00  0.00    +0.101 C 
BRANCH  31  32
ATOM     32  C   UNL     1      -1.813  -6.354  -0.934  0.00  0.00    +0.010 C 
ATOM     33  C   UNL     1      -2.278  -6.605  -2.370  0.00  0.00    +0.010 C 
ATOM     34  C   UNL     1      -1.181  -7.630  -0.372  0.00  0.00    +0.010 C 
ENDBRANCH  31  32
BRANCH  31  35
ATOM     35  O   UNL     1       0.286  -5.546  -1.819  0.00  0.00    -0.393 OA
ATOM     36  H   UNL     1       0.005  -5.666  -2.736  0.00  0.00    +0.210 HD
ENDBRANCH  31  35
ENDBRANCH  30  31
ENDBRANCH  24  30
ENDBRANCH  23  24
ENDBRANCH   2  23
TORSDOF 12
