REMARK  Name = ZINC22799654
REMARK  7 active torsions:
REMARK  status: ('A' for Active; 'I' for Inactive)
REMARK    1  A    between atoms: C_1  and  C_2
REMARK    2  A    between atoms: C_2  and  C_4
REMARK    3  A    between atoms: C_2  and  N_18
REMARK    4  A    between atoms: N_6  and  C_7
REMARK    5  A    between atoms: C_8  and  C_15
REMARK    6  A    between atoms: N_21  and  C_24
REMARK    7  A    between atoms: C_24  and  C_25
REMARK                            x       y       z     vdW  Elec       q    Type
REMARK                         _______ _______ _______ _____ _____    ______ ____
ROOT
ATOM      1  C   UNL     1      -1.668   0.750  -5.154  0.00  0.00    -0.004 C 
ATOM      2  C   UNL     1      -1.803   2.255  -4.912  0.00  0.00    +0.017 C 
ENDROOT
BRANCH   2   3
ATOM      3  N   UNL     1      -2.789   2.815  -5.845  0.00  0.00    +0.389 N 
ATOM      4  C   UNL     1      -4.098   2.168  -5.678  0.00  0.00    -0.062 C 
ATOM      5  C   UNL     1      -5.115   2.832  -6.610  0.00  0.00    +0.066 C 
ATOM      6  N   UNL     1      -4.648   2.720  -7.999  0.00  0.00    -0.300 NA
ATOM      7  C   UNL     1      -3.340   3.366  -8.166  0.00  0.00    +0.066 C 
ATOM      8  C   UNL     1      -2.323   2.703  -7.234  0.00  0.00    -0.062 C 
ATOM      9  H   UNL     1      -2.906   3.883  -5.611  0.00  0.00    -0.081 HD
BRANCH   6  10
ATOM     10  C   UNL     1      -5.635   3.279  -8.933  0.00  0.00    +0.147 C 
BRANCH  10  11
ATOM     11  C   UNL     1      -6.884   2.436  -8.909  0.00  0.00    +0.093 A 
ATOM     12  N   UNL     1      -7.933   2.567  -8.146  0.00  0.00    -0.243 NA
ATOM     13  C   UNL     1      -8.995   1.738  -8.225  0.00  0.00    +0.079 A 
ATOM     14  C   UNL     1     -10.192   1.751  -7.476  0.00  0.00    +0.029 A 
ATOM     15  C   UNL     1     -11.161   0.823  -7.700  0.00  0.00    +0.002 A 
ATOM     16  C   UNL     1     -11.015  -0.164  -8.665  0.00  0.00    +0.001 A 
ATOM     17  C   UNL     1      -9.858  -0.210  -9.419  0.00  0.00    +0.017 A 
ATOM     18  C   UNL     1      -8.873   0.723  -9.201  0.00  0.00    +0.039 A 
ATOM     19  S   UNL     1      -7.276   1.062  -9.895  0.00  0.00    -0.071 S 
ENDBRANCH  10  11
ENDBRANCH   6  10
ENDBRANCH   2   3
BRANCH   2  20
ATOM     20  C   UNL     1      -2.257   2.497  -3.496  0.00  0.00    +0.204 C 
ATOM     21  O   UNL     1      -3.300   3.079  -3.285  0.00  0.00    -0.277 OA
ATOM     22  N   UNL     1      -1.504   2.067  -2.463  0.00  0.00    -0.281 N 
ATOM     23  H   UNL     1      -0.558   1.540  -2.655  0.00  0.00    +0.155 HD
BRANCH  22  24
ATOM     24  C   UNL     1      -1.923   2.290  -1.160  0.00  0.00    +0.084 A 
ATOM     25  C   UNL     1      -1.294   1.929   0.019  0.00  0.00    +0.068 A 
ATOM     26  C   UNL     1      -1.949   2.292   1.275  0.00  0.00    -0.023 A 
ATOM     27  C   UNL     1      -3.116   2.947   1.141  0.00  0.00    -0.004 A 
ATOM     28  S   UNL     1      -3.359   3.086  -0.613  0.00  0.00    -0.077 S 
ATOM     29  C   UNL     1      -3.727   3.290   2.473  0.00  0.00    +0.043 C 
ATOM     30  C   UNL     1      -2.568   3.137   3.483  0.00  0.00    +0.010 C 
ATOM     31  C   UNL     1      -1.659   2.119   2.766  0.00  0.00    +0.037 C 
BRANCH  25  32
ATOM     32  C   UNL     1      -0.014   1.213   0.009  0.00  0.00    +0.244 C 
ATOM     33  O   UNL     1       0.002  -0.004   0.002  0.00  0.00    -0.270 OA
ATOM     34  N   UNL     1       1.143   1.903   0.001  0.00  0.00    -0.325 N 
ATOM     35  H   UNL     1       2.103   1.366  -0.006  0.00  0.00    +0.145 HD
ATOM     36  H   UNL     1       1.129   3.002   0.003  0.00  0.00    +0.145 HD
ENDBRANCH  25  32
ENDBRANCH  22  24
ENDBRANCH   2  20
TORSDOF 6
