REMARK  Name = ZINC43290619
REMARK  7 active torsions:
REMARK  status: ('A' for Active; 'I' for Inactive)
REMARK    1  A    between atoms: C_1  and  C_2
REMARK    2  A    between atoms: C_2  and  C_3
REMARK    3  A    between atoms: C_3  and  C_5
REMARK    4  A    between atoms: C_3  and  N_19
REMARK    5  A    between atoms: C_5  and  C_7
REMARK    6  A    between atoms: C_5  and  S_13
REMARK    7  A    between atoms: S_13  and  C_14
REMARK                            x       y       z     vdW  Elec       q    Type
REMARK                         _______ _______ _______ _____ _____    ______ ____
ROOT
ATOM      1  C   UNL     1      -1.488  -1.874   0.073  0.00  0.00    +0.076 C 
ENDROOT
BRANCH   1   2
ATOM      2  C   UNL     1      -0.729  -2.272   1.313  0.00  0.00    +0.003 A 
ATOM      3  C   UNL     1       0.393  -3.024   1.422  0.00  0.00    +0.027 A 
ATOM      4  C   UNL     1       0.921  -3.263   2.678  0.00  0.00    +0.025 A 
ATOM      5  C   UNL     1       0.300  -2.737   3.763  0.00  0.00    +0.060 A 
ATOM      6  S   UNL     1      -1.071  -1.867   3.018  0.00  0.00    -0.099 S 
ATOM      7 BR   UNL     1       2.484  -4.307   2.880  0.00  0.00    -0.050 Br
ENDBRANCH   1   2
BRANCH   1   8
ATOM      8  C   UNL     1      -1.513  -0.349  -0.043  0.00  0.00    -0.057 C 
BRANCH   8   9
ATOM      9  N   UNL     1      -0.139   0.169   0.016  0.00  0.00    +0.381 N 
ATOM     10  H   UNL     1       0.295  -0.127   0.877  0.00  0.00    -0.090 HD
ATOM     11  H   UNL     1       0.388  -0.187  -0.767  0.00  0.00    -0.090 HD
ATOM     12  H   UNL     1      -0.158   1.177  -0.022  0.00  0.00    -0.090 HD
ENDBRANCH   8   9
BRANCH   8  14
ATOM     13  C   UNL     1      -2.458   1.751   0.928  0.00  0.00    +0.002 C 
ATOM     14  C   UNL     1      -2.328   0.237   1.112  0.00  0.00    -0.018 C 
ENDBRANCH   8  14
ENDBRANCH   1   8
BRANCH   1  15
ATOM     15  S   UNL     1      -3.188  -2.500   0.178  0.00  0.00    -0.090 S 
BRANCH  15  16
ATOM     16  C   UNL     1      -3.875  -2.135  -1.403  0.00  0.00    +0.159 A 
ATOM     17  N   UNL     1      -3.352  -1.477  -2.430  0.00  0.00    -0.135 NA
ATOM     18  N   UNL     1      -3.991  -1.304  -3.503  0.00  0.00    -0.149 NA
ATOM     19  C   UNL     1      -5.215  -1.762  -3.673  0.00  0.00    +0.182 A 
ATOM     20  S   UNL     1      -5.476  -2.550  -2.087  0.00  0.00    -0.048 S 
ENDBRANCH  15  16
ENDBRANCH   1  15
TORSDOF 6
