REMARK  Name = ZINC63350052
REMARK  9 active torsions:
REMARK  status: ('A' for Active; 'I' for Inactive)
REMARK    1  A    between atoms: C_1  and  O_2
REMARK    2  A    between atoms: O_2  and  C_3
REMARK    3  A    between atoms: C_6  and  C_18
REMARK    4  A    between atoms: C_8  and  C_9
REMARK    5  A    between atoms: C_9  and  O_10
REMARK    6  A    between atoms: O_10  and  C_11
REMARK    7  A    between atoms: C_25  and  O_30
REMARK    8  A    between atoms: O_30  and  C_31
REMARK    9  A    between atoms: C_31  and  C_32
REMARK                            x       y       z     vdW  Elec       q    Type
REMARK                         _______ _______ _______ _____ _____    ______ ____
ROOT
ATOM      1  C   UNL     1       2.506  -2.503  -4.381  0.00  0.00    +0.111 C 
ATOM      2  C   UNL     1       1.560  -2.503  -5.584  0.00  0.00    +0.128 C 
ATOM      3  C   UNL     1       2.368  -3.036  -6.762  0.00  0.00    -0.035 C 
ATOM      4  C   UNL     1       1.677  -4.049  -7.263  0.00  0.00    +0.003 A 
ATOM      5  C   UNL     1       1.894  -4.901  -8.443  0.00  0.00    +0.055 A 
ATOM      6  C   UNL     1       0.976  -5.882  -8.666  0.00  0.00    +0.122 A 
ATOM      7  C   UNL     1      -0.139  -6.114  -7.846  0.00  0.00    +0.048 A 
ATOM      8  C   UNL     1      -0.437  -5.386  -6.740  0.00  0.00    +0.029 A 
ATOM      9  C   UNL     1       0.481  -4.291  -6.397  0.00  0.00    +0.043 A 
ATOM     10  N   UNL     1       0.431  -3.417  -5.413  0.00  0.00    -0.376 N 
ATOM     11  C   UNL     1       3.728  -2.479  -7.105  0.00  0.00    +0.048 C 
ATOM     12  C   UNL     1       4.517  -2.426  -5.783  0.00  0.00    +0.086 C 
ATOM     13  N   UNL     1       3.722  -1.760  -4.747  0.00  0.00    -0.307 NA
ATOM     14  H   UNL     1       3.500  -0.813  -5.015  0.00  0.00    +0.123 HD
ATOM     15  H   UNL     1      -0.225  -3.381  -4.699  0.00  0.00    +0.160 HD
ENDROOT
BRANCH   1  19
ATOM     16  C   UNL     1       0.606  -0.607  -1.056  0.00  0.00    +0.126 A 
ATOM     17  C   UNL     1       1.173   0.161  -2.063  0.00  0.00    +0.046 A 
ATOM     18  C   UNL     1       1.786  -0.455  -3.136  0.00  0.00    +0.009 A 
ATOM     19  C   UNL     1       1.836  -1.835  -3.208  0.00  0.00    -0.028 A 
ATOM     20  C   UNL     1       1.271  -2.602  -2.207  0.00  0.00    +0.015 A 
ATOM     21  C   UNL     1       0.661  -1.991  -1.128  0.00  0.00    +0.032 A 
BRANCH  16  23
ATOM     22  C   UNL     1      -0.017   1.425   0.010  0.00  0.00    +0.277 C 
ATOM     23  O   UNL     1       0.002  -0.004   0.002  0.00  0.00    -0.495 OA
ENDBRANCH  16  23
BRANCH  21  24
ATOM     24  C   UNL     1       0.051  -2.828  -0.033  0.00  0.00    +0.268 C 
BRANCH  24  25
ATOM     25  O   UNL     1       0.235  -4.213  -0.334  0.00  0.00    -0.487 OA
BRANCH  25  26
ATOM     26  C   UNL     1      -0.261  -5.110   0.560  0.00  0.00    +0.121 A 
ATOM     27  C   UNL     1      -0.916  -4.665   1.699  0.00  0.00    +0.048 A 
ATOM     28  C   UNL     1      -1.419  -5.577   2.606  0.00  0.00    +0.042 A 
ATOM     29  C   UNL     1      -1.269  -6.935   2.379  0.00  0.00    +0.124 A 
ATOM     30  C   UNL     1      -0.615  -7.380   1.243  0.00  0.00    +0.042 A 
ATOM     31  C   UNL     1      -0.117  -6.470   0.331  0.00  0.00    +0.048 A 
ATOM     32  F   UNL     1      -1.762  -7.826   3.267  0.00  0.00    -0.205 F 
ENDBRANCH  25  26
ENDBRANCH  24  25
ENDBRANCH  21  24
ENDBRANCH   1  19
BRANCH   6  33
ATOM     33  O   UNL     1       1.149  -6.685  -9.749  0.00  0.00    -0.487 OA
BRANCH  33  34
ATOM     34  C   UNL     1       0.174  -7.706  -9.962  0.00  0.00    +0.264 C 
BRANCH  34  35
ATOM     35  C   UNL     1       0.529  -8.490 -11.199  0.00  0.00    -0.010 A 
ATOM     36  C   UNL     1       0.049  -8.089 -12.432  0.00  0.00    +0.007 A 
ATOM     37  C   UNL     1       0.375  -8.808 -13.567  0.00  0.00    +0.000 A 
ATOM     38  C   UNL     1       1.181  -9.927 -13.469  0.00  0.00    +0.000 A 
ATOM     39  C   UNL     1       1.661 -10.327 -12.236  0.00  0.00    +0.000 A 
ATOM     40  C   UNL     1       1.339  -9.606 -11.102  0.00  0.00    +0.007 A 
ENDBRANCH  34  35
ENDBRANCH  33  34
ENDBRANCH   6  33
TORSDOF 8
