REMARK  Name = ZINC08721726
REMARK  3 active torsions:
REMARK  status: ('A' for Active; 'I' for Inactive)
REMARK    1  A    between atoms: C_1  and  N_45
REMARK    2  A    between atoms: C_12  and  C_15
REMARK    3  A    between atoms: C_18  and  C_20
REMARK                            x       y       z     vdW  Elec       q    Type
REMARK                         _______ _______ _______ _____ _____    ______ ____
ROOT
ATOM      1  C   UNL     1       6.397   5.246  -0.227  0.00  0.00    -0.096 C 
ATOM      2  C   UNL     1       4.324   5.224   1.025  0.00  0.00    -0.074 C 
ATOM      3  C   UNL     1       2.808   5.076   0.872  0.00  0.00    +0.018 C 
ATOM      4  C   UNL     1       2.514   3.656   0.401  0.00  0.00    -0.027 A 
ATOM      5  C   UNL     1       3.501   2.906  -0.141  0.00  0.00    -0.021 A 
ATOM      6  S   UNL     1       2.734   1.358  -0.536  0.00  0.00    -0.080 S 
ATOM      7  C   UNL     1       1.145   1.702   0.000  0.00  0.00    +0.080 A 
ATOM      8  C   UNL     1       1.214   3.016   0.491  0.00  0.00    +0.068 A 
ATOM      9  C   UNL     1      -0.028   3.601   1.049  0.00  0.00    +0.248 C 
ATOM     10  O   UNL     1      -0.016   4.660   1.648  0.00  0.00    -0.270 OA
ATOM     11  N   UNL     1      -1.173   2.910   0.865  0.00  0.00    -0.287 N 
ATOM     12  C   UNL     1      -1.276   1.724   0.017  0.00  0.00    +0.227 C 
ATOM     13  N   UNL     1      -0.011   0.966   0.007  0.00  0.00    -0.314 N 
ATOM     14  C   UNL     1       4.923   3.322  -0.350  0.00  0.00    -0.036 C 
ATOM     15  H   UNL     1      -1.972   3.221   1.319  0.00  0.00    +0.151 HD
ATOM     16  H   UNL     1       0.002  -0.004   0.002  0.00  0.00    +0.149 HD
ATOM     17  N   UNL     1       4.987   4.799  -0.224  0.00  0.00    +0.381 N 
ATOM     18  H   UNL     1       4.501   5.223  -1.022  0.00  0.00    -0.082 HD
ENDROOT
BRANCH  12  19
ATOM     19  C   UNL     1      -1.609   2.145  -1.391  0.00  0.00    +0.144 A 
ATOM     20  C   UNL     1      -2.292   3.254  -1.738  0.00  0.00    +0.049 A 
ATOM     21  C   UNL     1      -2.378   3.262  -3.144  0.00  0.00    +0.050 A 
ATOM     22  C   UNL     1      -1.737   2.146  -3.583  0.00  0.00    +0.135 A 
ATOM     23  O   UNL     1      -1.271   1.481  -2.508  0.00  0.00    -0.456 OA
BRANCH  22  24
ATOM     24  C   UNL     1      -1.574   1.736  -4.993  0.00  0.00    +0.020 A 
ATOM     25  C   UNL     1      -2.109   2.521  -6.017  0.00  0.00    +0.031 A 
ATOM     26  C   UNL     1      -1.950   2.135  -7.333  0.00  0.00    +0.043 A 
ATOM     27  C   UNL     1      -1.270   0.968  -7.638  0.00  0.00    +0.040 A 
ATOM     28  C   UNL     1      -0.742   0.184  -6.627  0.00  0.00    +0.043 A 
ATOM     29  C   UNL     1      -0.890   0.561  -5.307  0.00  0.00    +0.031 A 
ATOM     30 CL   UNL     1       0.109  -1.278  -7.020  0.00  0.00    -0.083 Cl
ATOM     31 CL   UNL     1      -2.610   3.112  -8.607  0.00  0.00    -0.083 Cl
ENDBRANCH  22  24
ENDBRANCH  12  19
TORSDOF 2
