REMARK  Name = ZINC39663892
REMARK  10 active torsions:
REMARK  status: ('A' for Active; 'I' for Inactive)
REMARK    1  A    between atoms: C_1  and  N_2
REMARK    2  A    between atoms: N_2  and  C_3
REMARK    3  A    between atoms: N_2  and  C_4
REMARK    4  A    between atoms: C_4  and  C_6
REMARK    5  A    between atoms: C_4  and  C_34
REMARK    6  A    between atoms: C_6  and  N_7
REMARK    7  A    between atoms: C_8  and  C_10
REMARK    8  A    between atoms: C_21  and  C_23
REMARK    9  A    between atoms: C_37  and  O_40
REMARK   10  A    between atoms: O_40  and  C_41
REMARK                            x       y       z     vdW  Elec       q    Type
REMARK                         _______ _______ _______ _____ _____    ______ ____
ROOT
ATOM      1  C   UNL     1       0.341  -2.924   3.202  0.00  0.00    +0.100 C 
ATOM      2  C   UNL     1       1.631  -2.075   3.249  0.00  0.00    +0.121 C 
ATOM      3  N   UNL     1       2.646  -2.969   3.854  0.00  0.00    -0.297 N 
ATOM      4  C   UNL     1       2.366  -4.299   3.261  0.00  0.00    +0.115 C 
ATOM      5  C   UNL     1       0.828  -4.383   3.209  0.00  0.00    -0.004 C 
ATOM      6  C   UNL     1       0.298  -5.111   4.441  0.00  0.00    -0.010 C 
ATOM      7  C   UNL     1       0.749  -6.574   4.396  0.00  0.00    -0.082 C 
ATOM      8  N   UNL     1       0.241  -7.207   3.173  0.00  0.00    +0.379 N 
ATOM      9  C   UNL     1       0.828  -6.559   1.993  0.00  0.00    -0.082 C 
ATOM     10  C   UNL     1       0.382  -5.096   1.937  0.00  0.00    -0.010 C 
ATOM     11  C   UNL     1       3.607  -2.647   4.742  0.00  0.00    +0.260 C 
ATOM     12  O   UNL     1       4.369  -3.498   5.147  0.00  0.00    -0.271 OA
ATOM     13  H   UNL     1       0.487  -8.185   3.175  0.00  0.00    -0.086 HD
ATOM     14  H   UNL     1      -0.763  -7.115   3.140  0.00  0.00    -0.086 HD
ENDROOT
BRANCH  11  15
ATOM     15  C   UNL     1       3.734  -1.227   5.233  0.00  0.00    +0.296 C 
ATOM     16  C   UNL     1       4.139  -0.312   4.070  0.00  0.00    +0.283 C 
ATOM     17  O   UNL     1       4.264   1.023   4.573  0.00  0.00    -0.484 OA
ATOM     18  C   UNL     1       4.955   1.176   5.736  0.00  0.00    +0.162 A 
ATOM     19  C   UNL     1       5.424   2.433   6.088  0.00  0.00    +0.049 A 
ATOM     20  C   UNL     1       6.124   2.605   7.267  0.00  0.00    +0.004 A 
ATOM     21  C   UNL     1       6.359   1.526   8.098  0.00  0.00    +0.004 A 
ATOM     22  C   UNL     1       5.896   0.271   7.752  0.00  0.00    +0.049 A 
ATOM     23  C   UNL     1       5.194   0.091   6.570  0.00  0.00    +0.163 A 
ATOM     24  O   UNL     1       4.750  -1.153   6.239  0.00  0.00    -0.473 OA
ENDBRANCH  11  15
BRANCH   1  26
ATOM     25  N   UNL     1      -1.772  -2.773   1.926  0.00  0.00    -0.316 N 
ATOM     26  C   UNL     1      -0.432  -2.635   1.941  0.00  0.00    +0.218 C 
ATOM     27  O   UNL     1       0.152  -2.278   0.940  0.00  0.00    -0.275 OA
ATOM     28  H   UNL     1      -2.240  -3.058   2.727  0.00  0.00    +0.149 HD
BRANCH  25  29
ATOM     29  C   UNL     1      -2.524  -2.492   0.700  0.00  0.00    +0.093 C 
BRANCH  29  30
ATOM     30  C   UNL     1      -3.997  -2.846   0.912  0.00  0.00    -0.021 C 
BRANCH  30  31
ATOM     31  C   UNL     1      -4.130  -4.332   1.127  0.00  0.00    -0.059 A 
ATOM     32  C   UNL     1      -4.110  -5.190   0.043  0.00  0.00    +0.005 A 
ATOM     33  C   UNL     1      -4.232  -6.552   0.236  0.00  0.00    +0.046 A 
ATOM     34  C   UNL     1      -4.376  -7.059   1.520  0.00  0.00    +0.120 A 
ATOM     35  C   UNL     1      -4.396  -6.196   2.606  0.00  0.00    +0.046 A 
ATOM     36  C   UNL     1      -4.268  -4.835   2.407  0.00  0.00    +0.005 A 
BRANCH  34  37
ATOM     37  O   UNL     1      -4.497  -8.399   1.713  0.00  0.00    -0.495 OA
ATOM     38  C   UNL     1      -4.641  -8.850   3.061  0.00  0.00    +0.277 C 
ENDBRANCH  34  37
ENDBRANCH  30  31
BRANCH  30  40
ATOM     39  C   UNL     1      -6.177  -2.836  -0.089  0.00  0.00    -0.096 C 
ATOM     40  N   UNL     1      -4.771  -2.451  -0.272  0.00  0.00    +0.382 N 
ATOM     41  C   UNL     1      -4.682  -0.996  -0.452  0.00  0.00    -0.096 C 
ATOM     42  H   UNL     1      -4.399  -2.914  -1.087  0.00  0.00    -0.082 HD
ENDBRANCH  30  40
ENDBRANCH  29  30
ENDBRANCH  25  29
ENDBRANCH   1  26
TORSDOF 7
