REMARK  Name = ZINC09402974
REMARK  10 active torsions:
REMARK  status: ('A' for Active; 'I' for Inactive)
REMARK    1  A    between atoms: C_1  and  C_2
REMARK    2  A    between atoms: C_5  and  N_8
REMARK    3  A    between atoms: N_8  and  S_9
REMARK    4  A    between atoms: S_9  and  C_12
REMARK    5  A    between atoms: C_16  and  C_18
REMARK    6  A    between atoms: N_20  and  C_21
REMARK    7  A    between atoms: C_21  and  C_23
REMARK    8  A    between atoms: C_21  and  C_24
REMARK    9  A    between atoms: C_24  and  C_26
REMARK   10  A    between atoms: C_24  and  N_62
REMARK                            x       y       z     vdW  Elec       q    Type
REMARK                         _______ _______ _______ _____ _____    ______ ____
ROOT
ATOM      1  C   UNL     1      -2.297  -0.606  -0.042  0.00  0.00    +0.109 A 
ATOM      2  C   UNL     1      -2.813   0.633   0.295  0.00  0.00    +0.029 A 
ATOM      3  C   UNL     1      -4.077   1.001  -0.129  0.00  0.00    +0.003 A 
ATOM      4  C   UNL     1      -4.836   0.131  -0.884  0.00  0.00    +0.013 A 
ATOM      5  C   UNL     1      -4.323  -1.122  -1.224  0.00  0.00    +0.039 A 
ATOM      6  C   UNL     1      -3.045  -1.486  -0.797  0.00  0.00    +0.041 A 
ENDROOT
BRANCH   5   7
ATOM      7  C   UNL     1      -5.131  -2.060  -2.032  0.00  0.00    +0.244 C 
ATOM      8  O   UNL     1      -4.682  -3.151  -2.326  0.00  0.00    -0.270 OA
ATOM      9  N   UNL     1      -6.365  -1.706  -2.443  0.00  0.00    -0.310 N 
ATOM     10  H   UNL     1      -6.723  -0.836  -2.209  0.00  0.00    +0.149 HD
BRANCH   9  11
ATOM     11  C   UNL     1      -7.165  -2.636  -3.244  0.00  0.00    +0.061 C 
ATOM     12  C   UNL     1      -7.910  -3.598  -2.316  0.00  0.00    +0.026 C 
BRANCH  11  13
ATOM     13  C   UNL     1      -8.176  -1.849  -4.081  0.00  0.00    -0.010 C 
BRANCH  13  18
ATOM     14  C   UNL     1      -6.635  -1.792  -5.965  0.00  0.00    -0.078 C 
ATOM     15  C   UNL     1      -6.404  -0.829  -7.156  0.00  0.00    -0.020 C 
ATOM     16  C   UNL     1      -7.755  -0.084  -7.264  0.00  0.00    -0.020 C 
ATOM     17  C   UNL     1      -8.407  -0.229  -5.877  0.00  0.00    -0.078 C 
ATOM     18  N   UNL     1      -7.454  -0.976  -5.055  0.00  0.00    +0.386 N 
ATOM     19  H   UNL     1      -6.853  -0.322  -4.540  0.00  0.00    -0.081 HD
ENDBRANCH  13  18
BRANCH  13  20
ATOM     20  C   UNL     1      -9.026  -0.999  -3.172  0.00  0.00    -0.022 A 
ATOM     21  C   UNL     1     -10.282  -1.229  -2.716  0.00  0.00    +0.009 A 
ATOM     22  C   UNL     1     -10.872  -0.301  -1.879  0.00  0.00    +0.008 A 
ATOM     23  C   UNL     1     -10.182   0.817  -1.547  0.00  0.00    +0.045 A 
ATOM     24  S   UNL     1      -8.645   0.576  -2.423  0.00  0.00    -0.103 S 
ENDBRANCH  13  20
ENDBRANCH  11  13
ENDBRANCH   9  11
ENDBRANCH   5   7
BRANCH   1  25
ATOM     25  S   UNL     1      -0.684  -1.064   0.499  0.00  0.00    +0.072 S 
ATOM     26  O   UNL     1      -0.609  -2.479   0.403  0.00  0.00    -0.150 OA
ATOM     27  O   UNL     1      -0.451  -0.369   1.716  0.00  0.00    -0.150 OA
BRANCH  25  28
ATOM     28  N   UNL     1       0.393  -0.458  -0.605  0.00  0.00    -0.216 N 
ATOM     29  H   UNL     1       1.058   0.192  -0.327  0.00  0.00    +0.174 HD
BRANCH  28  34
ATOM     30  C   UNL     1       0.193  -2.180  -6.004  0.00  0.00    +0.044 C 
ATOM     31  C   UNL     1       0.246  -1.722  -4.569  0.00  0.00    -0.050 A 
ATOM     32  C   UNL     1       0.352  -0.374  -4.278  0.00  0.00    +0.005 A 
ATOM     33  C   UNL     1       0.401   0.048  -2.964  0.00  0.00    +0.025 A 
ATOM     34  C   UNL     1       0.343  -0.882  -1.934  0.00  0.00    +0.048 A 
ATOM     35  C   UNL     1       0.242  -2.235  -2.230  0.00  0.00    +0.025 A 
ATOM     36  C   UNL     1       0.188  -2.651  -3.546  0.00  0.00    +0.005 A 
ENDBRANCH  28  34
ENDBRANCH  25  28
ENDBRANCH   1  25
TORSDOF 8
