REMARK  Name = ZINC03771366
REMARK  10 active torsions:
REMARK  status: ('A' for Active; 'I' for Inactive)
REMARK    1  A    between atoms: C_1  and  O_2
REMARK    2  A    between atoms: O_2  and  C_3
REMARK    3  A    between atoms: C_6  and  N_9
REMARK    4  A    between atoms: C_10  and  C_12
REMARK    5  A    between atoms: C_12  and  C_14
REMARK    6  A    between atoms: C_12  and  N_21
REMARK    7  A    between atoms: N_21  and  C_22
REMARK    8  A    between atoms: C_22  and  C_23
REMARK    9  A    between atoms: C_29  and  C_31
REMARK   10  A    between atoms: C_31  and  N_32
REMARK                            x       y       z     vdW  Elec       q    Type
REMARK                         _______ _______ _______ _____ _____    ______ ____
ROOT
ATOM      1  N   UNL     1       2.175  -3.303   1.148  0.00  0.00    -0.284 N 
ATOM      2  C   UNL     1       2.987  -4.120   0.449  0.00  0.00    +0.234 C 
ATOM      3  O   UNL     1       2.966  -4.103  -0.764  0.00  0.00    -0.274 OA
ENDROOT
BRANCH   1   4
ATOM      4  C   UNL     1       1.206  -2.458   0.447  0.00  0.00    +0.166 C 
BRANCH   4   5
ATOM      5  C   UNL     1       1.375  -1.006   0.897  0.00  0.00    +0.023 C 
ATOM      6  C   UNL     1       0.406  -0.107   0.118  0.00  0.00    +0.010 C 
ATOM      7  C   UNL     1       0.470   1.302   0.712  0.00  0.00    +0.027 C 
ATOM      8  C   UNL     1       1.898   1.746   0.837  0.00  0.00    -0.031 C 
ATOM      9  C   UNL     1       2.913   0.944   0.796  0.00  0.00    -0.031 C 
ATOM     10  C   UNL     1       2.804  -0.541   0.608  0.00  0.00    +0.032 C 
ENDBRANCH   4   5
BRANCH   4  12
ATOM     11  N   UNL     1      -1.200  -2.666  -0.090  0.00  0.00    -0.284 N 
ATOM     12  C   UNL     1      -0.192  -2.923   0.766  0.00  0.00    +0.238 C 
ATOM     13  O   UNL     1      -0.408  -3.529   1.795  0.00  0.00    -0.273 OA
ATOM     14  H   UNL     1      -1.036  -2.142  -0.889  0.00  0.00    +0.155 HD
BRANCH  11  18
ATOM     15  C   UNL     1      -5.027  -4.122   0.699  0.00  0.00    +0.120 A 
ATOM     16  C   UNL     1      -4.614  -3.933  -0.611  0.00  0.00    +0.047 A 
ATOM     17  C   UNL     1      -3.347  -3.451  -0.873  0.00  0.00    +0.027 A 
ATOM     18  C   UNL     1      -2.486  -3.155   0.175  0.00  0.00    +0.034 A 
ATOM     19  C   UNL     1      -2.899  -3.349   1.487  0.00  0.00    +0.027 A 
ATOM     20  C   UNL     1      -4.168  -3.827   1.748  0.00  0.00    +0.047 A 
BRANCH  15  22
ATOM     21  C   UNL     1      -6.634  -4.767   2.329  0.00  0.00    +0.277 C 
ATOM     22  O   UNL     1      -6.275  -4.597   0.957  0.00  0.00    -0.495 OA
ENDBRANCH  15  22
ENDBRANCH  11  18
ENDBRANCH   4  12
ENDBRANCH   1   4
BRANCH   1  23
ATOM     23  C   UNL     1       2.260  -3.261   2.610  0.00  0.00    +0.143 C 
BRANCH  23  24
ATOM     24  C   UNL     1       3.155  -2.122   3.028  0.00  0.00    -0.030 A 
ATOM     25  C   UNL     1       4.526  -2.237   2.900  0.00  0.00    +0.005 A 
ATOM     26  C   UNL     1       5.346  -1.191   3.279  0.00  0.00    +0.000 A 
ATOM     27  C   UNL     1       4.795  -0.033   3.795  0.00  0.00    +0.000 A 
ATOM     28  C   UNL     1       3.424   0.080   3.928  0.00  0.00    +0.000 A 
ATOM     29  C   UNL     1       2.603  -0.964   3.544  0.00  0.00    +0.005 A 
ENDBRANCH  23  24
ENDBRANCH   1  23
BRANCH   2  30
ATOM     30  C   UNL     1       3.921  -5.055   1.173  0.00  0.00    +0.210 C 
BRANCH  30  31
ATOM     31  N   UNL     1       4.741  -5.778   0.199  0.00  0.00    -0.255 N 
ATOM     32  C   UNL     1       4.389  -7.001  -0.369  0.00  0.00    +0.048 A 
ATOM     33  C   UNL     1       3.266  -7.801  -0.203  0.00  0.00    +0.024 A 
ATOM     34  C   UNL     1       3.149  -8.988  -0.901  0.00  0.00    +0.002 A 
ATOM     35  C   UNL     1       4.143  -9.395  -1.776  0.00  0.00    +0.001 A 
ATOM     36  C   UNL     1       5.264  -8.613  -1.961  0.00  0.00    +0.014 A 
ATOM     37  C   UNL     1       5.392  -7.412  -1.262  0.00  0.00    +0.048 A 
ATOM     38  C   UNL     1       6.437  -6.372  -1.231  0.00  0.00    +0.250 C 
ATOM     39  O   UNL     1       7.476  -6.348  -1.856  0.00  0.00    -0.282 OA
ATOM     40  C   UNL     1       5.931  -5.349  -0.257  0.00  0.00    +0.292 C 
ATOM     41  O   UNL     1       6.493  -4.323   0.062  0.00  0.00    -0.266 OA
ENDBRANCH  30  31
ENDBRANCH   2  30
TORSDOF 9
