REMARK  Name = ZINC06395655
REMARK  8 active torsions:
REMARK  status: ('A' for Active; 'I' for Inactive)
REMARK    1  A    between atoms: C_1  and  O_2
REMARK    2  A    between atoms: O_2  and  C_3
REMARK    3  A    between atoms: C_5  and  C_11
REMARK    4  A    between atoms: C_8  and  O_9
REMARK    5  A    between atoms: C_11  and  C_13
REMARK    6  A    between atoms: C_11  and  N_25
REMARK    7  A    between atoms: C_22  and  O_23
REMARK    8  A    between atoms: N_25  and  C_26
REMARK                            x       y       z     vdW  Elec       q    Type
REMARK                         _______ _______ _______ _____ _____    ______ ____
ROOT
ATOM      1  C   UNL     1       1.143   3.596   0.010  0.00  0.00    +0.136 C 
ENDROOT
BRANCH   1   2
ATOM      2  C   UNL     1       0.772   4.013   1.409  0.00  0.00    +0.022 A 
ATOM      3  C   UNL     1      -0.572   4.111   1.762  0.00  0.00    +0.030 A 
ATOM      4  C   UNL     1      -0.941   4.485   3.019  0.00  0.00    +0.051 A 
ATOM      5  C   UNL     1       0.046   4.777   3.976  0.00  0.00    +0.022 A 
ATOM      6  C   UNL     1      -0.296   5.166   5.285  0.00  0.00    +0.013 A 
ATOM      7  C   UNL     1       0.716   5.434   6.162  0.00  0.00    +0.020 A 
ATOM      8  C   UNL     1       2.042   5.319   5.751  0.00  0.00    +0.111 A 
ATOM      9  N   UNL     1       2.356   4.956   4.531  0.00  0.00    -0.251 NA
ATOM     10  C   UNL     1       1.414   4.680   3.624  0.00  0.00    +0.114 A 
ATOM     11  C   UNL     1       1.758   4.284   2.314  0.00  0.00    +0.148 A 
ATOM     12 CL   UNL     1      -2.622   4.599   3.437  0.00  0.00    -0.083 Cl
BRANCH  11  13
ATOM     13  O   UNL     1       3.063   4.178   1.954  0.00  0.00    -0.504 OA
ATOM     14  H   UNL     1       3.441   4.994   1.597  0.00  0.00    +0.292 HD
ENDBRANCH  11  13
ENDBRANCH   1   2
BRANCH   1  17
ATOM     15  C   UNL     1       2.790   0.196  -0.037  0.00  0.00    +0.163 A 
ATOM     16  C   UNL     1       2.611   1.570   0.004  0.00  0.00    +0.055 A 
ATOM     17  C   UNL     1       1.336   2.102  -0.035  0.00  0.00    -0.018 A 
ATOM     18  C   UNL     1       0.237   1.267  -0.114  0.00  0.00    +0.025 A 
ATOM     19  C   UNL     1       0.409  -0.105  -0.155  0.00  0.00    +0.063 A 
ATOM     20  C   UNL     1       1.685  -0.645  -0.117  0.00  0.00    +0.173 A 
ATOM     21 BR   UNL     1      -1.097  -1.244  -0.263  0.00  0.00    -0.046 Br
BRANCH  15  23
ATOM     22  C   UNL     1       5.132   0.594   0.082  0.00  0.00    +0.277 C 
ATOM     23  O   UNL     1       4.044  -0.329   0.000  0.00  0.00    -0.491 OA
ENDBRANCH  15  23
BRANCH  20  24
ATOM     24  O   UNL     1       1.856  -1.994  -0.158  0.00  0.00    -0.503 OA
ATOM     25  H   UNL     1       1.945  -2.352  -1.051  0.00  0.00    +0.292 HD
ENDBRANCH  20  24
ENDBRANCH   1  17
BRANCH   1  26
ATOM     26  N   UNL     1       0.073   3.978  -0.914  0.00  0.00    -0.320 N 
ATOM     27  H   UNL     1      -0.834   4.090  -0.587  0.00  0.00    +0.148 HD
BRANCH  26  28
ATOM     28  C   UNL     1       0.355   4.180  -2.260  0.00  0.00    +0.097 A 
ATOM     29  C   UNL     1       1.657   4.018  -2.723  0.00  0.00    +0.041 A 
ATOM     30  C   UNL     1       1.925   4.222  -4.064  0.00  0.00    +0.005 A 
ATOM     31  C   UNL     1       0.877   4.583  -4.902  0.00  0.00    +0.018 A 
ATOM     32  C   UNL     1      -0.391   4.727  -4.375  0.00  0.00    +0.084 A 
ATOM     33  N   UNL     1      -0.691   4.528  -3.063  0.00  0.00    -0.350 N 
ATOM     34  H   UNL     1      -1.646   4.634  -2.700  0.00  0.00    +0.166 HD
ENDBRANCH  26  28
ENDBRANCH   1  26
TORSDOF 7
