REMARK  Name = ZINC35427147
REMARK  7 active torsions:
REMARK  status: ('A' for Active; 'I' for Inactive)
REMARK    1  A    between atoms: C_1  and  C_2
REMARK    2  A    between atoms: C_4  and  C_38
REMARK    3  A    between atoms: C_6  and  N_8
REMARK    4  A    between atoms: C_23  and  C_25
REMARK    5  A    between atoms: C_28  and  O_31
REMARK    6  A    between atoms: O_31  and  C_32
REMARK    7  A    between atoms: N_34  and  C_37
REMARK                            x       y       z     vdW  Elec       q    Type
REMARK                         _______ _______ _______ _____ _____    ______ ____
ROOT
ATOM      1  N   UNL     1       0.036  -1.902   2.340  0.00  0.00    -0.269 N 
ATOM      2  C   UNL     1       0.108  -1.543   3.637  0.00  0.00    +0.308 C 
ATOM      3  O   UNL     1       0.009  -0.372   3.950  0.00  0.00    -0.252 OA
ATOM      4  N   UNL     1       0.289  -2.482   4.587  0.00  0.00    -0.268 N 
ATOM      5  C   UNL     1       0.420  -3.910   4.246  0.00  0.00    +0.148 C 
ATOM      6  C   UNL     1       1.465  -4.617   5.080  0.00  0.00    +0.004 A 
ATOM      7  C   UNL     1       2.684  -5.083   4.555  0.00  0.00    -0.034 A 
ATOM      8  C   UNL     1       3.536  -5.725   5.400  0.00  0.00    -0.021 A 
ATOM      9  S   UNL     1       2.686  -5.701   6.956  0.00  0.00    -0.077 S 
ATOM     10  C   UNL     1       1.250  -4.831   6.408  0.00  0.00    +0.090 A 
ATOM     11  N   UNL     1       0.122  -4.397   7.094  0.00  0.00    -0.312 N 
ATOM     12  C   UNL     1      -0.683  -5.026   7.981  0.00  0.00    +0.092 A 
ATOM     13  C   UNL     1      -1.689  -4.181   8.304  0.00  0.00    +0.020 A 
ATOM     14  C   UNL     1      -1.476  -2.977   7.598  0.00  0.00    +0.025 A 
ATOM     15  C   UNL     1      -0.351  -3.123   6.884  0.00  0.00    +0.049 A 
ATOM     16  C   UNL     1       0.374  -2.127   6.024  0.00  0.00    +0.155 C 
ATOM     17  C   UNL     1       4.869  -6.306   5.060  0.00  0.00    -0.036 C 
ATOM     18  N   UNL     1       4.971  -6.400   3.591  0.00  0.00    +0.381 N 
ATOM     19  C   UNL     1       4.600  -5.112   2.991  0.00  0.00    -0.074 C 
ATOM     20  C   UNL     1       3.087  -4.895   3.095  0.00  0.00    +0.018 C 
ATOM     21  C   UNL     1       6.352  -6.734   3.217  0.00  0.00    -0.096 C 
ATOM     22  H   UNL     1       0.041  -2.841   2.095  0.00  0.00    +0.156 HD
ATOM     23  H   UNL     1       4.349  -7.120   3.256  0.00  0.00    -0.082 HD
ENDROOT
BRANCH   1  29
ATOM     24  C   UNL     1      -1.595  -0.474  -2.074  0.00  0.00    +0.044 C 
ATOM     25  C   UNL     1      -0.830  -0.202  -0.804  0.00  0.00    -0.048 A 
ATOM     26  C   UNL     1      -0.208   1.019  -0.621  0.00  0.00    +0.006 A 
ATOM     27  C   UNL     1       0.495   1.273   0.543  0.00  0.00    -0.048 A 
ATOM     28  C   UNL     1       0.578   0.307   1.526  0.00  0.00    +0.026 A 
ATOM     29  C   UNL     1      -0.046  -0.921   1.345  0.00  0.00    +0.035 A 
ATOM     30  C   UNL     1      -0.756  -1.170   0.178  0.00  0.00    +0.026 A 
ATOM     31  C   UNL     1       1.172   2.605   0.738  0.00  0.00    +0.044 C 
ENDBRANCH   1  29
BRANCH  16  32
ATOM     32  C   UNL     1       1.823  -2.079   6.433  0.00  0.00    -0.021 A 
ATOM     33  C   UNL     1       2.800  -1.822   5.489  0.00  0.00    +0.009 A 
ATOM     34  C   UNL     1       4.129  -1.778   5.861  0.00  0.00    +0.046 A 
ATOM     35  C   UNL     1       4.484  -1.993   7.185  0.00  0.00    +0.120 A 
ATOM     36  C   UNL     1       3.503  -2.251   8.131  0.00  0.00    +0.046 A 
ATOM     37  C   UNL     1       2.175  -2.288   7.754  0.00  0.00    +0.009 A 
BRANCH  35  38
ATOM     38  O   UNL     1       5.792  -1.951   7.554  0.00  0.00    -0.495 OA
ATOM     39  C   UNL     1       6.084  -2.181   8.934  0.00  0.00    +0.277 C 
ENDBRANCH  35  38
ENDBRANCH  16  32
TORSDOF 3
