REMARK  Name = ZINC04689462
REMARK  10 active torsions:
REMARK  status: ('A' for Active; 'I' for Inactive)
REMARK    1  A    between atoms: C_1  and  C_2
REMARK    2  A    between atoms: C_2  and  O_3
REMARK    3  A    between atoms: O_3  and  C_4
REMARK    4  A    between atoms: C_4  and  C_6
REMARK    5  A    between atoms: C_7  and  C_21
REMARK    6  A    between atoms: C_12  and  C_14
REMARK    7  A    between atoms: C_21  and  N_52
REMARK    8  A    between atoms: C_22  and  C_23
REMARK    9  A    between atoms: C_22  and  N_52
REMARK   10  A    between atoms: C_26  and  C_29
REMARK                            x       y       z     vdW  Elec       q    Type
REMARK                         _______ _______ _______ _____ _____    ______ ____
ROOT
ATOM      1  C   UNL     1      -0.952   1.894  -1.328  0.00  0.00    +0.076 C 
ATOM      2  C   UNL     1      -1.883   2.835  -1.061  0.00  0.00    +0.007 C 
ATOM      3  N   UNL     1      -2.104   3.265   0.216  0.00  0.00    -0.274 N 
ATOM      4  C   UNL     1      -1.435   2.805   1.281  0.00  0.00    +0.304 C 
ATOM      5  O   UNL     1      -1.703   3.249   2.380  0.00  0.00    -0.252 OA
ATOM      6  N   UNL     1      -0.477   1.864   1.173  0.00  0.00    -0.288 N 
ATOM      7  C   UNL     1      -0.162   1.333  -0.163  0.00  0.00    +0.143 C 
ATOM      8  H   UNL     1      -2.783   3.943   0.360  0.00  0.00    +0.156 HD
ATOM      9  H   UNL     1      -0.006   1.544   1.959  0.00  0.00    +0.151 HD
ENDROOT
BRANCH   7  10
ATOM     10  C   UNL     1      -0.375  -0.159  -0.133  0.00  0.00    -0.022 A 
ATOM     11  C   UNL     1      -1.491  -0.684   0.491  0.00  0.00    +0.007 A 
ATOM     12  C   UNL     1      -1.689  -2.052   0.514  0.00  0.00    +0.020 A 
ATOM     13  C   UNL     1      -0.765  -2.895  -0.076  0.00  0.00    +0.041 A 
ATOM     14  C   UNL     1       0.354  -2.369  -0.695  0.00  0.00    +0.020 A 
ATOM     15  C   UNL     1       0.549  -1.001  -0.723  0.00  0.00    +0.007 A 
ATOM     16 CL   UNL     1      -1.010  -4.614  -0.040  0.00  0.00    -0.084 Cl
ENDBRANCH   7  10
BRANCH   1  17
ATOM     17  C   UNL     1      -0.722   1.447  -2.651  0.00  0.00    +0.339 C 
ATOM     18  O   UNL     1      -1.447   1.820  -3.554  0.00  0.00    -0.245 OA
BRANCH  17  19
ATOM     19  O   UNL     1       0.302   0.607  -2.911  0.00  0.00    -0.462 OA
BRANCH  19  21
ATOM     20  C   UNL     1       1.676  -0.746  -4.367  0.00  0.00    +0.048 C 
ATOM     21  C   UNL     1       0.475   0.197  -4.268  0.00  0.00    +0.229 C 
ENDBRANCH  19  21
ENDBRANCH  17  19
ENDBRANCH   1  17
BRANCH   2  22
ATOM     22  C   UNL     1      -2.692   3.419  -2.191  0.00  0.00    -0.030 C 
BRANCH  22  23
ATOM     23  N   UNL     1      -3.853   2.548  -2.454  0.00  0.00    +0.385 N 
ATOM     24  H   UNL     1      -4.430   2.487  -1.607  0.00  0.00    -0.085 HD
ATOM     25  H   UNL     1      -3.522   1.611  -2.711  0.00  0.00    -0.085 HD
BRANCH  23  26
ATOM     26  C   UNL     1      -4.665   3.096  -3.557  0.00  0.00    -0.046 C 
BRANCH  26  27
ATOM     27  C   UNL     1      -5.841   2.188  -3.804  0.00  0.00    -0.064 A 
ATOM     28  C   UNL     1      -5.735   1.149  -4.709  0.00  0.00    +0.002 A 
ATOM     29  C   UNL     1      -6.812   0.312  -4.931  0.00  0.00    +0.003 A 
ATOM     30  C   UNL     1      -8.001   0.522  -4.256  0.00  0.00    -0.050 A 
ATOM     31  C   UNL     1      -8.109   1.564  -3.355  0.00  0.00    +0.003 A 
ATOM     32  C   UNL     1      -7.029   2.397  -3.128  0.00  0.00    +0.002 A 
ATOM     33  C   UNL     1      -9.178  -0.387  -4.503  0.00  0.00    +0.044 C 
ENDBRANCH  26  27
ENDBRANCH  23  26
ENDBRANCH  22  23
ENDBRANCH   2  22
TORSDOF 8
