REMARK  Name = ZINC52763002
REMARK  7 active torsions:
REMARK  status: ('A' for Active; 'I' for Inactive)
REMARK    1  A    between atoms: C_1  and  C_2
REMARK    2  A    between atoms: C_2  and  C_4
REMARK    3  A    between atoms: C_2  and  N_10
REMARK    4  A    between atoms: C_14  and  C_16
REMARK    5  A    between atoms: C_16  and  C_17
REMARK    6  A    between atoms: C_17  and  C_18
REMARK    7  A    between atoms: C_18  and  O_19
REMARK                            x       y       z     vdW  Elec       q    Type
REMARK                         _______ _______ _______ _____ _____    ______ ____
ROOT
ATOM      1  C   UNL     1      -0.019   1.526   0.010  0.00  0.00    -0.004 C 
ATOM      2  C   UNL     1       0.002  -0.004   0.002  0.00  0.00    +0.017 C 
ENDROOT
BRANCH   2   3
ATOM      3  C   UNL     1      -1.412  -0.526   0.013  0.00  0.00    +0.207 C 
ATOM      4  O   UNL     1      -1.790  -1.233   0.922  0.00  0.00    -0.277 OA
ATOM      5  N   UNL     1      -2.256  -0.206  -0.988  0.00  0.00    -0.242 N 
ATOM      6  C   UNL     1      -3.520  -0.672  -0.979  0.00  0.00    +0.303 C 
ATOM      7  O   UNL     1      -3.899  -1.381  -0.067  0.00  0.00    -0.253 OA
ATOM      8  N   UNL     1      -4.364  -0.353  -1.980  0.00  0.00    -0.313 N 
ATOM      9  H   UNL     1      -1.953   0.360  -1.716  0.00  0.00    +0.159 HD
ATOM     10  H   UNL     1      -4.061   0.213  -2.707  0.00  0.00    +0.146 HD
ATOM     11  H   UNL     1      -5.274  -0.689  -1.973  0.00  0.00    +0.146 HD
ENDBRANCH   2   3
BRANCH   2  12
ATOM     12  N   UNL     1       0.713  -0.491   1.192  0.00  0.00    +0.389 N 
ATOM     13  C   UNL     1       0.753  -1.968   1.178  0.00  0.00    -0.077 C 
ATOM     14  C   UNL     1       2.126  -2.320   0.552  0.00  0.00    -0.020 C 
ATOM     15  C   UNL     1       3.033  -1.208   1.141  0.00  0.00    -0.017 C 
ATOM     16  C   UNL     1       2.097   0.017   1.186  0.00  0.00    -0.068 C 
ATOM     17  H   UNL     1       0.238  -0.174   2.025  0.00  0.00    -0.080 HD
BRANCH  16  18
ATOM     18  C   UNL     1       2.360   0.827   2.457  0.00  0.00    -0.013 C 
BRANCH  18  19
ATOM     19  C   UNL     1       1.476   2.076   2.458  0.00  0.00    +0.026 C 
BRANCH  19  20
ATOM     20  C   UNL     1       1.738   2.886   3.729  0.00  0.00    +0.156 C 
BRANCH  20  21
ATOM     21  O   UNL     1       0.913   4.052   3.730  0.00  0.00    -0.395 OA
ATOM     22  H   UNL     1       1.027   4.614   4.509  0.00  0.00    +0.209 HD
ENDBRANCH  20  21
ENDBRANCH  19  20
ENDBRANCH  18  19
ENDBRANCH  16  18
ENDBRANCH   2  12
TORSDOF 6
