REMARK  Name = ZINC40701984
REMARK  8 active torsions:
REMARK  status: ('A' for Active; 'I' for Inactive)
REMARK    1  A    between atoms: C_1  and  C_2
REMARK    2  A    between atoms: C_2  and  N_3
REMARK    3  A    between atoms: N_3  and  C_4
REMARK    4  A    between atoms: C_15  and  N_24
REMARK    5  A    between atoms: C_16  and  N_20
REMARK    6  A    between atoms: N_20  and  N_21
REMARK    7  A    between atoms: N_21  and  C_22
REMARK    8  A    between atoms: N_21  and  C_23
REMARK                            x       y       z     vdW  Elec       q    Type
REMARK                         _______ _______ _______ _____ _____    ______ ____
ROOT
ATOM      1  N   UNL     1       0.702  -0.482  -1.211  0.00  0.00    -0.283 N 
ATOM      2  C   UNL     1      -0.040  -0.814  -2.339  0.00  0.00    +0.151 A 
ATOM      3  C   UNL     1      -0.600  -2.086  -2.470  0.00  0.00    +0.105 A 
ATOM      4  C   UNL     1      -1.336  -2.366  -3.623  0.00  0.00    +0.136 A 
ATOM      5  N   UNL     1      -1.474  -1.417  -4.546  0.00  0.00    -0.332 N 
ATOM      6  C   UNL     1      -0.929  -0.229  -4.383  0.00  0.00    +0.200 A 
ATOM      7  N   UNL     1      -0.232   0.079  -3.308  0.00  0.00    -0.220 NA
ATOM      8  H   UNL     1      -1.984  -1.604  -5.351  0.00  0.00    +0.168 HD
ENDROOT
BRANCH   1   9
ATOM      9  C   UNL     1       2.092  -0.588  -1.235  0.00  0.00    +0.043 A 
ATOM     10  C   UNL     1       2.706  -1.768  -0.869  0.00  0.00    +0.024 A 
ATOM     11  C   UNL     1       4.092  -1.884  -0.889  0.00  0.00    +0.002 A 
ATOM     12  C   UNL     1       4.880  -0.840  -1.269  0.00  0.00    +0.008 A 
ATOM     13  C   UNL     1       4.294   0.379  -1.650  0.00  0.00    -0.016 A 
ATOM     14  C   UNL     1       2.883   0.508  -1.639  0.00  0.00    +0.003 A 
ATOM     15  C   UNL     1       2.299   1.725  -2.024  0.00  0.00    +0.010 A 
ATOM     16  C   UNL     1       3.094   2.763  -2.408  0.00  0.00    +0.001 A 
ATOM     17  C   UNL     1       4.481   2.635  -2.425  0.00  0.00    +0.001 A 
ATOM     18  C   UNL     1       5.082   1.474  -2.046  0.00  0.00    +0.008 A 
ENDBRANCH   1   9
BRANCH   3  19
ATOM     19  N   UNL     1      -0.427  -3.057  -1.471  0.00  0.00    -0.353 N 
ATOM     20  H   UNL     1       0.019  -2.825  -0.641  0.00  0.00    +0.143 HD
ATOM     21  H   UNL     1      -0.754  -3.959  -1.610  0.00  0.00    +0.143 HD
ENDBRANCH   3  19
BRANCH   1  23
ATOM     22  C   UNL     1      -0.022   1.509   0.012  0.00  0.00    +0.025 C 
ATOM     23  C   UNL     1       0.023  -0.021   0.003  0.00  0.00    +0.109 C 
ENDBRANCH   1  23
BRANCH   4  24
ATOM     24  N   UNL     1      -1.914  -3.617  -3.805  0.00  0.00    -0.263 N 
ATOM     25  H   UNL     1      -1.808  -4.303  -3.127  0.00  0.00    +0.168 HD
BRANCH  24  26
ATOM     26  N   UNL     1      -2.632  -3.880  -4.937  0.00  0.00    -0.234 NA
ATOM     27  C   UNL     1      -1.989  -4.933  -5.734  0.00  0.00    +0.127 C 
ATOM     28  C   UNL     1      -4.018  -4.239  -4.609  0.00  0.00    +0.127 C 
ENDBRANCH  24  26
ENDBRANCH   4  24
TORSDOF 5
