REMARK  Name = ZINC20058875
REMARK  15 active torsions:
REMARK  status: ('A' for Active; 'I' for Inactive)
REMARK    1  A    between atoms: C_1  and  C_2
REMARK    2  A    between atoms: C_2  and  C_3
REMARK    3  A    between atoms: C_3  and  C_4
REMARK    4  A    between atoms: C_4  and  O_5
REMARK    5  A    between atoms: O_5  and  C_6
REMARK    6  A    between atoms: C_9  and  C_12
REMARK    7  A    between atoms: C_12  and  C_13
REMARK    8  A    between atoms: C_12  and  C_14
REMARK    9  A    between atoms: C_12  and  O_39
REMARK   10  A    between atoms: C_14  and  C_16
REMARK   11  A    between atoms: C_14  and  C_33
REMARK   12  A    between atoms: C_16  and  N_17
REMARK   13  A    between atoms: N_20  and  C_23
REMARK   14  A    between atoms: C_29  and  O_31
REMARK   15  A    between atoms: O_31  and  C_32
REMARK                            x       y       z     vdW  Elec       q    Type
REMARK                         _______ _______ _______ _____ _____    ______ ____
ROOT
ATOM      1  C   UNL     1      -4.734   3.755  -6.088  0.00  0.00    +0.038 C 
ENDROOT
BRANCH   1   2
ATOM      2  C   UNL     1      -5.295   4.603  -4.976  0.00  0.00    -0.043 A 
ATOM      3  C   UNL     1      -5.529   5.949  -5.185  0.00  0.00    +0.004 A 
ATOM      4  C   UNL     1      -6.049   6.726  -4.167  0.00  0.00    +0.000 A 
ATOM      5  C   UNL     1      -6.325   6.159  -2.937  0.00  0.00    +0.000 A 
ATOM      6  C   UNL     1      -6.086   4.814  -2.727  0.00  0.00    +0.000 A 
ATOM      7  C   UNL     1      -5.571   4.035  -3.747  0.00  0.00    +0.004 A 
ENDBRANCH   1   2
BRANCH   1   8
ATOM      8  C   UNL     1      -5.765   3.640  -7.213  0.00  0.00    +0.093 C 
ATOM      9  C   UNL     1      -7.067   3.064  -6.654  0.00  0.00    +0.047 C 
BRANCH   8  13
ATOM     10  C   UNL     1      -4.260   1.057 -10.267  0.00  0.00    +0.121 A 
ATOM     11  C   UNL     1      -4.655   2.349 -10.582  0.00  0.00    +0.046 A 
ATOM     12  C   UNL     1      -5.141   3.182  -9.593  0.00  0.00    +0.010 A 
ATOM     13  C   UNL     1      -5.234   2.729  -8.290  0.00  0.00    -0.016 A 
ATOM     14  C   UNL     1      -4.836   1.444  -7.972  0.00  0.00    +0.010 A 
ATOM     15  C   UNL     1      -4.354   0.605  -8.959  0.00  0.00    +0.046 A 
BRANCH  10  16
ATOM     16  O   UNL     1      -3.781   0.236 -11.238  0.00  0.00    -0.492 OA
BRANCH  16  17
ATOM     17  C   UNL     1      -3.393  -1.081 -10.841  0.00  0.00    +0.229 C 
BRANCH  17  18
ATOM     18  C   UNL     1      -2.883  -1.852 -12.060  0.00  0.00    +0.041 C 
BRANCH  18  20
ATOM     19  C   UNL     1      -1.958  -4.033 -12.854  0.00  0.00    +0.004 C 
ATOM     20  C   UNL     1      -2.468  -3.262 -11.635  0.00  0.00    -0.000 C 
ENDBRANCH  18  20
ENDBRANCH  17  18
ENDBRANCH  16  17
ENDBRANCH  10  16
ENDBRANCH   8  13
BRANCH   8  21
ATOM     21  O   UNL     1      -6.014   4.934  -7.764  0.00  0.00    -0.384 OA
ATOM     22  H   UNL     1      -6.407   5.738  -7.124  0.00  0.00    +0.211 HD
ENDBRANCH   8  21
ENDBRANCH   1   8
BRANCH   1  23
ATOM     23  C   UNL     1      -3.458   4.403  -6.630  0.00  0.00    -0.067 C 
BRANCH  23  24
ATOM     24  N   UNL     1      -2.442   4.446  -5.570  0.00  0.00    +0.382 N 
ATOM     25  C   UNL     1      -2.015   3.091  -5.195  0.00  0.00    -0.063 C 
ATOM     26  C   UNL     1      -1.018   3.175  -4.037  0.00  0.00    +0.066 C 
ATOM     27  N   UNL     1       0.133   3.993  -4.444  0.00  0.00    -0.300 NA
ATOM     28  C   UNL     1      -0.294   5.348  -4.819  0.00  0.00    +0.066 C 
ATOM     29  C   UNL     1      -1.291   5.264  -5.977  0.00  0.00    -0.063 C 
ATOM     30  H   UNL     1      -2.897   4.916  -4.686  0.00  0.00    -0.082 HD
BRANCH  27  31
ATOM     31  C   UNL     1       1.149   4.035  -3.384  0.00  0.00    +0.085 C 
ATOM     32  C   UNL     1       2.338   4.878  -3.851  0.00  0.00    +0.021 C 
ATOM     33  C   UNL     1       3.396   4.922  -2.747  0.00  0.00    +0.002 C 
ATOM     34  C   UNL     1       3.870   3.500  -2.437  0.00  0.00    +0.003 C 
ATOM     35  C   UNL     1       2.681   2.658  -1.970  0.00  0.00    +0.033 C 
ATOM     36  C   UNL     1       1.623   2.613  -3.074  0.00  0.00    +0.135 C 
BRANCH  36  37
ATOM     37  O   UNL     1       2.186   2.031  -4.251  0.00  0.00    -0.378 OA
ATOM     38  C   UNL     1       2.042   0.612  -4.324  0.00  0.00    +0.194 C 
ENDBRANCH  36  37
ENDBRANCH  27  31
ENDBRANCH  23  24
ENDBRANCH   1  23
TORSDOF 12
