REMARK  Name = ZINC63704027
REMARK  11 active torsions:
REMARK  status: ('A' for Active; 'I' for Inactive)
REMARK    1  A    between atoms: C_1  and  C_2
REMARK    2  A    between atoms: C_6  and  C_8
REMARK    3  A    between atoms: C_6  and  N_25
REMARK    4  A    between atoms: C_8  and  N_9
REMARK    5  A    between atoms: C_10  and  C_12
REMARK    6  A    between atoms: C_12  and  C_13
REMARK    7  A    between atoms: C_13  and  C_14
REMARK    8  A    between atoms: C_14  and  C_15
REMARK    9  A    between atoms: C_15  and  C_16
REMARK   10  A    between atoms: N_25  and  C_26
REMARK   11  A    between atoms: N_25  and  C_27
REMARK                            x       y       z     vdW  Elec       q    Type
REMARK                         _______ _______ _______ _____ _____    ______ ____
ROOT
ATOM      1  N   UNL     1       1.149  -4.115   2.383  0.00  0.00    -0.317 N 
ATOM      2  C   UNL     1       1.601  -4.886   3.392  0.00  0.00    +0.213 C 
ATOM      3  O   UNL     1       2.205  -4.383   4.316  0.00  0.00    -0.276 OA
ATOM      4  H   UNL     1       0.666  -4.517   1.644  0.00  0.00    +0.149 HD
ENDROOT
BRANCH   1   5
ATOM      5  C   UNL     1       1.388  -2.670   2.401  0.00  0.00    +0.092 C 
BRANCH   5  11
ATOM      6  C   UNL     1       1.111  -2.509  -2.585  0.00  0.00    +0.007 C 
ATOM      7  C   UNL     1       0.543  -1.940  -1.284  0.00  0.00    -0.015 C 
ATOM      8  C   UNL     1      -0.957  -2.236  -1.210  0.00  0.00    +0.003 C 
ATOM      9  C   UNL     1      -1.525  -1.667   0.092  0.00  0.00    -0.001 C 
ATOM     10  C   UNL     1      -0.819  -2.316   1.283  0.00  0.00    -0.010 C 
ATOM     11  C   UNL     1       0.681  -2.021   1.210  0.00  0.00    -0.050 C 
ATOM     12  C   UNL     1       1.250  -2.589  -0.092  0.00  0.00    -0.007 C 
BRANCH  11  13
ATOM     13  N   UNL     1       0.896  -0.568   1.245  0.00  0.00    +0.381 N 
ATOM     14  C   UNL     1       0.328  -0.019   2.483  0.00  0.00    -0.096 C 
ATOM     15  C   UNL     1       2.337  -0.285   1.199  0.00  0.00    -0.096 C 
ATOM     16  H   UNL     1       0.444  -0.142   0.449  0.00  0.00    -0.082 HD
ENDBRANCH  11  13
ENDBRANCH   5  11
ENDBRANCH   1   5
BRANCH   2  17
ATOM     17  C   UNL     1       1.356  -6.372   3.373  0.00  0.00    +0.096 C 
BRANCH  17  18
ATOM     18  C   UNL     1       1.967  -7.006   4.624  0.00  0.00    +0.009 C 
BRANCH  18  19
ATOM     19  C   UNL     1       1.718  -8.516   4.605  0.00  0.00    +0.002 C 
BRANCH  19  20
ATOM     20  C   UNL     1       2.329  -9.150   5.856  0.00  0.00    +0.016 C 
BRANCH  20  21
ATOM     21  C   UNL     1       2.079 -10.659   5.837  0.00  0.00    +0.069 C 
ATOM     22  C   UNL     1       2.649 -11.331   7.105  0.00  0.00    +0.108 C 
ATOM     23  C   UNL     1       1.752 -12.436   7.671  0.00  0.00    +0.105 C 
ATOM     24  C   UNL     1       0.457 -12.659   6.862  0.00  0.00    +0.093 C 
ATOM     25  S   UNL     1       0.280 -11.036   6.002  0.00  0.00    -0.154 S 
ATOM     26  N   UNL     1       2.584 -13.648   7.590  0.00  0.00    -0.294 N 
ATOM     27  C   UNL     1       3.775 -13.325   7.066  0.00  0.00    +0.300 C 
ATOM     28  O   UNL     1       4.661 -14.138   6.884  0.00  0.00    -0.253 OA
ATOM     29  N   UNL     1       3.899 -12.027   6.760  0.00  0.00    -0.294 N 
ATOM     30  H   UNL     1       2.314 -14.536   7.870  0.00  0.00    +0.151 HD
ATOM     31  H   UNL     1       4.686 -11.612   6.373  0.00  0.00    +0.151 HD
ENDBRANCH  20  21
ENDBRANCH  19  20
ENDBRANCH  18  19
ENDBRANCH  17  18
ENDBRANCH   2  17
TORSDOF 8
