REMARK  Name = ZINC06631995
REMARK  14 active torsions:
REMARK  status: ('A' for Active; 'I' for Inactive)
REMARK    1  A    between atoms: C_1  and  C_2
REMARK    2  A    between atoms: C_2  and  C_3
REMARK    3  A    between atoms: C_3  and  C_5
REMARK    4  A    between atoms: C_3  and  C_6
REMARK    5  A    between atoms: C_6  and  C_8
REMARK    6  A    between atoms: C_6  and  N_19
REMARK    7  A    between atoms: N_10  and  C_11
REMARK    8  A    between atoms: C_16  and  O_17
REMARK    9  A    between atoms: O_17  and  C_18
REMARK   10  A    between atoms: C_20  and  C_22
REMARK   11  A    between atoms: C_27  and  N_28
REMARK   12  A    between atoms: C_29  and  C_31
REMARK   13  A    between atoms: C_34  and  O_37
REMARK   14  A    between atoms: O_37  and  C_38
REMARK                            x       y       z     vdW  Elec       q    Type
REMARK                         _______ _______ _______ _____ _____    ______ ____
ROOT
ATOM      1  N   UNL     1      -6.166  -1.089  -0.200  0.00  0.00    -0.300 N 
ATOM      2  C   UNL     1      -7.403  -0.700  -0.566  0.00  0.00    +0.246 C 
ATOM      3  O   UNL     1      -7.561   0.360  -1.141  0.00  0.00    -0.270 OA
ATOM      4  H   UNL     1      -6.039  -1.934   0.259  0.00  0.00    +0.150 HD
ENDROOT
BRANCH   2   5
ATOM      5  C   UNL     1      -8.565  -1.558  -0.269  0.00  0.00    +0.058 A 
ATOM      6  C   UNL     1      -8.408  -2.708   0.509  0.00  0.00    +0.015 A 
ATOM      7  C   UNL     1      -9.497  -3.506   0.784  0.00  0.00    +0.001 A 
ATOM      8  C   UNL     1     -10.749  -3.175   0.291  0.00  0.00    +0.002 A 
ATOM      9  C   UNL     1     -10.920  -2.042  -0.478  0.00  0.00    +0.024 A 
ATOM     10  C   UNL     1      -9.835  -1.223  -0.760  0.00  0.00    +0.046 A 
BRANCH  10  11
ATOM     11  N   UNL     1     -10.006  -0.077  -1.532  0.00  0.00    -0.281 N 
ATOM     12  C   UNL     1     -11.174   0.594  -1.493  0.00  0.00    +0.248 C 
ATOM     13  O   UNL     1     -12.062   0.225  -0.749  0.00  0.00    -0.270 OA
ATOM     14  H   UNL     1      -9.284   0.239  -2.098  0.00  0.00    +0.155 HD
BRANCH  12  15
ATOM     15  C   UNL     1     -11.375   1.775  -2.354  0.00  0.00    +0.037 A 
ATOM     16  C   UNL     1     -10.354   2.204  -3.206  0.00  0.00    +0.016 A 
ATOM     17  C   UNL     1     -10.548   3.304  -4.011  0.00  0.00    +0.046 A 
ATOM     18  C   UNL     1     -11.753   3.995  -3.969  0.00  0.00    +0.120 A 
ATOM     19  C   UNL     1     -12.770   3.575  -3.119  0.00  0.00    +0.046 A 
ATOM     20  C   UNL     1     -12.586   2.472  -2.315  0.00  0.00    +0.016 A 
BRANCH  18  21
ATOM     21  O   UNL     1     -11.938   5.082  -4.760  0.00  0.00    -0.495 OA
ATOM     22  C   UNL     1     -10.852   5.459  -5.608  0.00  0.00    +0.277 C 
ENDBRANCH  18  21
ENDBRANCH  12  15
ENDBRANCH  10  11
ENDBRANCH   2   5
BRANCH   1  23
ATOM     23  C   UNL     1      -5.012  -0.236  -0.495  0.00  0.00    +0.162 C 
BRANCH  23  24
ATOM     24  C   UNL     1      -3.768  -1.083  -0.572  0.00  0.00    +0.238 C 
ATOM     25  O   UNL     1      -3.780  -2.219  -0.146  0.00  0.00    -0.273 OA
ATOM     26  N   UNL     1      -2.641  -0.578  -1.113  0.00  0.00    -0.281 N 
ATOM     27  H   UNL     1      -2.622   0.340  -1.425  0.00  0.00    +0.155 HD
BRANCH  26  28
ATOM     28  C   UNL     1      -1.498  -1.380  -1.226  0.00  0.00    +0.076 A 
ATOM     29  C   UNL     1      -1.302  -2.439  -0.351  0.00  0.00    +0.027 A 
ATOM     30  C   UNL     1      -0.173  -3.229  -0.465  0.00  0.00    +0.002 A 
ATOM     31  C   UNL     1       0.762  -2.967  -1.449  0.00  0.00    +0.004 A 
ATOM     32  C   UNL     1       0.571  -1.917  -2.327  0.00  0.00    +0.047 A 
ATOM     33  C   UNL     1      -0.555  -1.117  -2.217  0.00  0.00    +0.141 A 
BRANCH  33  34
ATOM     34  O   UNL     1      -0.742  -0.081  -3.078  0.00  0.00    -0.493 OA
ATOM     35  C   UNL     1       0.266   0.130  -4.068  0.00  0.00    +0.277 C 
ENDBRANCH  33  34
ENDBRANCH  26  28
ENDBRANCH  23  24
BRANCH  23  36
ATOM     36  C   UNL     1      -4.852   0.807   0.613  0.00  0.00    +0.015 C 
ATOM     37  C   UNL     1      -4.816   0.105   1.972  0.00  0.00    +0.010 C 
BRANCH  36  39
ATOM     38  C   UNL     1      -6.000   2.565  -0.741  0.00  0.00    +0.004 C 
ATOM     39  C   UNL     1      -6.032   1.780   0.571  0.00  0.00    +0.002 C 
ENDBRANCH  36  39
ENDBRANCH  23  36
ENDBRANCH   1  23
TORSDOF 10
