REMARK  Name = ZINC56189023
REMARK  5 active torsions:
REMARK  status: ('A' for Active; 'I' for Inactive)
REMARK    1  A    between atoms: C_1  and  C_2
REMARK    2  A    between atoms: C_2  and  N_3
REMARK    3  A    between atoms: N_6  and  C_9
REMARK    4  A    between atoms: C_12  and  N_16
REMARK    5  A    between atoms: C_13  and  C_15
REMARK                            x       y       z     vdW  Elec       q    Type
REMARK                         _______ _______ _______ _____ _____    ______ ____
ROOT
ATOM      1  C   UNL     1      -4.936  -2.562   1.574  0.00  0.00    +0.030 A 
ATOM      2  C   UNL     1      -5.687  -2.181   2.679  0.00  0.00    +0.025 A 
ATOM      3  C   UNL     1      -6.229  -3.141   3.509  0.00  0.00    +0.025 A 
ATOM      4  C   UNL     1      -6.024  -4.488   3.240  0.00  0.00    +0.035 A 
ATOM      5  C   UNL     1      -5.274  -4.869   2.136  0.00  0.00    -0.028 A 
ATOM      6  C   UNL     1      -4.736  -3.909   1.302  0.00  0.00    +0.028 A 
ATOM      7  C   UNL     1      -5.052  -6.331   1.844  0.00  0.00    +0.046 C 
ENDROOT
BRANCH   4   8
ATOM      8  N   UNL     1      -6.575  -5.462   4.083  0.00  0.00    -0.299 N 
ATOM      9  C   UNL     1      -6.768  -5.186   5.428  0.00  0.00    +0.129 A 
ATOM     10  C   UNL     1      -7.434  -6.097   6.249  0.00  0.00    +0.084 A 
ATOM     11  C   UNL     1      -7.603  -5.779   7.585  0.00  0.00    +0.136 A 
ATOM     12  N   UNL     1      -7.133  -4.627   8.042  0.00  0.00    -0.203 NA
ATOM     13  C   UNL     1      -6.505  -3.781   7.238  0.00  0.00    +0.216 A 
ATOM     14  N   UNL     1      -6.318  -4.051   5.955  0.00  0.00    -0.200 NA
ATOM     15  N   UNL     1      -6.029  -2.588   7.753  0.00  0.00    -0.327 N 
ATOM     16 CL   UNL     1      -8.424  -6.877   8.650  0.00  0.00    -0.062 Cl
ATOM     17  H   UNL     1      -6.820  -6.330   3.727  0.00  0.00    +0.154 HD
ATOM     18  H   UNL     1      -6.157  -2.380   8.692  0.00  0.00    +0.145 HD
ATOM     19  H   UNL     1      -5.568  -1.960   7.175  0.00  0.00    +0.145 HD
ENDBRANCH   4   8
BRANCH   1  23
ATOM     20  N   UNL     1      -2.601   0.314  -0.269  0.00  0.00    +0.382 N 
ATOM     21  C   UNL     1      -3.361   0.611   0.951  0.00  0.00    -0.060 C 
ATOM     22  C   UNL     1      -4.684  -0.162   0.929  0.00  0.00    +0.086 C 
ATOM     23  N   UNL     1      -4.387  -1.589   0.731  0.00  0.00    -0.333 N 
ATOM     24  C   UNL     1      -3.495  -1.964  -0.377  0.00  0.00    +0.086 C 
ATOM     25  C   UNL     1      -2.228  -1.106  -0.293  0.00  0.00    -0.060 C 
ATOM     26  H   UNL     1      -3.169   0.525  -1.076  0.00  0.00    -0.082 HD
BRANCH  20  28
ATOM     27  C   UNL     1      -1.773   2.615  -0.401  0.00  0.00    -0.017 C 
ATOM     28  C   UNL     1      -1.386   1.138  -0.300  0.00  0.00    -0.082 C 
ENDBRANCH  20  28
ENDBRANCH   1  23
TORSDOF 3
