REMARK  Name = ZINC25795744
REMARK  12 active torsions:
REMARK  status: ('A' for Active; 'I' for Inactive)
REMARK    1  A    between atoms: C_1  and  C_2
REMARK    2  A    between atoms: C_5  and  N_28
REMARK    3  A    between atoms: C_6  and  N_9
REMARK    4  A    between atoms: C_7  and  C_8
REMARK    5  A    between atoms: C_10  and  C_12
REMARK    6  A    between atoms: C_12  and  N_13
REMARK    7  A    between atoms: N_13  and  C_14
REMARK    8  A    between atoms: N_13  and  C_15
REMARK    9  A    between atoms: C_15  and  C_17
REMARK   10  A    between atoms: C_15  and  C_18
REMARK   11  A    between atoms: C_21  and  S_24
REMARK   12  A    between atoms: S_24  and  N_27
REMARK                            x       y       z     vdW  Elec       q    Type
REMARK                         _______ _______ _______ _____ _____    ______ ____
ROOT
ATOM      1  N   UNL     1       4.146   2.586   4.751  0.00  0.00    +0.388 N 
ATOM      2  C   UNL     1       4.000   4.047   4.782  0.00  0.00    -0.095 C 
ATOM      3  H   UNL     1       3.558   2.170   5.583  0.00  0.00    -0.081 HD
ENDROOT
BRANCH   1   4
ATOM      4  C   UNL     1       5.547   2.191   4.946  0.00  0.00    -0.041 C 
ATOM      5  C   UNL     1       5.644   0.666   5.006  0.00  0.00    -0.008 C 
BRANCH   4   6
ATOM      6  C   UNL     1       6.059   2.778   6.237  0.00  0.00    -0.061 A 
ATOM      7  C   UNL     1       5.244   2.810   7.353  0.00  0.00    +0.004 A 
ATOM      8  C   UNL     1       5.715   3.343   8.537  0.00  0.00    +0.029 A 
ATOM      9  C   UNL     1       6.997   3.855   8.604  0.00  0.00    +0.105 A 
ATOM     10  C   UNL     1       7.811   3.828   7.486  0.00  0.00    +0.029 A 
ATOM     11  C   UNL     1       7.341   3.290   6.303  0.00  0.00    +0.004 A 
BRANCH   9  12
ATOM     12  S   UNL     1       7.595   4.542  10.112  0.00  0.00    +0.056 S 
ATOM     13  O   UNL     1       6.833   3.953  11.157  0.00  0.00    -0.153 OA
ATOM     14  O   UNL     1       9.013   4.458  10.063  0.00  0.00    -0.153 OA
BRANCH  12  15
ATOM     15  N   UNL     1       7.216   6.154  10.100  0.00  0.00    -0.204 NA
ATOM     16  H   UNL     1       7.574   6.622  11.029  0.00  0.00    +0.144 HD
ATOM     17  H   UNL     1       6.125   6.273  10.026  0.00  0.00    +0.144 HD
ENDBRANCH  12  15
ENDBRANCH   9  12
ENDBRANCH   4   6
ENDBRANCH   1   4
BRANCH   1  18
ATOM     18  C   UNL     1       3.612   2.031   3.500  0.00  0.00    +0.019 C 
BRANCH  18  20
ATOM     19  N   UNL     1       1.413   1.813   2.388  0.00  0.00    -0.285 N 
ATOM     20  C   UNL     1       2.121   2.244   3.451  0.00  0.00    +0.201 C 
ATOM     21  O   UNL     1       1.558   2.804   4.368  0.00  0.00    -0.278 OA
ATOM     22  H   UNL     1       1.930   1.356   1.532  0.00  0.00    +0.155 HD
BRANCH  19  28
ATOM     23  C   UNL     1      -2.942   0.971   4.509  0.00  0.00    +0.044 C 
ATOM     24  C   UNL     1      -2.115   1.550   3.390  0.00  0.00    -0.046 A 
ATOM     25  C   UNL     1      -2.734   2.216   2.347  0.00  0.00    +0.006 A 
ATOM     26  C   UNL     1      -1.979   2.743   1.315  0.00  0.00    +0.035 A 
ATOM     27  C   UNL     1      -0.604   2.611   1.326  0.00  0.00    +0.148 A 
ATOM     28  C   UNL     1       0.020   1.948   2.374  0.00  0.00    +0.067 A 
ATOM     29  C   UNL     1      -0.741   1.420   3.409  0.00  0.00    -0.024 A 
ATOM     30  C   UNL     1      -0.067   0.700   4.549  0.00  0.00    +0.046 C 
BRANCH  27  31
ATOM     31  N   UNL     1       0.203   3.176   0.221  0.00  0.00    +0.058 N 
ATOM     32  O   UNL     1      -0.334   3.843  -0.645  0.00  0.00    -0.126 OA
ATOM     33  O   UNL     1       1.403   2.974   0.179  0.00  0.00    -0.126 OA
ENDBRANCH  27  31
ENDBRANCH  19  28
ENDBRANCH  18  20
ENDBRANCH   1  18
TORSDOF 8
