REMARK  Name = ZINC23360580
REMARK  10 active torsions:
REMARK  status: ('A' for Active; 'I' for Inactive)
REMARK    1  A    between atoms: C_1  and  C_2
REMARK    2  A    between atoms: C_2  and  C_3
REMARK    3  A    between atoms: C_2  and  N_4
REMARK    4  A    between atoms: C_5  and  C_7
REMARK    5  A    between atoms: C_10  and  N_22
REMARK    6  A    between atoms: N_13  and  C_14
REMARK    7  A    between atoms: C_14  and  C_15
REMARK    8  A    between atoms: N_22  and  C_23
REMARK    9  A    between atoms: C_23  and  C_24
REMARK   10  A    between atoms: C_29  and  O_30
REMARK                            x       y       z     vdW  Elec       q    Type
REMARK                         _______ _______ _______ _____ _____    ______ ____
ROOT
ATOM      1  C   UNL     1       2.736  -1.073  -2.455  0.00  0.00    +0.021 C 
ATOM      2  C   UNL     1       2.284  -2.507  -2.788  0.00  0.00    +0.010 C 
ATOM      3  C   UNL     1       3.576  -3.356  -2.755  0.00  0.00    +0.036 C 
ATOM      4  C   UNL     1       4.689  -2.300  -2.975  0.00  0.00    -0.059 C 
ATOM      5  N   UNL     1       4.196  -1.117  -2.220  0.00  0.00    +0.391 N 
ATOM      6  H   UNL     1       4.386  -1.230  -1.235  0.00  0.00    -0.080 HD
ENDROOT
BRANCH   1   8
ATOM      7  N   UNL     1       0.688  -0.476  -1.203  0.00  0.00    -0.314 N 
ATOM      8  C   UNL     1       2.031  -0.587  -1.215  0.00  0.00    +0.200 C 
ATOM      9  O   UNL     1       2.672  -0.295  -0.228  0.00  0.00    -0.278 OA
ATOM     10  H   UNL     1       0.175  -0.710  -1.993  0.00  0.00    +0.149 HD
BRANCH   7  12
ATOM     11  C   UNL     1      -0.019   1.526   0.010  0.00  0.00    +0.027 C 
ATOM     12  C   UNL     1       0.002  -0.004   0.002  0.00  0.00    +0.067 C 
ATOM     13  C   UNL     1      -1.433  -0.534   0.013  0.00  0.00    +0.027 C 
ENDBRANCH   7  12
ENDBRANCH   1   8
BRANCH   3  14
ATOM     14  N   UNL     1       3.574  -4.348  -3.837  0.00  0.00    -0.311 NA
ATOM     15  H   UNL     1       3.162  -3.967  -4.676  0.00  0.00    +0.122 HD
BRANCH  14  16
ATOM     16  C   UNL     1       2.884  -5.577  -3.423  0.00  0.00    +0.120 C 
BRANCH  16  17
ATOM     17  C   UNL     1       2.902  -6.570  -4.557  0.00  0.00    +0.008 A 
ATOM     18  C   UNL     1       1.789  -6.720  -5.362  0.00  0.00    +0.008 A 
ATOM     19  C   UNL     1       1.804  -7.630  -6.402  0.00  0.00    +0.001 A 
ATOM     20  C   UNL     1       2.933  -8.393  -6.640  0.00  0.00    +0.004 A 
ATOM     21  C   UNL     1       4.048  -8.246  -5.838  0.00  0.00    +0.046 A 
ATOM     22  C   UNL     1       4.037  -7.329  -4.797  0.00  0.00    +0.121 A 
BRANCH  22  23
ATOM     23  O   UNL     1       5.135  -7.179  -4.011  0.00  0.00    -0.506 OA
ATOM     24  H   UNL     1       5.149  -7.762  -3.239  0.00  0.00    +0.292 HD
ENDBRANCH  22  23
ENDBRANCH  16  17
ENDBRANCH  14  16
ENDBRANCH   3  14
BRANCH   5  25
ATOM     25  C   UNL     1       4.827   0.110  -2.722  0.00  0.00    -0.042 C 
BRANCH  25  26
ATOM     26  C   UNL     1       6.292   0.103  -2.366  0.00  0.00    -0.063 A 
ATOM     27  C   UNL     1       6.714   0.647  -1.167  0.00  0.00    +0.002 A 
ATOM     28  C   UNL     1       8.056   0.642  -0.839  0.00  0.00    +0.002 A 
ATOM     29  C   UNL     1       8.979   0.093  -1.711  0.00  0.00    +0.020 A 
ATOM     30  C   UNL     1       8.557  -0.451  -2.911  0.00  0.00    +0.041 A 
ATOM     31  C   UNL     1       7.212  -0.451  -3.235  0.00  0.00    +0.021 A 
ATOM     32 CL   UNL     1       9.714  -1.140  -4.006  0.00  0.00    -0.084 Cl
ENDBRANCH  25  26
ENDBRANCH   5  25
TORSDOF 8
