REMARK  Name = ZINC58832851
REMARK  9 active torsions:
REMARK  status: ('A' for Active; 'I' for Inactive)
REMARK    1  A    between atoms: C_1  and  O_2
REMARK    2  A    between atoms: O_2  and  C_3
REMARK    3  A    between atoms: C_6  and  N_9
REMARK    4  A    between atoms: C_10  and  C_12
REMARK    5  A    between atoms: C_12  and  C_38
REMARK    6  A    between atoms: C_13  and  C_14
REMARK    7  A    between atoms: C_17  and  C_19
REMARK    8  A    between atoms: C_22  and  C_28
REMARK    9  A    between atoms: C_24  and  N_25
REMARK                            x       y       z     vdW  Elec       q    Type
REMARK                         _______ _______ _______ _____ _____    ______ ____
ROOT
ATOM      1  C   UNL     1       4.200  -6.435  -6.476  0.00  0.00    +0.130 A 
ATOM      2  C   UNL     1       4.411  -7.799  -6.624  0.00  0.00    +0.050 A 
ATOM      3  C   UNL     1       5.165  -7.966  -7.785  0.00  0.00    +0.050 A 
ATOM      4  C   UNL     1       5.388  -6.709  -8.307  0.00  0.00    +0.138 A 
ATOM      5  O   UNL     1       4.795  -5.803  -7.510  0.00  0.00    -0.455 OA
ENDROOT
BRANCH   4   6
ATOM      6  C   UNL     1       6.145  -6.409  -9.537  0.00  0.00    +0.047 A 
ATOM      7  C   UNL     1       7.414  -6.962  -9.732  0.00  0.00    +0.014 A 
ATOM      8  C   UNL     1       8.116  -6.677 -10.885  0.00  0.00    +0.005 A 
ATOM      9  C   UNL     1       7.567  -5.846 -11.846  0.00  0.00    -0.039 A 
ATOM     10  C   UNL     1       6.311  -5.295 -11.659  0.00  0.00    +0.037 A 
ATOM     11  C   UNL     1       5.595  -5.576 -10.514  0.00  0.00    +0.137 A 
BRANCH   9  12
ATOM     12  C   UNL     1       8.341  -5.540 -13.103  0.00  0.00    -0.003 C 
ATOM     13  C   UNL     1       8.578  -4.032 -13.201  0.00  0.00    +0.015 C 
ATOM     14  C   UNL     1       9.363  -3.721 -14.476  0.00  0.00    -0.010 C 
ATOM     15  C   UNL     1      10.709  -4.448 -14.436  0.00  0.00    +0.007 C 
ATOM     16  C   UNL     1      10.472  -5.956 -14.338  0.00  0.00    -0.010 C 
ATOM     17  C   UNL     1       9.686  -6.267 -13.063  0.00  0.00    +0.015 C 
ATOM     18  C   UNL     1       9.674  -6.427 -15.556  0.00  0.00    +0.007 C 
ATOM     19  C   UNL     1       8.328  -5.700 -15.596  0.00  0.00    -0.010 C 
ATOM     20  C   UNL     1       8.566  -4.192 -15.694  0.00  0.00    +0.007 C 
ATOM     21  C   UNL     1       7.543  -6.011 -14.320  0.00  0.00    +0.015 C 
ENDBRANCH   9  12
BRANCH  11  22
ATOM     22  N   UNL     1       4.250  -4.990 -10.319  0.00  0.00    +0.057 N 
ATOM     23  O   UNL     1       3.775  -4.269 -11.165  0.00  0.00    -0.126 OA
ATOM     24  O   UNL     1       3.625  -5.233  -9.312  0.00  0.00    -0.126 OA
ENDBRANCH  11  22
ENDBRANCH   4   6
BRANCH   1  26
ATOM     25  C   UNL     1       3.343  -4.440  -5.412  0.00  0.00    +0.117 C 
ATOM     26  C   UNL     1       3.484  -5.821  -5.436  0.00  0.00    +0.070 C 
BRANCH  25  28
ATOM     27  N   UNL     1       2.458  -2.457  -4.301  0.00  0.00    -0.281 N 
ATOM     28  C   UNL     1       2.595  -3.798  -4.324  0.00  0.00    +0.259 C 
ATOM     29  O   UNL     1       2.100  -4.476  -3.443  0.00  0.00    -0.269 OA
ATOM     30  H   UNL     1       2.786  -1.923  -5.042  0.00  0.00    +0.155 HD
BRANCH  27  34
ATOM     31  C   UNL     1       0.622  -0.607  -1.048  0.00  0.00    +0.120 A 
ATOM     32  C   UNL     1       0.478  -0.074  -2.321  0.00  0.00    +0.047 A 
ATOM     33  C   UNL     1       1.086  -0.686  -3.399  0.00  0.00    +0.027 A 
ATOM     34  C   UNL     1       1.841  -1.835  -3.209  0.00  0.00    +0.034 A 
ATOM     35  C   UNL     1       1.985  -2.368  -1.934  0.00  0.00    +0.027 A 
ATOM     36  C   UNL     1       1.381  -1.752  -0.856  0.00  0.00    +0.047 A 
BRANCH  31  38
ATOM     37  C   UNL     1      -0.744   1.172  -0.257  0.00  0.00    +0.277 C 
ATOM     38  O   UNL     1       0.023  -0.003   0.013  0.00  0.00    -0.495 OA
ENDBRANCH  31  38
ENDBRANCH  27  34
ENDBRANCH  25  28
BRANCH  25  39
ATOM     39  C   UNL     1       3.926  -3.643  -6.449  0.00  0.00    +0.104 C 
ATOM     40  N   UNL     1       4.388  -3.010  -7.271  0.00  0.00    -0.191 NA
ENDBRANCH  25  39
ENDBRANCH   1  26
TORSDOF 8
