REMARK  Name = ZINC63146004
REMARK  8 active torsions:
REMARK  status: ('A' for Active; 'I' for Inactive)
REMARK    1  A    between atoms: C_1  and  C_2
REMARK    2  A    between atoms: C_5  and  C_8
REMARK    3  A    between atoms: C_8  and  N_9
REMARK    4  A    between atoms: N_9  and  S_10
REMARK    5  A    between atoms: S_10  and  C_13
REMARK    6  A    between atoms: C_13  and  C_14
REMARK    7  A    between atoms: C_17  and  C_20
REMARK    8  A    between atoms: C_20  and  N_21
REMARK                            x       y       z     vdW  Elec       q    Type
REMARK                         _______ _______ _______ _____ _____    ______ ____
ROOT
ATOM      1  S   UNL     1      -1.798  -0.006   6.454  0.00  0.00    +0.033 S 
ATOM      2  O   UNL     1      -1.009  -0.785   7.344  0.00  0.00    -0.158 OA
ATOM      3  O   UNL     1      -1.570   1.389   6.316  0.00  0.00    -0.158 OA
ENDROOT
BRANCH   1   4
ATOM      4  N   UNL     1      -1.489  -0.636   4.954  0.00  0.00    -0.194 NA
ATOM      5  H   UNL     1      -0.886  -1.390   4.859  0.00  0.00    +0.148 HD
BRANCH   4   6
ATOM      6  C   UNL     1      -2.126  -0.054   3.770  0.00  0.00    +0.109 C 
BRANCH   6  11
ATOM      7  C   UNL     1      -0.019   1.526   0.010  0.00  0.00    +0.007 C 
ATOM      8  C   UNL     1       0.002  -0.004   0.002  0.00  0.00    -0.014 C 
ATOM      9  C   UNL     1      -1.433  -0.534   0.013  0.00  0.00    +0.003 C 
ATOM     10  C   UNL     1      -2.149  -0.040   1.272  0.00  0.00    +0.005 C 
ATOM     11  C   UNL     1      -1.409  -0.547   2.511  0.00  0.00    +0.005 C 
ATOM     12  C   UNL     1       0.026  -0.018   2.500  0.00  0.00    +0.005 C 
ATOM     13  C   UNL     1       0.742  -0.511   1.242  0.00  0.00    +0.003 C 
ENDBRANCH   6  11
ENDBRANCH   4   6
ENDBRANCH   1   4
BRANCH   1  14
ATOM     14  C   UNL     1      -3.561  -0.327   6.739  0.00  0.00    +0.220 C 
BRANCH  14  15
ATOM     15  C   UNL     1      -3.956   0.210   8.091  0.00  0.00    -0.025 A 
ATOM     16  C   UNL     1      -3.861  -0.596   9.210  0.00  0.00    +0.005 A 
ATOM     17  C   UNL     1      -4.223  -0.104  10.450  0.00  0.00    +0.002 A 
ATOM     18  C   UNL     1      -4.682   1.195  10.570  0.00  0.00    -0.065 A 
ATOM     19  C   UNL     1      -4.777   2.001   9.452  0.00  0.00    +0.002 A 
ATOM     20  C   UNL     1      -4.410   1.510   8.213  0.00  0.00    +0.005 A 
BRANCH  18  21
ATOM     21  C   UNL     1      -5.079   1.731  11.922  0.00  0.00    -0.051 C 
BRANCH  21  22
ATOM     22  N   UNL     1      -3.910   2.344  12.568  0.00  0.00    +0.381 N 
ATOM     23  H   UNL     1      -3.186   1.651  12.680  0.00  0.00    -0.090 HD
ATOM     24  H   UNL     1      -3.566   3.099  11.994  0.00  0.00    -0.090 HD
ATOM     25  H   UNL     1      -4.176   2.703  13.472  0.00  0.00    -0.090 HD
ENDBRANCH  21  22
ENDBRANCH  18  21
ENDBRANCH  14  15
ENDBRANCH   1  14
TORSDOF 7
