REMARK  Name = ZINC02793839
REMARK  12 active torsions:
REMARK  status: ('A' for Active; 'I' for Inactive)
REMARK    1  A    between atoms: C_1  and  N_58
REMARK    2  A    between atoms: C_2  and  N_58
REMARK    3  A    between atoms: C_3  and  C_4
REMARK    4  A    between atoms: C_3  and  N_58
REMARK    5  A    between atoms: C_4  and  C_5
REMARK    6  A    between atoms: C_5  and  N_6
REMARK    7  A    between atoms: N_6  and  C_7
REMARK    8  A    between atoms: C_7  and  N_9
REMARK    9  A    between atoms: N_9  and  N_10
REMARK   10  A    between atoms: C_11  and  C_13
REMARK   11  A    between atoms: C_18  and  C_31
REMARK   12  A    between atoms: C_21  and  C_24
REMARK                            x       y       z     vdW  Elec       q    Type
REMARK                         _______ _______ _______ _____ _____    ______ ____
ROOT
ATOM      1  C   UNL     1      -5.206   4.702  -0.039  0.00  0.00    +0.150 A 
ATOM      2  C   UNL     1      -4.828   3.731  -0.994  0.00  0.00    +0.078 A 
ATOM      3  C   UNL     1      -4.092   2.799  -0.358  0.00  0.00    +0.119 A 
ATOM      4  N   UNL     1      -4.001   3.154   0.958  0.00  0.00    -0.238 N 
ATOM      5  N   UNL     1      -4.704   4.346   1.130  0.00  0.00    -0.164 NA
ATOM      6  C   UNL     1      -3.276   2.371   1.963  0.00  0.00    +0.215 C 
ATOM      7  C   UNL     1      -3.090   0.943   1.439  0.00  0.00    +0.063 C 
ATOM      8  C   UNL     1      -2.514   0.979   0.019  0.00  0.00    +0.104 C 
ATOM      9  N   UNL     1      -3.489   1.645  -0.867  0.00  0.00    -0.322 N 
ATOM     10  H   UNL     1      -3.699   1.302  -1.750  0.00  0.00    +0.148 HD
ENDROOT
BRANCH   8  11
ATOM     11  C   UNL     1      -1.219   1.750   0.017  0.00  0.00    -0.027 A 
ATOM     12  C   UNL     1      -0.013   1.076   0.008  0.00  0.00    +0.007 A 
ATOM     13  C   UNL     1       1.175   1.783   0.000  0.00  0.00    +0.020 A 
ATOM     14  C   UNL     1       1.156   3.166   0.008  0.00  0.00    +0.041 A 
ATOM     15  C   UNL     1      -0.052   3.841   0.023  0.00  0.00    +0.020 A 
ATOM     16  C   UNL     1      -1.239   3.133   0.031  0.00  0.00    +0.007 A 
ATOM     17 CL   UNL     1       2.647   4.055  -0.002  0.00  0.00    -0.084 Cl
ENDBRANCH   8  11
BRANCH   1  19
ATOM     18  N   UNL     1      -6.312   6.755   0.704  0.00  0.00    -0.230 N 
ATOM     19  C   UNL     1      -6.021   5.905  -0.301  0.00  0.00    +0.280 C 
ATOM     20  O   UNL     1      -6.430   6.130  -1.424  0.00  0.00    -0.267 OA
ATOM     21  H   UNL     1      -5.986   6.576   1.600  0.00  0.00    +0.173 HD
BRANCH  18  22
ATOM     22  N   UNL     1      -7.085   7.896   0.455  0.00  0.00    -0.246 N 
ATOM     23  H   UNL     1      -7.412   8.075  -0.441  0.00  0.00    +0.172 HD
BRANCH  22  24
ATOM     24  C   UNL     1      -7.376   8.746   1.460  0.00  0.00    +0.147 C 
ATOM     25  S   UNL     1      -8.321  10.141   1.155  0.00  0.00    -0.017 S 
BRANCH  24  26
ATOM     26  N   UNL     1      -6.923   8.498   2.704  0.00  0.00    -0.326 N 
ATOM     27  H   UNL     1      -6.388   7.707   2.877  0.00  0.00    +0.148 HD
BRANCH  26  28
ATOM     28  C   UNL     1      -7.239   9.421   3.797  0.00  0.00    +0.101 C 
BRANCH  28  29
ATOM     29  C   UNL     1      -6.609   8.910   5.095  0.00  0.00    +0.000 C 
BRANCH  29  30
ATOM     30  C   UNL     1      -6.939   9.875   6.235  0.00  0.00    -0.078 C 
BRANCH  30  33
ATOM     31  C   UNL     1      -4.868   9.422   7.405  0.00  0.00    -0.097 C 
ATOM     32  C   UNL     1      -6.821  10.148   8.638  0.00  0.00    -0.097 C 
ATOM     33  N   UNL     1      -6.343   9.357   7.485  0.00  0.00    +0.376 N 
ATOM     34  H   UNL     1      -6.627   8.379   7.610  0.00  0.00    -0.083 HD
ENDBRANCH  30  33
ENDBRANCH  29  30
ENDBRANCH  28  29
ENDBRANCH  26  28
ENDBRANCH  24  26
ENDBRANCH  22  24
ENDBRANCH  18  22
ENDBRANCH   1  19
BRANCH   6  35
ATOM     35  C   UNL     1      -4.080   2.338   3.264  0.00  0.00    +0.412 C 
ATOM     36  F   UNL     1      -5.327   1.750   3.027  0.00  0.00    -0.168 F 
ATOM     37  F   UNL     1      -3.387   1.590   4.222  0.00  0.00    -0.168 F 
ATOM     38  F   UNL     1      -4.261   3.643   3.734  0.00  0.00    -0.168 F 
ENDBRANCH   6  35
TORSDOF 10
