REMARK  Name = ZINC21501973
REMARK  7 active torsions:
REMARK  status: ('A' for Active; 'I' for Inactive)
REMARK    1  A    between atoms: C_1  and  C_2
REMARK    2  A    between atoms: C_5  and  C_24
REMARK    3  A    between atoms: N_8  and  C_10
REMARK    4  A    between atoms: C_10  and  C_12
REMARK    5  A    between atoms: C_10  and  C_13
REMARK    6  A    between atoms: N_15  and  C_16
REMARK    7  A    between atoms: C_21  and  N_22
REMARK                            x       y       z     vdW  Elec       q    Type
REMARK                         _______ _______ _______ _____ _____    ______ ____
ROOT
ATOM      1  C   UNL     1       1.214   1.886   0.266  0.00  0.00    +0.203 C 
ATOM      2  O   UNL     1       1.247   2.681   1.182  0.00  0.00    -0.277 OA
ATOM      3  N   UNL     1       2.305   1.696  -0.501  0.00  0.00    -0.285 N 
ATOM      4  H   UNL     1       2.252   1.035  -1.379  0.00  0.00    +0.155 HD
ENDROOT
BRANCH   3   5
ATOM      5  C   UNL     1       3.508   2.341  -0.181  0.00  0.00    +0.054 A 
ATOM      6  C   UNL     1       3.489   3.607   0.383  0.00  0.00    +0.026 A 
ATOM      7  C   UNL     1       4.676   4.242   0.698  0.00  0.00    +0.022 A 
ATOM      8  C   UNL     1       5.886   3.616   0.454  0.00  0.00    +0.043 A 
ATOM      9  C   UNL     1       5.914   2.352  -0.108  0.00  0.00    +0.044 A 
ATOM     10  C   UNL     1       4.727   1.707  -0.422  0.00  0.00    +0.047 A 
ATOM     11 CL   UNL     1       7.373   4.419   0.852  0.00  0.00    -0.083 Cl
BRANCH  10  12
ATOM     12  N   UNL     1       4.752   0.427  -0.985  0.00  0.00    -0.356 N 
ATOM     13  H   UNL     1       5.714  -0.072  -1.175  0.00  0.00    +0.142 HD
ATOM     14  H   UNL     1       3.810  -0.082  -1.238  0.00  0.00    +0.142 HD
ENDBRANCH  10  12
ENDBRANCH   3   5
BRANCH   1  15
ATOM     15  C   UNL     1      -0.048   1.111  -0.013  0.00  0.00    +0.016 C 
ATOM     16  C   UNL     1      -0.626   1.547  -1.361  0.00  0.00    -0.004 C 
BRANCH  15  22
ATOM     17  C   UNL     1      -2.240   0.415   3.513  0.00  0.00    +0.005 C 
ATOM     18  C   UNL     1      -3.037   0.600   2.220  0.00  0.00    -0.031 C 
ATOM     19  C   UNL     1      -3.610   2.018   2.171  0.00  0.00    +0.003 C 
ATOM     20  C   UNL     1      -2.458   3.026   2.156  0.00  0.00    -0.031 C 
ATOM     21  C   UNL     1      -1.553   2.741   0.955  0.00  0.00    -0.075 C 
ATOM     22  N   UNL     1      -1.029   1.373   1.049  0.00  0.00    +0.387 N 
ATOM     23  C   UNL     1      -2.115   0.385   1.017  0.00  0.00    -0.075 C 
ATOM     24  C   UNL     1      -3.021   4.445   2.047  0.00  0.00    +0.005 C 
ATOM     25  H   UNL     1      -0.516   1.276   2.017  0.00  0.00    -0.081 HD
ENDBRANCH  15  22
ENDBRANCH   1  15
TORSDOF 4
