REMARK  Name = ZINC01076958
REMARK  9 active torsions:
REMARK  status: ('A' for Active; 'I' for Inactive)
REMARK    1  A    between atoms: C_1  and  O_2
REMARK    2  A    between atoms: O_2  and  C_3
REMARK    3  A    between atoms: C_5  and  C_13
REMARK    4  A    between atoms: C_7  and  O_11
REMARK    5  A    between atoms: C_8  and  O_9
REMARK    6  A    between atoms: O_9  and  C_10
REMARK    7  A    between atoms: O_11  and  C_12
REMARK    8  A    between atoms: C_18  and  C_28
REMARK    9  A    between atoms: C_31  and  N_34
REMARK                            x       y       z     vdW  Elec       q    Type
REMARK                         _______ _______ _______ _____ _____    ______ ____
ROOT
ATOM      1  C   UNL     1      -6.619   5.080  -3.809  0.00  0.00    +0.032 C 
ATOM      2  C   UNL     1      -5.599   6.071  -3.252  0.00  0.00    +0.059 C 
ATOM      3  C   UNL     1      -5.311   5.753  -1.794  0.00  0.00    +0.017 C 
ATOM      4  C   UNL     1      -5.335   4.483  -1.359  0.00  0.00    +0.036 C 
ATOM      5  C   UNL     1      -5.034   4.022   0.048  0.00  0.00    +0.136 C 
ATOM      6  N   UNL     1      -4.957   5.088   1.024  0.00  0.00    -0.331 N 
ATOM      7  C   UNL     1      -3.962   6.061   0.950  0.00  0.00    +0.049 A 
ATOM      8  C   UNL     1      -2.990   6.179   1.930  0.00  0.00    +0.025 A 
ATOM      9  C   UNL     1      -1.995   7.131   1.791  0.00  0.00    +0.002 A 
ATOM     10  C   UNL     1      -1.968   7.958   0.683  0.00  0.00    +0.002 A 
ATOM     11  C   UNL     1      -2.948   7.855  -0.290  0.00  0.00    +0.025 A 
ATOM     12  C   UNL     1      -3.955   6.917  -0.141  0.00  0.00    +0.052 A 
ATOM     13  N   UNL     1      -5.026   6.833  -1.023  0.00  0.00    -0.316 N 
ATOM     14  C   UNL     1      -5.669   3.432  -2.245  0.00  0.00    +0.163 C 
ATOM     15  O   UNL     1      -5.671   2.291  -1.826  0.00  0.00    -0.292 OA
ATOM     16  C   UNL     1      -6.021   3.674  -3.682  0.00  0.00    +0.088 C 
ATOM     17  H   UNL     1      -5.609   5.126   1.741  0.00  0.00    +0.147 HD
ATOM     18  H   UNL     1      -5.613   7.603  -1.093  0.00  0.00    +0.152 HD
ENDROOT
BRANCH   1  21
ATOM     19  C   UNL     1      -8.432   5.994  -6.996  0.00  0.00    +0.165 A 
ATOM     20  C   UNL     1      -8.176   5.708  -5.664  0.00  0.00    +0.053 A 
ATOM     21  C   UNL     1      -6.894   5.389  -5.258  0.00  0.00    -0.036 A 
ATOM     22  C   UNL     1      -5.861   5.358  -6.177  0.00  0.00    +0.053 A 
ATOM     23  C   UNL     1      -6.111   5.637  -7.512  0.00  0.00    +0.165 A 
ATOM     24  C   UNL     1      -7.399   5.958  -7.924  0.00  0.00    +0.204 A 
BRANCH  19  26
ATOM     25  C   UNL     1     -10.707   6.324  -6.387  0.00  0.00    +0.277 C 
ATOM     26  O   UNL     1      -9.694   6.307  -7.394  0.00  0.00    -0.491 OA
ENDBRANCH  19  26
BRANCH  24  27
ATOM     27  O   UNL     1      -7.646   6.238  -9.233  0.00  0.00    -0.488 OA
ATOM     28  C   UNL     1      -7.527   7.603  -9.639  0.00  0.00    +0.277 C 
ENDBRANCH  24  27
BRANCH  23  29
ATOM     29  O   UNL     1      -5.096   5.601  -8.416  0.00  0.00    -0.491 OA
ATOM     30  C   UNL     1      -3.798   5.263  -7.922  0.00  0.00    +0.277 C 
ENDBRANCH  23  29
ENDBRANCH   1  21
BRANCH   5  31
ATOM     31  C   UNL     1      -3.719   3.286   0.038  0.00  0.00    -0.023 A 
ATOM     32  C   UNL     1      -3.681   1.934   0.323  0.00  0.00    +0.008 A 
ATOM     33  C   UNL     1      -2.475   1.259   0.313  0.00  0.00    +0.033 A 
ATOM     34  C   UNL     1      -1.306   1.936   0.019  0.00  0.00    +0.126 A 
ATOM     35  C   UNL     1      -1.343   3.289  -0.260  0.00  0.00    +0.033 A 
ATOM     36  C   UNL     1      -2.550   3.963  -0.256  0.00  0.00    +0.008 A 
BRANCH  34  37
ATOM     37  N   UNL     1      -0.015   1.213   0.009  0.00  0.00    +0.056 N 
ATOM     38  O   UNL     1       0.018   0.022   0.260  0.00  0.00    -0.126 OA
ATOM     39  O   UNL     1       1.014   1.809  -0.255  0.00  0.00    -0.126 OA
ENDBRANCH  34  37
ENDBRANCH   5  31
TORSDOF 6
