REMARK  Name = ZINC22688771
REMARK  12 active torsions:
REMARK  status: ('A' for Active; 'I' for Inactive)
REMARK    1  A    between atoms: C_1  and  C_2
REMARK    2  A    between atoms: C_2  and  C_4
REMARK    3  A    between atoms: C_2  and  O_29
REMARK    4  A    between atoms: N_6  and  N_7
REMARK    5  A    between atoms: C_8  and  C_10
REMARK    6  A    between atoms: C_10  and  C_12
REMARK    7  A    between atoms: C_10  and  N_15
REMARK    8  A    between atoms: C_12  and  C_13
REMARK    9  A    between atoms: C_12  and  C_14
REMARK   10  A    between atoms: N_15  and  S_16
REMARK   11  A    between atoms: S_16  and  C_19
REMARK   12  A    between atoms: O_29  and  C_30
REMARK                            x       y       z     vdW  Elec       q    Type
REMARK                         _______ _______ _______ _____ _____    ______ ____
ROOT
ATOM      1  C   UNL     1       5.658  -1.306   3.194  0.00  0.00    +0.166 C 
ENDROOT
BRANCH   1   3
ATOM      2  N   UNL     1       3.892  -1.777   1.528  0.00  0.00    -0.233 N 
ATOM      3  C   UNL     1       5.066  -1.180   1.814  0.00  0.00    +0.248 C 
ATOM      4  O   UNL     1       5.646  -0.542   0.962  0.00  0.00    -0.273 OA
ATOM      5  H   UNL     1       3.397  -2.235   2.226  0.00  0.00    +0.173 HD
BRANCH   2   8
ATOM      6  C   UNL     1       2.211  -2.332  -0.064  0.00  0.00    +0.270 C 
ATOM      7  O   UNL     1       1.593  -2.905   0.808  0.00  0.00    -0.270 OA
ATOM      8  N   UNL     1       3.385  -1.736   0.222  0.00  0.00    -0.231 N 
ATOM      9  H   UNL     1       3.880  -1.278  -0.476  0.00  0.00    +0.173 HD
BRANCH   6  11
ATOM     10  C   UNL     1       1.336  -0.842  -1.842  0.00  0.00    +0.062 C 
ATOM     11  C   UNL     1       1.667  -2.288  -1.469  0.00  0.00    +0.257 C 
BRANCH  11  12
ATOM     12  O   UNL     1       0.481  -3.082  -1.545  0.00  0.00    -0.477 OA
BRANCH  12  13
ATOM     13  C   UNL     1       0.138  -3.563  -2.770  0.00  0.00    +0.157 A 
ATOM     14  C   UNL     1       0.922  -3.270  -3.876  0.00  0.00    +0.048 A 
ATOM     15  C   UNL     1       0.571  -3.759  -5.119  0.00  0.00    +0.004 A 
ATOM     16  C   UNL     1      -0.560  -4.541  -5.263  0.00  0.00    +0.003 A 
ATOM     17  C   UNL     1      -1.345  -4.835  -4.163  0.00  0.00    +0.042 A 
ATOM     18  C   UNL     1      -0.995  -4.353  -2.915  0.00  0.00    +0.165 A 
ATOM     19  F   UNL     1      -1.758  -4.646  -1.839  0.00  0.00    -0.202 F 
ENDBRANCH  12  13
ENDBRANCH  11  12
ENDBRANCH   6  11
ENDBRANCH   2   8
ENDBRANCH   1   3
BRANCH   1  20
ATOM     20  C   UNL     1       4.879  -0.419   4.167  0.00  0.00    +0.010 C 
ATOM     21  C   UNL     1       5.401  -0.639   5.588  0.00  0.00    +0.009 C 
ATOM     22  C   UNL     1       5.065   1.049   3.778  0.00  0.00    +0.009 C 
ENDBRANCH   1  20
BRANCH   1  23
ATOM     23  N   UNL     1       7.061  -0.884   3.164  0.00  0.00    -0.178 NA
ATOM     24  H   UNL     1       7.285   0.042   2.983  0.00  0.00    +0.149 HD
BRANCH  23  25
ATOM     25  S   UNL     1       8.264  -1.989   3.438  0.00  0.00    +0.059 S 
ATOM     26  O   UNL     1       9.495  -1.305   3.245  0.00  0.00    -0.153 OA
ATOM     27  O   UNL     1       7.941  -2.647   4.655  0.00  0.00    -0.153 OA
BRANCH  25  28
ATOM     28  C   UNL     1       8.157  -3.203   2.166  0.00  0.00    +0.106 A 
ATOM     29  C   UNL     1       7.354  -4.326   2.354  0.00  0.00    +0.029 A 
ATOM     30  C   UNL     1       7.250  -5.283   1.392  0.00  0.00    +0.010 A 
ATOM     31  C   UNL     1       7.960  -5.138   0.188  0.00  0.00    -0.018 A 
ATOM     32  C   UNL     1       7.877  -6.104  -0.830  0.00  0.00    +0.008 A 
ATOM     33  C   UNL     1       8.579  -5.930  -1.982  0.00  0.00    +0.001 A 
ATOM     34  C   UNL     1       9.381  -4.806  -2.171  0.00  0.00    +0.001 A 
ATOM     35  C   UNL     1       9.486  -3.850  -1.208  0.00  0.00    +0.008 A 
ATOM     36  C   UNL     1       8.776  -3.995  -0.004  0.00  0.00    -0.016 A 
ATOM     37  C   UNL     1       8.855  -3.026   1.010  0.00  0.00    +0.037 A 
ENDBRANCH  25  28
ENDBRANCH  23  25
ENDBRANCH   1  23
TORSDOF 9
