REMARK  Name = ZINC02531656
REMARK  10 active torsions:
REMARK  status: ('A' for Active; 'I' for Inactive)
REMARK    1  A    between atoms: C_1  and  C_2
REMARK    2  A    between atoms: C_2  and  O_3
REMARK    3  A    between atoms: O_3  and  C_4
REMARK    4  A    between atoms: C_6  and  C_20
REMARK    5  A    between atoms: C_9  and  O_10
REMARK    6  A    between atoms: O_10  and  C_11
REMARK    7  A    between atoms: C_11  and  C_13
REMARK    8  A    between atoms: N_21  and  N_22
REMARK    9  A    between atoms: C_23  and  C_25
REMARK   10  A    between atoms: N_27  and  C_28
REMARK                            x       y       z     vdW  Elec       q    Type
REMARK                         _______ _______ _______ _____ _____    ______ ____
ROOT
ATOM      1  C   UNL     1      -3.301   1.469   2.474  0.00  0.00    +0.163 A 
ATOM      2  C   UNL     1      -2.716   2.247   3.456  0.00  0.00    +0.059 A 
ATOM      3  C   UNL     1      -3.479   2.689   4.540  0.00  0.00    -0.002 A 
ATOM      4  C   UNL     1      -4.830   2.341   4.627  0.00  0.00    +0.013 A 
ATOM      5  C   UNL     1      -5.407   1.564   3.645  0.00  0.00    +0.051 A 
ATOM      6  C   UNL     1      -4.650   1.131   2.565  0.00  0.00    +0.173 A 
ENDROOT
BRANCH   3   7
ATOM      7  C   UNL     1      -2.861   3.519   5.589  0.00  0.00    +0.138 C 
ATOM      8  N   UNL     1      -3.572   3.928   6.596  0.00  0.00    -0.187 NA
BRANCH   8   9
ATOM      9  N   UNL     1      -2.984   4.718   7.593  0.00  0.00    -0.199 N 
ATOM     10  C   UNL     1      -3.722   5.143   8.638  0.00  0.00    +0.318 C 
ATOM     11  O   UNL     1      -4.896   4.841   8.716  0.00  0.00    -0.263 OA
ATOM     12  H   UNL     1      -2.047   4.959   7.532  0.00  0.00    +0.178 HD
BRANCH  10  13
ATOM     13  C   UNL     1      -3.096   5.983   9.700  0.00  0.00    +0.305 C 
ATOM     14  O   UNL     1      -1.923   6.284   9.622  0.00  0.00    -0.265 OA
ATOM     15  N   UNL     1      -3.834   6.408  10.745  0.00  0.00    -0.276 N 
ATOM     16  H   UNL     1      -4.784   6.214  10.778  0.00  0.00    +0.155 HD
BRANCH  15  17
ATOM     17  C   UNL     1      -3.230   7.127  11.780  0.00  0.00    +0.052 A 
ATOM     18  C   UNL     1      -2.184   7.998  11.504  0.00  0.00    +0.025 A 
ATOM     19  C   UNL     1      -1.592   8.711  12.528  0.00  0.00    +0.002 A 
ATOM     20  C   UNL     1      -2.033   8.550  13.829  0.00  0.00    +0.002 A 
ATOM     21  C   UNL     1      -3.070   7.680  14.109  0.00  0.00    +0.022 A 
ATOM     22  C   UNL     1      -3.671   6.967  13.088  0.00  0.00    +0.062 A 
ATOM     23 CL   UNL     1      -4.973   5.875  13.440  0.00  0.00    -0.082 Cl
ENDBRANCH  15  17
ENDBRANCH  10  13
ENDBRANCH   8   9
ENDBRANCH   3   7
BRANCH   1  24
ATOM     24  O   UNL     1      -2.562   1.038   1.418  0.00  0.00    -0.489 OA
BRANCH  24  26
ATOM     25  C   UNL     1      -0.523   0.852   0.133  0.00  0.00    +0.048 C 
ATOM     26  C   UNL     1      -1.187   1.427   1.386  0.00  0.00    +0.226 C 
ENDBRANCH  24  26
ENDBRANCH   1  24
BRANCH   6  27
ATOM     27  O   UNL     1      -5.225   0.370   1.597  0.00  0.00    -0.419 OA
BRANCH  27  28
ATOM     28  C   UNL     1      -5.128  -0.967   1.731  0.00  0.00    +0.345 C 
ATOM     29  O   UNL     1      -4.469  -1.440   2.635  0.00  0.00    -0.245 OA
BRANCH  28  30
ATOM     30  C   UNL     1      -5.823  -1.857   0.779  0.00  0.00    +0.059 A 
ATOM     31  C   UNL     1      -6.586  -1.315  -0.258  0.00  0.00    +0.016 A 
ATOM     32  C   UNL     1      -7.227  -2.152  -1.147  0.00  0.00    +0.021 A 
ATOM     33  C   UNL     1      -7.126  -3.526  -1.006  0.00  0.00    +0.041 A 
ATOM     34  C   UNL     1      -6.376  -4.069   0.024  0.00  0.00    +0.021 A 
ATOM     35  C   UNL     1      -5.725  -3.243   0.916  0.00  0.00    +0.016 A 
ATOM     36 CL   UNL     1      -7.942  -4.572  -2.125  0.00  0.00    -0.084 Cl
ENDBRANCH  28  30
ENDBRANCH  27  28
ENDBRANCH   6  27
TORSDOF 9
