REMARK  Name = ZINC44563406
REMARK  6 active torsions:
REMARK  status: ('A' for Active; 'I' for Inactive)
REMARK    1  A    between atoms: C_1  and  N_2
REMARK    2  A    between atoms: C_7  and  C_9
REMARK    3  A    between atoms: C_9  and  N_10
REMARK    4  A    between atoms: N_10  and  S_11
REMARK    5  A    between atoms: S_11  and  C_14
REMARK    6  A    between atoms: C_17  and  N_21
REMARK                            x       y       z     vdW  Elec       q    Type
REMARK                         _______ _______ _______ _____ _____    ______ ____
ROOT
ATOM      1  S   UNL     1       3.204   2.759   1.702  0.00  0.00    +0.061 S 
ATOM      2  O   UNL     1       2.698   4.087   1.706  0.00  0.00    -0.153 OA
ATOM      3  O   UNL     1       3.866   2.192   2.824  0.00  0.00    -0.153 OA
ENDROOT
BRANCH   1   4
ATOM      4  C   UNL     1       4.325   2.651   0.347  0.00  0.00    +0.142 A 
ATOM      5  C   UNL     1       5.324   1.693   0.352  0.00  0.00    +0.070 A 
ATOM      6  C   UNL     1       6.205   1.607  -0.709  0.00  0.00    +0.044 A 
ATOM      7  C   UNL     1       6.088   2.482  -1.781  0.00  0.00    +0.027 A 
ATOM      8  C   UNL     1       5.084   3.442  -1.783  0.00  0.00    +0.044 A 
ATOM      9  C   UNL     1       4.202   3.521  -0.722  0.00  0.00    +0.070 A 
ATOM     10 CL   UNL     1       2.944   4.716  -0.727  0.00  0.00    -0.081 Cl
ATOM     11 CL   UNL     1       5.470   0.600   1.693  0.00  0.00    -0.081 Cl
BRANCH   7  12
ATOM     12  N   UNL     1       6.977   2.397  -2.854  0.00  0.00    -0.358 N 
ATOM     13  H   UNL     1       7.678   1.726  -2.852  0.00  0.00    +0.142 HD
ATOM     14  H   UNL     1       6.894   3.008  -3.603  0.00  0.00    +0.142 HD
ENDBRANCH   7  12
ENDBRANCH   1   4
BRANCH   1  15
ATOM     15  N   UNL     1       1.923   1.766   1.358  0.00  0.00    -0.191 NA
ATOM     16  H   UNL     1       1.040   2.143   1.224  0.00  0.00    +0.148 HD
BRANCH  15  17
ATOM     17  C   UNL     1       2.126   0.319   1.256  0.00  0.00    +0.090 C 
BRANCH  17  24
ATOM     18  C   UNL     1       0.891  -0.290   3.703  0.00  0.00    -0.096 C 
ATOM     19  N   UNL     1       0.059   0.010   2.530  0.00  0.00    +0.381 N 
ATOM     20  C   UNL     1      -1.209  -0.723   2.630  0.00  0.00    -0.079 C 
ATOM     21  C   UNL     1      -2.112  -0.351   1.452  0.00  0.00    -0.019 C 
ATOM     22  C   UNL     1      -1.410  -0.718   0.142  0.00  0.00    -0.003 C 
ATOM     23  C   UNL     1      -0.056  -0.006   0.082  0.00  0.00    -0.014 C 
ATOM     24  C   UNL     1       0.771  -0.391   1.311  0.00  0.00    -0.053 C 
ATOM     25  H   UNL     1      -0.130   1.001   2.498  0.00  0.00    -0.082 HD
ENDBRANCH  17  24
ENDBRANCH  15  17
ENDBRANCH   1  15
TORSDOF 5
