REMARK  Name = ZINC36028151
REMARK  11 active torsions:
REMARK  status: ('A' for Active; 'I' for Inactive)
REMARK    1  A    between atoms: C_1  and  C_2
REMARK    2  A    between atoms: C_2  and  C_3
REMARK    3  A    between atoms: C_3  and  C_5
REMARK    4  A    between atoms: C_3  and  C_6
REMARK    5  A    between atoms: N_10  and  C_29
REMARK    6  A    between atoms: N_15  and  S_18
REMARK    7  A    between atoms: S_18  and  C_21
REMARK    8  A    between atoms: C_29  and  C_30
REMARK    9  A    between atoms: C_30  and  C_31
REMARK   10  A    between atoms: C_31  and  O_32
REMARK   11  A    between atoms: O_32  and  C_33
REMARK                            x       y       z     vdW  Elec       q    Type
REMARK                         _______ _______ _______ _____ _____    ______ ____
ROOT
ATOM      1  C   UNL     1       0.906  -1.982  -1.251  0.00  0.00    +0.022 C 
ATOM      2  C   UNL     1       1.794  -2.354  -0.083  0.00  0.00    +0.201 C 
ATOM      3  O   UNL     1       1.803  -1.811   1.001  0.00  0.00    -0.277 OA
ATOM      4  N   UNL     1       2.574  -3.392  -0.452  0.00  0.00    -0.314 N 
ATOM      5  C   UNL     1       2.265  -3.769  -1.834  0.00  0.00    +0.006 C 
ATOM      6  N   UNL     1       1.537  -2.627  -2.429  0.00  0.00    +0.401 N 
ATOM      7  C   UNL     1       1.376  -5.012  -1.856  0.00  0.00    +0.023 C 
ATOM      8  C   UNL     1       2.121  -6.181  -1.202  0.00  0.00    +0.109 C 
ATOM      9  N   UNL     1       3.420  -6.345  -1.868  0.00  0.00    -0.177 NA
ATOM     10  C   UNL     1       4.317  -5.185  -1.966  0.00  0.00    +0.109 C 
ATOM     11  C   UNL     1       3.554  -4.024  -2.613  0.00  0.00    +0.023 C 
ATOM     12  H   UNL     1       0.834  -2.949  -3.078  0.00  0.00    -0.082 HD
ATOM     13  H   UNL     1       2.178  -1.993  -2.881  0.00  0.00    -0.082 HD
ENDROOT
BRANCH   9  14
ATOM     14  S   UNL     1       3.866  -7.810  -2.498  0.00  0.00    +0.061 S 
ATOM     15  O   UNL     1       5.286  -7.816  -2.547  0.00  0.00    -0.153 OA
ATOM     16  O   UNL     1       3.124  -8.797  -1.794  0.00  0.00    -0.153 OA
BRANCH  14  17
ATOM     17  C   UNL     1       3.304  -7.853  -4.167  0.00  0.00    +0.107 A 
ATOM     18  C   UNL     1       2.042  -8.336  -4.459  0.00  0.00    +0.030 A 
ATOM     19  C   UNL     1       1.601  -8.370  -5.768  0.00  0.00    +0.023 A 
ATOM     20  C   UNL     1       2.421  -7.920  -6.787  0.00  0.00    +0.059 A 
ATOM     21  C   UNL     1       3.685  -7.436  -6.495  0.00  0.00    +0.061 A 
ATOM     22  C   UNL     1       4.123  -7.398  -5.183  0.00  0.00    +0.050 A 
ATOM     23 CL   UNL     1       4.716  -6.872  -7.772  0.00  0.00    -0.082 Cl
ATOM     24 CL   UNL     1       1.867  -7.964  -8.432  0.00  0.00    -0.082 Cl
ENDBRANCH  14  17
ENDBRANCH   9  14
BRANCH   1  25
ATOM     25  C   UNL     1       0.871  -0.463  -1.431  0.00  0.00    -0.020 C 
ATOM     26  C   UNL     1       0.029  -0.114  -2.660  0.00  0.00    +0.006 C 
BRANCH  25  28
ATOM     27  C   UNL     1       0.331   1.706  -0.314  0.00  0.00    +0.004 C 
ATOM     28  C   UNL     1       0.253   0.183  -0.189  0.00  0.00    -0.001 C 
ENDBRANCH  25  28
ENDBRANCH   1  25
BRANCH   4  29
ATOM     29  C   UNL     1       3.575  -4.041   0.398  0.00  0.00    +0.108 C 
BRANCH  29  30
ATOM     30  C   UNL     1       4.915  -3.319   0.250  0.00  0.00    +0.047 C 
BRANCH  30  31
ATOM     31  C   UNL     1       5.992  -4.077   1.030  0.00  0.00    +0.161 C 
BRANCH  31  32
ATOM     32  O   UNL     1       7.244  -3.402   0.891  0.00  0.00    -0.383 OA
ATOM     33  C   UNL     1       8.323  -4.031   1.586  0.00  0.00    +0.193 C 
ENDBRANCH  31  32
ENDBRANCH  30  31
ENDBRANCH  29  30
ENDBRANCH   4  29
TORSDOF 8
