REMARK  Name = ZINC39853501
REMARK  9 active torsions:
REMARK  status: ('A' for Active; 'I' for Inactive)
REMARK    1  A    between atoms: C_1  and  C_2
REMARK    2  A    between atoms: N_4  and  C_5
REMARK    3  A    between atoms: C_6  and  C_14
REMARK    4  A    between atoms: C_14  and  C_16
REMARK    5  A    between atoms: C_14  and  N_24
REMARK    6  A    between atoms: C_20  and  O_22
REMARK    7  A    between atoms: O_22  and  C_23
REMARK    8  A    between atoms: C_27  and  C_30
REMARK    9  A    between atoms: C_30  and  C_31
REMARK                            x       y       z     vdW  Elec       q    Type
REMARK                         _______ _______ _______ _____ _____    ______ ____
ROOT
ATOM      1  C   UNL     1      -3.585  -2.446   0.226  0.00  0.00    -0.004 C 
ENDROOT
BRANCH   1   3
ATOM      2  C   UNL     1      -1.103  -2.536   0.175  0.00  0.00    +0.074 A 
ATOM      3  C   UNL     1      -2.285  -3.207   0.210  0.00  0.00    -0.025 A 
ATOM      4  C   UNL     1      -2.291  -4.602   0.233  0.00  0.00    -0.033 A 
ATOM      5  C   UNL     1      -1.078  -5.217   0.217  0.00  0.00    -0.005 A 
ATOM      6  S   UNL     1       0.079  -3.875   0.164  0.00  0.00    -0.078 S 
ATOM      7  C   UNL     1      -0.801  -6.685   0.237  0.00  0.00    +0.043 C 
ATOM      8  C   UNL     1      -2.089  -7.415   0.647  0.00  0.00    +0.005 C 
ATOM      9  C   UNL     1      -3.253  -6.856  -0.176  0.00  0.00    +0.005 C 
ATOM     10  C   UNL     1      -3.573  -5.429   0.272  0.00  0.00    +0.036 C 
BRANCH   2  14
ATOM     11  C   UNL     1       0.625   0.800  -0.056  0.00  0.00    +0.109 C 
ATOM     12  C   UNL     1       0.377  -0.686  -0.027  0.00  0.00    +0.214 C 
ATOM     13  O   UNL     1       1.303  -1.458  -0.160  0.00  0.00    -0.276 OA
ATOM     14  N   UNL     1      -0.874  -1.158   0.147  0.00  0.00    -0.280 N 
ATOM     15  H   UNL     1      -1.614  -0.540   0.253  0.00  0.00    +0.155 HD
ENDBRANCH   2  14
ENDBRANCH   1   3
BRANCH   1  16
ATOM     16  N   UNL     1      -3.571  -1.430  -0.835  0.00  0.00    +0.387 N 
ATOM     17  C   UNL     1      -3.270  -2.072  -2.120  0.00  0.00    -0.077 C 
ATOM     18  C   UNL     1      -3.174  -1.008  -3.216  0.00  0.00    -0.015 C 
ATOM     19  C   UNL     1      -4.509  -0.265  -3.316  0.00  0.00    -0.010 C 
ATOM     20  C   UNL     1      -4.850   0.338  -1.951  0.00  0.00    -0.015 C 
ATOM     21  C   UNL     1      -4.884  -0.776  -0.902  0.00  0.00    -0.077 C 
ATOM     22  H   UNL     1      -2.863  -0.741  -0.631  0.00  0.00    -0.080 HD
BRANCH  19  23
ATOM     23  C   UNL     1      -4.396   0.853  -4.355  0.00  0.00    +0.038 C 
BRANCH  23  24
ATOM     24  C   UNL     1      -5.742   1.504  -4.542  0.00  0.00    -0.047 A 
ATOM     25  C   UNL     1      -6.619   1.017  -5.493  0.00  0.00    +0.003 A 
ATOM     26  C   UNL     1      -7.854   1.614  -5.664  0.00  0.00    +0.000 A 
ATOM     27  C   UNL     1      -8.212   2.697  -4.884  0.00  0.00    +0.000 A 
ATOM     28  C   UNL     1      -7.335   3.183  -3.932  0.00  0.00    +0.000 A 
ATOM     29  C   UNL     1      -6.102   2.584  -3.758  0.00  0.00    +0.003 A 
ENDBRANCH  23  24
ENDBRANCH  19  23
ENDBRANCH   1  16
BRANCH   1  30
ATOM     30  C   UNL     1      -3.757  -1.772   1.563  0.00  0.00    -0.053 A 
ATOM     31  C   UNL     1      -3.396  -0.446   1.720  0.00  0.00    +0.002 A 
ATOM     32  C   UNL     1      -3.552   0.174   2.946  0.00  0.00    +0.004 A 
ATOM     33  C   UNL     1      -4.069  -0.529   4.017  0.00  0.00    +0.045 A 
ATOM     34  C   UNL     1      -4.431  -1.859   3.862  0.00  0.00    +0.120 A 
ATOM     35  C   UNL     1      -4.279  -2.478   2.629  0.00  0.00    +0.048 A 
BRANCH  34  36
ATOM     36  O   UNL     1      -4.940  -2.553   4.914  0.00  0.00    -0.495 OA
ATOM     37  C   UNL     1      -5.074  -1.850   6.151  0.00  0.00    +0.277 C 
ENDBRANCH  34  36
ENDBRANCH   1  30
TORSDOF 7
