REMARK  Name = ZINC51147636
REMARK  5 active torsions:
REMARK  status: ('A' for Active; 'I' for Inactive)
REMARK    1  A    between atoms: C_3  and  C_6
REMARK    2  A    between atoms: N_10  and  C_11
REMARK    3  A    between atoms: C_11  and  C_12
REMARK    4  A    between atoms: C_13  and  N_17
REMARK    5  A    between atoms: N_17  and  N_18
REMARK                            x       y       z     vdW  Elec       q    Type
REMARK                         _______ _______ _______ _____ _____    ______ ____
ROOT
ATOM      1  C   UNL     1       4.867  -0.274   0.809  0.00  0.00    +0.183 C 
ENDROOT
BRANCH   1   6
ATOM      2  C   UNL     1       3.778   1.778  -0.190  0.00  0.00    +0.148 A 
ATOM      3  N   UNL     1       4.159   3.004  -0.485  0.00  0.00    -0.235 NA
ATOM      4  C   UNL     1       5.451   3.154  -0.169  0.00  0.00    +0.131 A 
ATOM      5  C   UNL     1       5.902   1.991   0.342  0.00  0.00    +0.108 A 
ATOM      6  N   UNL     1       4.848   1.114   0.339  0.00  0.00    -0.324 N 
BRANCH   2   9
ATOM      7  C   UNL     1       0.099   1.141  -0.773  0.00  0.00    +0.008 A 
ATOM      8  C   UNL     1       1.248   1.881  -0.617  0.00  0.00    +0.019 A 
ATOM      9  C   UNL     1       2.430   1.223  -0.388  0.00  0.00    +0.055 A 
ATOM     10  S   UNL     1       1.906  -0.484  -0.393  0.00  0.00    -0.094 S 
ATOM     11  C   UNL     1       0.168  -0.214  -0.696  0.00  0.00    +0.046 A 
ENDBRANCH   2   9
ENDBRANCH   1   6
BRANCH   1  12
ATOM     12  C   UNL     1       4.368  -0.329   2.230  0.00  0.00    +0.114 A 
ATOM     13  C   UNL     1       5.194  -0.103   3.294  0.00  0.00    +0.124 A 
ATOM     14  S   UNL     1       4.146  -0.286   4.595  0.00  0.00    +0.053 S 
ATOM     15  N   UNL     1       2.741  -0.631   3.749  0.00  0.00    -0.108 NA
ATOM     16  N   UNL     1       3.112  -0.592   2.514  0.00  0.00    -0.142 NA
BRANCH  13  17
ATOM     17  N   UNL     1       6.554   0.199   3.300  0.00  0.00    -0.274 N 
ATOM     18  H   UNL     1       7.054   0.201   2.468  0.00  0.00    +0.167 HD
BRANCH  17  19
ATOM     19  N   UNL     1       7.183   0.493   4.476  0.00  0.00    -0.256 NA
ATOM     20  H   UNL     1       7.139  -0.287   5.114  0.00  0.00    +0.140 HD
ATOM     21  H   UNL     1       8.139   0.773   4.314  0.00  0.00    +0.140 HD
ENDBRANCH  17  19
ENDBRANCH  13  17
ENDBRANCH   1  12
TORSDOF 5
