REMARK  Name = ZINC22370665
REMARK  12 active torsions:
REMARK  status: ('A' for Active; 'I' for Inactive)
REMARK    1  A    between atoms: C_1  and  C_2
REMARK    2  A    between atoms: C_2  and  C_3
REMARK    3  A    between atoms: N_9  and  C_10
REMARK    4  A    between atoms: C_10  and  C_11
REMARK    5  A    between atoms: C_11  and  C_12
REMARK    6  A    between atoms: C_12  and  N_13
REMARK    7  A    between atoms: C_14  and  C_16
REMARK    8  A    between atoms: C_16  and  N_17
REMARK    9  A    between atoms: N_17  and  C_18
REMARK   10  A    between atoms: N_17  and  S_25
REMARK   11  A    between atoms: C_23  and  C_24
REMARK   12  A    between atoms: S_25  and  C_28
REMARK                            x       y       z     vdW  Elec       q    Type
REMARK                         _______ _______ _______ _____ _____    ______ ____
ROOT
ATOM      1  N   UNL     1      -7.894  -0.016   6.484  0.00  0.00    -0.194 N 
ENDROOT
BRANCH   1   2
ATOM      2  C   UNL     1      -7.972  -1.333   6.942  0.00  0.00    +0.055 A 
ATOM      3  C   UNL     1      -7.840  -2.389   6.049  0.00  0.00    +0.025 A 
ATOM      4  C   UNL     1      -7.917  -3.690   6.505  0.00  0.00    +0.002 A 
ATOM      5  C   UNL     1      -8.126  -3.943   7.848  0.00  0.00    +0.000 A 
ATOM      6  C   UNL     1      -8.258  -2.894   8.740  0.00  0.00    +0.005 A 
ATOM      7  C   UNL     1      -8.177  -1.590   8.291  0.00  0.00    -0.028 A 
ATOM      8  C   UNL     1      -8.314  -0.448   9.265  0.00  0.00    +0.046 C 
ENDBRANCH   1   2
BRANCH   1   9
ATOM      9  S   UNL     1      -9.276   0.812   6.103  0.00  0.00    +0.075 S 
ATOM     10  O   UNL     1     -10.310   0.272   6.915  0.00  0.00    -0.150 OA
ATOM     11  O   UNL     1      -8.940   2.193   6.117  0.00  0.00    -0.150 OA
BRANCH   9  12
ATOM     12  C   UNL     1      -9.682   0.409   4.437  0.00  0.00    +0.109 A 
ATOM     13  C   UNL     1      -9.119   1.124   3.396  0.00  0.00    +0.030 A 
ATOM     14  C   UNL     1      -9.432   0.805   2.088  0.00  0.00    +0.022 A 
ATOM     15  C   UNL     1     -10.319  -0.223   1.821  0.00  0.00    +0.041 A 
ATOM     16  C   UNL     1     -10.887  -0.935   2.863  0.00  0.00    +0.022 A 
ATOM     17  C   UNL     1     -10.568  -0.618   4.170  0.00  0.00    +0.030 A 
ATOM     18 CL   UNL     1     -10.718  -0.621   0.179  0.00  0.00    -0.084 Cl
ENDBRANCH   9  12
ENDBRANCH   1   9
BRANCH   1  19
ATOM     19  C   UNL     1      -6.588   0.634   6.342  0.00  0.00    +0.227 C 
BRANCH  19  21
ATOM     20  N   UNL     1      -4.751   0.688   4.687  0.00  0.00    -0.314 N 
ATOM     21  C   UNL     1      -6.001   0.291   4.997  0.00  0.00    +0.232 C 
ATOM     22  O   UNL     1      -6.653  -0.342   4.194  0.00  0.00    -0.274 OA
ATOM     23  H   UNL     1      -4.159   1.262   5.415  0.00  0.00    +0.149 HD
BRANCH  20  24
ATOM     24  C   UNL     1      -4.180   0.354   3.380  0.00  0.00    +0.102 C 
BRANCH  24  25
ATOM     25  C   UNL     1      -2.760   0.918   3.284  0.00  0.00    +0.000 C 
BRANCH  25  26
ATOM     26  C   UNL     1      -2.164   0.570   1.919  0.00  0.00    -0.077 C 
BRANCH  26  32
ATOM     27  C   UNL     1      -0.157   0.706   0.572  0.00  0.00    -0.069 C 
ATOM     28  C   UNL     1       1.199   1.403   0.444  0.00  0.00    -0.015 C 
ATOM     29  C   UNL     1       2.079   1.021   1.637  0.00  0.00    -0.003 C 
ATOM     30  C   UNL     1       1.363   1.410   2.934  0.00  0.00    -0.019 C 
ATOM     31  C   UNL     1       0.003   0.712   2.990  0.00  0.00    -0.078 C 
ATOM     32  N   UNL     1      -0.801   1.111   1.827  0.00  0.00    +0.382 N 
ATOM     33  H   UNL     1      -0.871   2.209   1.829  0.00  0.00    -0.081 HD
BRANCH  27  35
ATOM     34  C   UNL     1      -0.433   0.578  -1.908  0.00  0.00    +0.002 C 
ATOM     35  C   UNL     1      -1.047   1.101  -0.609  0.00  0.00    -0.019 C 
ENDBRANCH  27  35
ENDBRANCH  26  32
ENDBRANCH  25  26
ENDBRANCH  24  25
ENDBRANCH  20  24
ENDBRANCH  19  21
ENDBRANCH   1  19
TORSDOF 10
