REMARK  Name = ZINC63746577
REMARK  7 active torsions:
REMARK  status: ('A' for Active; 'I' for Inactive)
REMARK    1  A    between atoms: C_1  and  C_2
REMARK    2  A    between atoms: C_6  and  N_9
REMARK    3  A    between atoms: C_7  and  C_8
REMARK    4  A    between atoms: N_12  and  C_13
REMARK    5  A    between atoms: C_15  and  C_37
REMARK    6  A    between atoms: C_18  and  C_31
REMARK    7  A    between atoms: C_19  and  C_23
REMARK                            x       y       z     vdW  Elec       q    Type
REMARK                         _______ _______ _______ _____ _____    ______ ____
ROOT
ATOM      1  C   UNL     1      -0.079  -6.217   3.442  0.00  0.00    +0.059 A 
ATOM      2  C   UNL     1      -0.073  -6.905   2.269  0.00  0.00    +0.028 A 
ATOM      3  C   UNL     1      -0.059  -8.303   2.235  0.00  0.00    -0.048 A 
ATOM      4  C   UNL     1      -0.051  -9.056   3.358  0.00  0.00    +0.013 A 
ATOM      5  C   UNL     1      -0.056  -8.439   4.634  0.00  0.00    +0.006 A 
ATOM      6  C   UNL     1      -0.051  -8.947   5.921  0.00  0.00    -0.000 C 
ATOM      7  C   UNL     1      -0.062  -7.743   6.836  0.00  0.00    +0.198 C 
ATOM      8  N   UNL     1      -0.074  -6.568   5.959  0.00  0.00    -0.368 N 
ATOM      9  C   UNL     1      -0.065  -6.965   4.709  0.00  0.00    +0.065 A 
ATOM     10  C   UNL     1      -0.053  -8.996   0.897  0.00  0.00    +0.044 C 
ATOM     11  H   UNL     1      -0.084  -5.645   6.255  0.00  0.00    +0.161 HD
ENDROOT
BRANCH   7  12
ATOM     12  C   UNL     1      -1.297  -7.760   7.700  0.00  0.00    +0.243 C 
ATOM     13  O   UNL     1      -2.283  -7.141   7.361  0.00  0.00    -0.273 OA
ATOM     14  N   UNL     1      -1.305  -8.463   8.850  0.00  0.00    -0.295 N 
ATOM     15  C   UNL     1      -0.087  -9.126   9.341  0.00  0.00    +0.136 C 
ATOM     16  C   UNL     1       0.123  -8.728  10.807  0.00  0.00    +0.179 C 
ATOM     17  O   UNL     1      -1.078  -8.982  11.540  0.00  0.00    -0.377 OA
ATOM     18  C   UNL     1      -2.204  -8.217  11.102  0.00  0.00    +0.179 C 
ATOM     19  C   UNL     1      -2.531  -8.585   9.655  0.00  0.00    +0.136 C 
ENDBRANCH   7  12
BRANCH   1  23
ATOM     20  N   UNL     1       0.635  -2.792   2.542  0.00  0.00    -0.269 N 
ATOM     21  C   UNL     1       0.568  -4.137   2.487  0.00  0.00    +0.308 C 
ATOM     22  O   UNL     1       1.103  -4.736   1.574  0.00  0.00    -0.252 OA
ATOM     23  N   UNL     1      -0.092  -4.819   3.444  0.00  0.00    -0.267 N 
ATOM     24  H   UNL     1       0.280  -2.320   3.312  0.00  0.00    +0.156 HD
ATOM     25  H   UNL     1      -0.577  -4.340   4.135  0.00  0.00    +0.156 HD
BRANCH  20  31
ATOM     26  C   UNL     1       2.913   1.253   0.924  0.00  0.00    +0.044 C 
ATOM     27  C   UNL     1       2.328  -0.114   0.677  0.00  0.00    -0.046 A 
ATOM     28  C   UNL     1       2.366  -0.662  -0.592  0.00  0.00    +0.004 A 
ATOM     29  C   UNL     1       1.830  -1.915  -0.823  0.00  0.00    +0.002 A 
ATOM     30  C   UNL     1       1.256  -2.624   0.214  0.00  0.00    +0.023 A 
ATOM     31  C   UNL     1       1.216  -2.077   1.490  0.00  0.00    +0.038 A 
ATOM     32  C   UNL     1       1.760  -0.819   1.719  0.00  0.00    -0.026 A 
ATOM     33  C   UNL     1       1.724  -0.224   3.103  0.00  0.00    +0.046 C 
ENDBRANCH  20  31
ENDBRANCH   1  23
BRANCH   6  34
ATOM     34  C   UNL     1      -0.037 -10.358   6.315  0.00  0.00    -0.019 A 
ATOM     35  C   UNL     1      -1.237 -11.079   6.398  0.00  0.00    +0.008 A 
ATOM     36  C   UNL     1      -1.214 -12.405   6.769  0.00  0.00    +0.001 A 
ATOM     37  C   UNL     1      -0.011 -13.027   7.059  0.00  0.00    +0.000 A 
ATOM     38  C   UNL     1       1.179 -12.323   6.980  0.00  0.00    +0.001 A 
ATOM     39  C   UNL     1       1.177 -10.997   6.606  0.00  0.00    +0.008 A 
ENDBRANCH   6  34
TORSDOF 4
