REMARK  Name = ZINC39695815
REMARK  8 active torsions:
REMARK  status: ('A' for Active; 'I' for Inactive)
REMARK    1  A    between atoms: C_1  and  C_2
REMARK    2  A    between atoms: C_9  and  C_11
REMARK    3  A    between atoms: C_11  and  C_13
REMARK    4  A    between atoms: C_11  and  N_14
REMARK    5  A    between atoms: C_15  and  C_17
REMARK    6  A    between atoms: C_28  and  C_30
REMARK    7  A    between atoms: C_34  and  O_35
REMARK    8  A    between atoms: O_35  and  C_36
REMARK                            x       y       z     vdW  Elec       q    Type
REMARK                         _______ _______ _______ _____ _____    ______ ____
ROOT
ATOM      1  C   UNL     1      -1.633  -8.765   1.010  0.00  0.00    +0.100 C 
ATOM      2  C   UNL     1      -2.905  -8.233   0.312  0.00  0.00    +0.121 C 
ATOM      3  N   UNL     1      -3.820  -9.398   0.264  0.00  0.00    -0.296 N 
ATOM      4  C   UNL     1      -3.626 -10.074   1.569  0.00  0.00    +0.115 C 
ATOM      5  C   UNL     1      -2.111  -9.972   1.835  0.00  0.00    -0.004 C 
ATOM      6  C   UNL     1      -1.851  -9.734   3.319  0.00  0.00    -0.010 C 
ATOM      7  C   UNL     1      -2.280 -10.971   4.113  0.00  0.00    -0.082 C 
ATOM      8  N   UNL     1      -1.526 -12.141   3.645  0.00  0.00    +0.379 N 
ATOM      9  C   UNL     1      -1.854 -12.418   2.241  0.00  0.00    -0.082 C 
ATOM     10  C   UNL     1      -1.406 -11.242   1.369  0.00  0.00    -0.010 C 
ATOM     11  C   UNL     1      -4.643  -9.761  -0.740  0.00  0.00    +0.251 C 
ATOM     12  O   UNL     1      -4.618  -9.157  -1.796  0.00  0.00    -0.270 OA
ATOM     13  H   UNL     1      -0.538 -11.957   3.729  0.00  0.00    -0.086 HD
ATOM     14  H   UNL     1      -1.766 -12.942   4.210  0.00  0.00    -0.086 HD
ENDROOT
BRANCH  11  15
ATOM     15  C   UNL     1      -5.570 -10.888  -0.559  0.00  0.00    +0.087 A 
ATOM     16  C   UNL     1      -6.163 -11.147   0.657  0.00  0.00    +0.063 A 
ATOM     17  S   UNL     1      -7.115 -12.499   0.375  0.00  0.00    -0.081 S 
ATOM     18  C   UNL     1      -6.769 -12.771  -1.349  0.00  0.00    +0.120 A 
ATOM     19  C   UNL     1      -5.909 -11.772  -1.651  0.00  0.00    +0.158 A 
ATOM     20 CL   UNL     1      -7.389 -14.012  -2.392  0.00  0.00    -0.072 Cl
BRANCH  19  21
ATOM     21  O   UNL     1      -5.391 -11.613  -2.901  0.00  0.00    -0.492 OA
ATOM     22  C   UNL     1      -4.167 -12.292  -3.188  0.00  0.00    +0.277 C 
ENDBRANCH  19  21
ENDBRANCH  11  15
BRANCH   1  24
ATOM     23  N   UNL     1       0.242  -7.782   2.289  0.00  0.00    -0.305 N 
ATOM     24  C   UNL     1      -1.051  -7.709   1.914  0.00  0.00    +0.219 C 
ATOM     25  O   UNL     1      -1.745  -6.795   2.304  0.00  0.00    -0.275 OA
ATOM     26  H   UNL     1       0.797  -8.513   1.977  0.00  0.00    +0.149 HD
BRANCH  23  27
ATOM     27  C   UNL     1       0.808  -6.755   3.168  0.00  0.00    +0.136 C 
ATOM     28  C   UNL     1       0.517  -7.115   4.626  0.00  0.00    +0.036 C 
BRANCH  27  37
ATOM     29  C   UNL     1       8.045  -5.128   2.569  0.00  0.00    +0.044 C 
ATOM     30  C   UNL     1       6.733  -5.867   2.528  0.00  0.00    -0.048 A 
ATOM     31  C   UNL     1       6.697  -7.184   2.091  0.00  0.00    +0.005 A 
ATOM     32  C   UNL     1       5.518  -7.872   2.046  0.00  0.00    +0.030 A 
ATOM     33  C   UNL     1       4.333  -7.248   2.443  0.00  0.00    +0.089 A 
ATOM     34  C   UNL     1       4.368  -5.915   2.887  0.00  0.00    +0.067 A 
ATOM     35  C   UNL     1       5.577  -5.233   2.930  0.00  0.00    +0.031 A 
ATOM     36  N   UNL     1       3.066  -5.584   3.204  0.00  0.00    -0.340 N 
ATOM     37  C   UNL     1       2.298  -6.680   2.957  0.00  0.00    +0.128 A 
ATOM     38  N   UNL     1       3.038  -7.653   2.512  0.00  0.00    -0.231 NA
ATOM     39  H   UNL     1       2.756  -4.729   3.541  0.00  0.00    +0.167 HD
ENDBRANCH  27  37
ENDBRANCH  23  27
ENDBRANCH   1  24
TORSDOF 5
