REMARK  Name = ZINC62794421
REMARK  3 active torsions:
REMARK  status: ('A' for Active; 'I' for Inactive)
REMARK    1  A    between atoms: C_3  and  O_8
REMARK    2  A    between atoms: O_8  and  C_9
REMARK    3  A    between atoms: C_12  and  C_16
REMARK                            x       y       z     vdW  Elec       q    Type
REMARK                         _______ _______ _______ _____ _____    ______ ____
ROOT
ATOM      1  C   UNL     1       4.707   1.404   0.069  0.00  0.00    +0.147 A 
ATOM      2  C   UNL     1       4.680   0.014   0.054  0.00  0.00    +0.048 A 
ATOM      3  C   UNL     1       5.854  -0.701   0.144  0.00  0.00    +0.015 A 
ATOM      4  C   UNL     1       7.073  -0.028   0.251  0.00  0.00    +0.014 A 
ATOM      5  C   UNL     1       7.098   1.368   0.265  0.00  0.00    +0.035 A 
ATOM      6  C   UNL     1       5.920   2.078   0.169  0.00  0.00    +0.084 A 
ATOM      7 CL   UNL     1       5.949   3.813   0.180  0.00  0.00    -0.080 Cl
ENDROOT
BRANCH   4   8
ATOM      8  C   UNL     1       8.334  -0.792   0.349  0.00  0.00    +0.094 C 
ATOM      9  N   UNL     1       9.496  -0.149   0.450  0.00  0.00    -0.387 N 
ATOM     10  N   UNL     1       8.309  -2.124   0.335  0.00  0.00    -0.345 N 
ATOM     11  H   UNL     1       9.515   0.821   0.460  0.00  0.00    +0.157 HD
ATOM     12  H   UNL     1       7.462  -2.592   0.261  0.00  0.00    +0.144 HD
ATOM     13  H   UNL     1       9.136  -2.626   0.399  0.00  0.00    +0.144 HD
ATOM     14  H   UNL     1      10.324  -0.650   0.514  0.00  0.00    +0.157 HD
ENDBRANCH   4   8
BRANCH   1  15
ATOM     15  O   UNL     1       3.548   2.105  -0.021  0.00  0.00    -0.455 OA
BRANCH  15  18
ATOM     16  C   UNL     1       0.797   0.056   1.192  0.00  0.00    +0.005 A 
ATOM     17  C   UNL     1       1.986   0.759   1.166  0.00  0.00    +0.046 A 
ATOM     18  C   UNL     1       2.380   1.412   0.007  0.00  0.00    +0.130 A 
ATOM     19  C   UNL     1       1.578   1.356  -1.125  0.00  0.00    +0.061 A 
ATOM     20  C   UNL     1       0.390   0.651  -1.093  0.00  0.00    +0.021 A 
ATOM     21  C   UNL     1      -0.000   0.001   0.065  0.00  0.00    +0.015 A 
ATOM     22 BR   UNL     1      -0.704   0.574  -2.634  0.00  0.00    -0.050 Br
ENDBRANCH  15  18
ENDBRANCH   1  15
TORSDOF 3
