REMARK  Name = ZINC04275849
REMARK  7 active torsions:
REMARK  status: ('A' for Active; 'I' for Inactive)
REMARK    1  A    between atoms: C_1  and  C_2
REMARK    2  A    between atoms: N_4  and  C_5
REMARK    3  A    between atoms: C_7  and  O_30
REMARK    4  A    between atoms: C_15  and  C_17
REMARK    5  A    between atoms: C_15  and  C_18
REMARK    6  A    between atoms: C_20  and  O_22
REMARK    7  A    between atoms: O_22  and  C_23
REMARK                            x       y       z     vdW  Elec       q    Type
REMARK                         _______ _______ _______ _____ _____    ______ ____
ROOT
ATOM      1  C   UNL     1      -0.018   1.461   0.010  0.00  0.00    +0.173 C 
ATOM      2  C   UNL     1      -0.882   1.968  -1.149  0.00  0.00    +0.172 C 
ATOM      3  C   UNL     1      -2.323   1.497  -0.948  0.00  0.00    +0.183 C 
ATOM      4  C   UNL     1      -2.834   1.970   0.417  0.00  0.00    +0.179 C 
ATOM      5  C   UNL     1      -4.234   1.385   0.644  0.00  0.00    +0.197 C 
ATOM      6  O   UNL     1      -4.168  -0.037   0.498  0.00  0.00    -0.347 OA
ATOM      7  C   UNL     1      -3.684  -0.465  -0.777  0.00  0.00    +0.165 C 
ATOM      8  O   UNL     1      -2.376   0.069  -0.996  0.00  0.00    -0.341 OA
ATOM      9  C   UNL     1      -4.628   0.031  -1.874  0.00  0.00    +0.074 C 
ATOM     10  C   UNL     1      -3.622  -1.994  -0.811  0.00  0.00    +0.074 C 
ATOM     11  O   UNL     1      -1.960   1.497   1.444  0.00  0.00    -0.332 OA
ATOM     12  C   UNL     1      -0.611   1.958   1.331  0.00  0.00    +0.331 C 
ENDROOT
BRANCH   1  16
ATOM     13  C   UNL     1       0.916  -2.168  -0.772  0.00  0.00    +0.109 C 
ATOM     14  C   UNL     1       0.895  -0.662  -0.763  0.00  0.00    +0.210 C 
ATOM     15  O   UNL     1       1.683  -0.041  -1.446  0.00  0.00    -0.276 OA
ATOM     16  N   UNL     1       0.002  -0.004   0.002  0.00  0.00    -0.304 N 
ATOM     17  H   UNL     1      -0.628  -0.501   0.547  0.00  0.00    +0.149 HD
ENDBRANCH   1  16
BRANCH   2  18
ATOM     18  O   UNL     1      -0.846   3.396  -1.180  0.00  0.00    -0.387 OA
ATOM     19  H   UNL     1       0.040   3.765  -1.302  0.00  0.00    +0.210 HD
ENDBRANCH   2  18
BRANCH  12  20
ATOM     20  O   UNL     1      -0.592   3.387   1.355  0.00  0.00    -0.462 OA
BRANCH  20  21
ATOM     21  C   UNL     1      -0.888   3.988   2.538  0.00  0.00    +0.124 A 
ATOM     22  C   UNL     1      -1.196   3.219   3.650  0.00  0.00    +0.047 A 
ATOM     23  C   UNL     1      -1.492   3.832   4.852  0.00  0.00    +0.023 A 
ATOM     24  C   UNL     1      -1.492   5.213   4.944  0.00  0.00    +0.041 A 
ATOM     25  C   UNL     1      -1.190   5.982   3.834  0.00  0.00    +0.023 A 
ATOM     26  C   UNL     1      -0.889   5.372   2.632  0.00  0.00    +0.047 A 
ATOM     27 CL   UNL     1      -1.870   5.981   6.454  0.00  0.00    -0.084 Cl
ENDBRANCH  20  21
ENDBRANCH  12  20
TORSDOF 4
