REMARK  Name = ZINC63271408
REMARK  6 active torsions:
REMARK  status: ('A' for Active; 'I' for Inactive)
REMARK    1  A    between atoms: C_4  and  C_7
REMARK    2  A    between atoms: C_7  and  C_9
REMARK    3  A    between atoms: C_7  and  O_31
REMARK    4  A    between atoms: C_9  and  N_10
REMARK    5  A    between atoms: C_11  and  C_13
REMARK    6  A    between atoms: C_13  and  N_14
REMARK                            x       y       z     vdW  Elec       q    Type
REMARK                         _______ _______ _______ _____ _____    ______ ____
ROOT
ATOM      1  N   UNL     1       7.588  -3.361   3.890  0.00  0.00    -0.291 N 
ATOM      2  C   UNL     1       8.769  -3.962   4.135  0.00  0.00    +0.303 C 
ATOM      3  O   UNL     1       9.527  -4.209   3.218  0.00  0.00    -0.253 OA
ATOM      4  N   UNL     1       9.109  -4.289   5.398  0.00  0.00    -0.283 N 
ATOM      5  C   UNL     1       8.140  -4.100   6.482  0.00  0.00    +0.114 C 
ATOM      6  C   UNL     1       7.894  -5.444   7.191  0.00  0.00    +0.052 C 
ATOM      7  C   UNL     1       9.249  -6.069   7.415  0.00  0.00    -0.036 C 
ATOM      8  C   UNL     1       9.821  -6.558   8.509  0.00  0.00    -0.001 A 
ATOM      9  C   UNL     1       9.307  -6.770   9.871  0.00  0.00    +0.010 A 
ATOM     10  C   UNL     1      10.187  -7.283  10.771  0.00  0.00    +0.001 A 
ATOM     11  C   UNL     1      11.511  -7.602  10.456  0.00  0.00    +0.002 A 
ATOM     12  C   UNL     1      12.066  -7.447   9.227  0.00  0.00    +0.026 A 
ATOM     13  C   UNL     1      11.236  -6.923   8.194  0.00  0.00    +0.043 A 
ATOM     14  N   UNL     1      11.495  -6.697   6.939  0.00  0.00    -0.376 N 
ATOM     15  C   UNL     1      10.270  -6.223   6.294  0.00  0.00    +0.124 C 
ATOM     16  C   UNL     1      10.446  -4.838   5.673  0.00  0.00    +0.138 C 
ATOM     17  H   UNL     1       6.951  -3.229   4.610  0.00  0.00    +0.151 HD
ATOM     18  H   UNL     1      12.353  -6.822   6.506  0.00  0.00    +0.160 HD
ENDROOT
BRANCH   1  19
ATOM     19  C   UNL     1       7.265  -2.907   2.535  0.00  0.00    +0.201 C 
BRANCH  19  21
ATOM     20  N   UNL     1       5.387  -1.780   1.384  0.00  0.00    -0.311 N 
ATOM     21  C   UNL     1       5.897  -2.274   2.530  0.00  0.00    +0.230 C 
ATOM     22  O   UNL     1       5.255  -2.208   3.557  0.00  0.00    -0.274 OA
ATOM     23  H   UNL     1       5.900  -1.832   0.563  0.00  0.00    +0.149 HD
BRANCH  20  24
ATOM     24  C   UNL     1       4.058  -1.165   1.379  0.00  0.00    +0.140 C 
BRANCH  24  25
ATOM     25  C   UNL     1       3.720  -0.691  -0.036  0.00  0.00    +0.162 C 
BRANCH  25  29
ATOM     26  C   UNL     1       0.002   1.411   0.013  0.00  0.00    +0.000 A 
ATOM     27  C   UNL     1       1.192   2.113   0.003  0.00  0.00    +0.000 A 
ATOM     28  C   UNL     1       2.396   1.433  -0.012  0.00  0.00    +0.006 A 
ATOM     29  C   UNL     1       2.409   0.051  -0.018  0.00  0.00    -0.018 A 
ATOM     30  C   UNL     1       1.218  -0.651  -0.007  0.00  0.00    +0.006 A 
ATOM     31  C   UNL     1       0.014   0.029   0.007  0.00  0.00    +0.000 A 
ENDBRANCH  25  29
BRANCH  25  32
ATOM     32  O   UNL     1       3.617  -1.820  -0.905  0.00  0.00    -0.386 OA
ATOM     33  H   UNL     1       2.935  -2.454  -0.646  0.00  0.00    +0.210 HD
ENDBRANCH  25  32
ENDBRANCH  24  25
ENDBRANCH  20  24
ENDBRANCH  19  21
ENDBRANCH   1  19
TORSDOF 6
