REMARK  Name = ZINC39533322
REMARK  13 active torsions:
REMARK  status: ('A' for Active; 'I' for Inactive)
REMARK    1  A    between atoms: C_1  and  C_2
REMARK    2  A    between atoms: C_2  and  C_3
REMARK    3  A    between atoms: C_2  and  C_4
REMARK    4  A    between atoms: C_4  and  C_5
REMARK    5  A    between atoms: C_8  and  C_11
REMARK    6  A    between atoms: C_11  and  C_13
REMARK    7  A    between atoms: C_11  and  N_25
REMARK    8  A    between atoms: C_13  and  N_14
REMARK    9  A    between atoms: N_14  and  S_15
REMARK   10  A    between atoms: S_15  and  O_18
REMARK   11  A    between atoms: O_18  and  C_19
REMARK   12  A    between atoms: C_29  and  C_32
REMARK   13  A    between atoms: C_32  and  C_33
REMARK                            x       y       z     vdW  Elec       q    Type
REMARK                         _______ _______ _______ _____ _____    ______ ____
ROOT
ATOM      1  C   UNL     1      -4.085   0.986  -4.891  0.00  0.00    -0.060 C 
ENDROOT
BRANCH   1   2
ATOM      2  N   UNL     1      -4.470  -0.387  -5.246  0.00  0.00    +0.381 N 
ATOM      3  C   UNL     1      -4.945  -0.418  -6.636  0.00  0.00    -0.098 C 
ATOM      4  C   UNL     1      -5.346  -1.848  -7.005  0.00  0.00    -0.101 C 
ATOM      5  N   UNL     1      -6.418  -2.303  -6.110  0.00  0.00    +0.379 N 
ATOM      6  C   UNL     1      -5.943  -2.271  -4.720  0.00  0.00    -0.085 C 
ATOM      7  C   UNL     1      -5.542  -0.841  -4.351  0.00  0.00    -0.094 C 
ATOM      8  H   UNL     1      -7.217  -1.694  -6.206  0.00  0.00    -0.086 HD
ATOM      9  H   UNL     1      -6.683  -3.245  -6.354  0.00  0.00    -0.086 HD
ATOM     10  H   UNL     1      -3.671  -0.995  -5.150  0.00  0.00    -0.081 HD
BRANCH   6  11
ATOM     11  C   UNL     1      -7.060  -2.744  -3.788  0.00  0.00    +0.017 C 
BRANCH  11  12
ATOM     12  C   UNL     1      -7.370  -4.192  -4.071  0.00  0.00    -0.049 A 
ATOM     13  C   UNL     1      -8.325  -4.523  -5.013  0.00  0.00    +0.003 A 
ATOM     14  C   UNL     1      -8.609  -5.851  -5.272  0.00  0.00    +0.000 A 
ATOM     15  C   UNL     1      -7.938  -6.847  -4.589  0.00  0.00    +0.000 A 
ATOM     16  C   UNL     1      -6.983  -6.516  -3.646  0.00  0.00    +0.000 A 
ATOM     17  C   UNL     1      -6.695  -5.189  -3.390  0.00  0.00    +0.003 A 
ENDBRANCH  11  12
ENDBRANCH   6  11
ENDBRANCH   1   2
BRANCH   1  21
ATOM     18  C   UNL     1      -3.114   1.163  -0.735  0.00  0.00    -0.047 A 
ATOM     19  C   UNL     1      -3.823   2.193  -1.324  0.00  0.00    +0.004 A 
ATOM     20  C   UNL     1      -4.137   2.136  -2.669  0.00  0.00    +0.002 A 
ATOM     21  C   UNL     1      -3.742   1.049  -3.425  0.00  0.00    -0.063 A 
ATOM     22  C   UNL     1      -3.032   0.019  -2.837  0.00  0.00    +0.002 A 
ATOM     23  C   UNL     1      -2.714   0.078  -1.493  0.00  0.00    +0.004 A 
BRANCH  18  24
ATOM     24  C   UNL     1      -2.772   1.225   0.731  0.00  0.00    +0.038 C 
BRANCH  24  26
ATOM     25  C   UNL     1      -1.537   3.380   0.460  0.00  0.00    +0.007 C 
ATOM     26  C   UNL     1      -1.422   1.922   0.910  0.00  0.00    -0.013 C 
ATOM     27  C   UNL     1      -1.016   1.875   2.385  0.00  0.00    +0.007 C 
ENDBRANCH  24  26
ENDBRANCH  18  24
ENDBRANCH   1  21
BRANCH   1  28
ATOM     28  C   UNL     1      -2.867   1.404  -5.718  0.00  0.00    -0.121 C 
BRANCH  28  29
ATOM     29  N   UNL     1      -3.246   1.500  -7.131  0.00  0.00    +0.491 NA
BRANCH  29  30
ATOM     30  S   UNL     1      -2.118   1.936  -8.262  0.00  0.00    +0.066 S 
ATOM     31  O   UNL     1      -1.762   3.283  -7.982  0.00  0.00    -0.159 OA
ATOM     32  O   UNL     1      -1.159   0.888  -8.306  0.00  0.00    -0.159 OA
BRANCH  30  33
ATOM     33  O   UNL     1      -2.817   1.943  -9.614  0.00  0.00    -0.362 OA
BRANCH  33  34
ATOM     34  C   UNL     1      -3.636   3.010  -9.808  0.00  0.00    +0.154 A 
ATOM     35  C   UNL     1      -4.969   2.940  -9.432  0.00  0.00    +0.048 A 
ATOM     36  C   UNL     1      -5.799   4.027  -9.630  0.00  0.00    +0.004 A 
ATOM     37  C   UNL     1      -5.302   5.183 -10.203  0.00  0.00    +0.000 A 
ATOM     38  C   UNL     1      -3.974   5.254 -10.579  0.00  0.00    +0.004 A 
ATOM     39  C   UNL     1      -3.138   4.173 -10.378  0.00  0.00    +0.048 A 
ENDBRANCH  33  34
ENDBRANCH  30  33
ENDBRANCH  29  30
ENDBRANCH  28  29
ENDBRANCH   1  28
TORSDOF 11
