REMARK  Name = ZINC39695827
REMARK  10 active torsions:
REMARK  status: ('A' for Active; 'I' for Inactive)
REMARK    1  A    between atoms: C_1  and  C_2
REMARK    2  A    between atoms: C_9  and  C_11
REMARK    3  A    between atoms: C_11  and  C_13
REMARK    4  A    between atoms: C_11  and  N_14
REMARK    5  A    between atoms: C_15  and  C_17
REMARK    6  A    between atoms: C_28  and  C_30
REMARK    7  A    between atoms: C_32  and  O_38
REMARK    8  A    between atoms: C_35  and  O_36
REMARK    9  A    between atoms: O_36  and  C_37
REMARK   10  A    between atoms: O_38  and  C_39
REMARK                            x       y       z     vdW  Elec       q    Type
REMARK                         _______ _______ _______ _____ _____    ______ ____
ROOT
ATOM      1  C   UNL     1      -1.625  -8.774   1.001  0.00  0.00    +0.100 C 
ATOM      2  C   UNL     1      -2.899  -8.239   0.309  0.00  0.00    +0.121 C 
ATOM      3  N   UNL     1      -3.816  -9.402   0.262  0.00  0.00    -0.296 N 
ATOM      4  C   UNL     1      -3.617 -10.081   1.565  0.00  0.00    +0.115 C 
ATOM      5  C   UNL     1      -2.101  -9.982   1.824  0.00  0.00    -0.004 C 
ATOM      6  C   UNL     1      -1.401 -11.253   1.351  0.00  0.00    -0.010 C 
ATOM      7  C   UNL     1      -1.848 -12.431   2.222  0.00  0.00    -0.082 C 
ATOM      8  N   UNL     1      -1.515 -12.158   3.625  0.00  0.00    +0.379 N 
ATOM      9  C   UNL     1      -2.264 -10.989   4.100  0.00  0.00    -0.082 C 
ATOM     10  C   UNL     1      -1.835  -9.750   3.308  0.00  0.00    -0.010 C 
ATOM     11  C   UNL     1      -4.644  -9.761  -0.739  0.00  0.00    +0.250 C 
ATOM     12  O   UNL     1      -4.623  -9.153  -1.792  0.00  0.00    -0.270 OA
ATOM     13  H   UNL     1      -1.755 -12.960   4.188  0.00  0.00    -0.086 HD
ATOM     14  H   UNL     1      -0.525 -11.978   3.706  0.00  0.00    -0.086 HD
ENDROOT
BRANCH  11  15
ATOM     15  C   UNL     1      -5.574 -10.891  -0.558  0.00  0.00    +0.082 A 
ATOM     16  C   UNL     1      -6.158 -11.127   0.690  0.00  0.00    +0.062 A 
ATOM     17  C   UNL     1      -7.029 -12.187   0.852  0.00  0.00    +0.121 A 
ATOM     18  C   UNL     1      -7.326 -13.019  -0.221  0.00  0.00    +0.049 A 
ATOM     19  C   UNL     1      -6.754 -12.793  -1.456  0.00  0.00    +0.050 A 
ATOM     20  C   UNL     1      -5.882 -11.730  -1.637  0.00  0.00    +0.132 A 
BRANCH  20  21
ATOM     21  O   UNL     1      -5.324 -11.506  -2.854  0.00  0.00    -0.494 OA
ATOM     22  C   UNL     1      -5.684 -12.402  -3.907  0.00  0.00    +0.277 C 
ENDBRANCH  20  21
BRANCH  17  23
ATOM     23  O   UNL     1      -7.598 -12.418   2.066  0.00  0.00    -0.495 OA
ATOM     24  C   UNL     1      -8.489 -13.530   2.164  0.00  0.00    +0.277 C 
ENDBRANCH  17  23
ENDBRANCH  11  15
BRANCH   1  26
ATOM     25  N   UNL     1       0.256  -7.797   2.277  0.00  0.00    -0.305 N 
ATOM     26  C   UNL     1      -1.038  -7.721   1.906  0.00  0.00    +0.219 C 
ATOM     27  O   UNL     1      -1.729  -6.806   2.300  0.00  0.00    -0.275 OA
ATOM     28  H   UNL     1       0.808  -8.529   1.962  0.00  0.00    +0.149 HD
BRANCH  25  29
ATOM     29  C   UNL     1       0.826  -6.774   3.157  0.00  0.00    +0.136 C 
ATOM     30  C   UNL     1       0.539  -7.137   4.615  0.00  0.00    +0.036 C 
BRANCH  29  39
ATOM     31  C   UNL     1       8.065  -5.159   2.540  0.00  0.00    +0.044 C 
ATOM     32  C   UNL     1       6.751  -5.896   2.501  0.00  0.00    -0.048 A 
ATOM     33  C   UNL     1       6.712  -7.212   2.061  0.00  0.00    +0.005 A 
ATOM     34  C   UNL     1       5.531  -7.897   2.018  0.00  0.00    +0.030 A 
ATOM     35  C   UNL     1       4.348  -7.272   2.421  0.00  0.00    +0.089 A 
ATOM     36  C   UNL     1       4.387  -5.940   2.867  0.00  0.00    +0.067 A 
ATOM     37  C   UNL     1       5.597  -5.261   2.908  0.00  0.00    +0.031 A 
ATOM     38  N   UNL     1       3.087  -5.607   3.189  0.00  0.00    -0.340 N 
ATOM     39  C   UNL     1       2.316  -6.701   2.941  0.00  0.00    +0.128 A 
ATOM     40  N   UNL     1       3.053  -7.675   2.492  0.00  0.00    -0.231 NA
ATOM     41  H   UNL     1       2.779  -4.753   3.529  0.00  0.00    +0.167 HD
ENDBRANCH  29  39
ENDBRANCH  25  29
ENDBRANCH   1  26
TORSDOF 6
