REMARK  Name = ZINC12752864
REMARK  7 active torsions:
REMARK  status: ('A' for Active; 'I' for Inactive)
REMARK    1  A    between atoms: C_7  and  C_28
REMARK    2  A    between atoms: N_9  and  C_12
REMARK    3  A    between atoms: C_12  and  C_13
REMARK    4  A    between atoms: N_15  and  C_16
REMARK    5  A    between atoms: C_16  and  C_17
REMARK    6  A    between atoms: C_17  and  C_19
REMARK    7  A    between atoms: C_17  and  N_53
REMARK                            x       y       z     vdW  Elec       q    Type
REMARK                         _______ _______ _______ _____ _____    ______ ____
ROOT
ATOM      1  C   UNL     1      -2.824  -1.657  -0.801  0.00  0.00    +0.243 C 
ENDROOT
BRANCH   1  10
ATOM      2  C   UNL     1       0.069   3.951  -2.014  0.00  0.00    +0.001 A 
ATOM      3  C   UNL     1      -1.285   4.198  -1.833  0.00  0.00    +0.001 A 
ATOM      4  C   UNL     1      -2.159   3.168  -1.556  0.00  0.00    +0.014 A 
ATOM      5  C   UNL     1      -1.671   1.869  -1.458  0.00  0.00    +0.050 A 
ATOM      6  C   UNL     1      -0.291   1.617  -1.642  0.00  0.00    +0.020 A 
ATOM      7  C   UNL     1       0.572   2.671  -1.920  0.00  0.00    +0.011 A 
ATOM      8  C   UNL     1       0.164   0.223  -1.526  0.00  0.00    +0.153 A 
ATOM      9  N   UNL     1      -0.712  -0.717  -1.261  0.00  0.00    -0.162 NA
ATOM     10  N   UNL     1      -1.962  -0.508  -1.092  0.00  0.00    -0.219 N 
ATOM     11  C   UNL     1      -2.531   0.713  -1.167  0.00  0.00    +0.275 A 
ATOM     12  O   UNL     1      -3.728   0.855  -0.997  0.00  0.00    -0.266 OA
BRANCH   8  13
ATOM     13  C   UNL     1       1.590  -0.115  -1.706  0.00  0.00    +0.262 C 
ATOM     14  O   UNL     1       2.396   0.761  -1.951  0.00  0.00    -0.269 OA
ATOM     15  N   UNL     1       1.998  -1.395  -1.598  0.00  0.00    -0.324 N 
ATOM     16  H   UNL     1       1.355  -2.094  -1.402  0.00  0.00    +0.145 HD
ATOM     17  H   UNL     1       2.935  -1.617  -1.716  0.00  0.00    +0.145 HD
ENDBRANCH   8  13
ENDBRANCH   1  10
BRANCH   1  18
ATOM     18  C   UNL     1      -3.339  -2.238  -2.093  0.00  0.00    +0.235 C 
ATOM     19  O   UNL     1      -3.018  -1.742  -3.152  0.00  0.00    -0.274 OA
ATOM     20  N   UNL     1      -4.156  -3.310  -2.071  0.00  0.00    -0.315 N 
ATOM     21  H   UNL     1      -4.412  -3.707  -1.224  0.00  0.00    +0.149 HD
BRANCH  20  22
ATOM     22  C   UNL     1      -4.656  -3.875  -3.327  0.00  0.00    +0.096 C 
BRANCH  22  23
ATOM     23  C   UNL     1      -5.556  -5.074  -3.023  0.00  0.00    +0.016 C 
BRANCH  23  28
ATOM     24  C   UNL     1      -7.336  -3.466  -2.607  0.00  0.00    -0.078 C 
ATOM     25  C   UNL     1      -8.683  -3.505  -1.842  0.00  0.00    -0.020 C 
ATOM     26  C   UNL     1      -9.004  -5.017  -1.783  0.00  0.00    -0.020 C 
ATOM     27  C   UNL     1      -7.648  -5.723  -1.973  0.00  0.00    -0.078 C 
ATOM     28  N   UNL     1      -6.648  -4.661  -2.092  0.00  0.00    +0.387 N 
ATOM     29  H   UNL     1      -6.245  -4.459  -1.169  0.00  0.00    -0.081 HD
ENDBRANCH  23  28
BRANCH  23  30
ATOM     30  C   UNL     1      -6.168  -5.580  -4.304  0.00  0.00    +0.093 A 
ATOM     31  C   UNL     1      -5.831  -6.714  -4.943  0.00  0.00    +0.043 A 
ATOM     32  C   UNL     1      -6.651  -6.796  -6.092  0.00  0.00    +0.041 A 
ATOM     33  C   UNL     1      -7.440  -5.707  -6.087  0.00  0.00    +0.195 A 
ATOM     34  O   UNL     1      -7.147  -4.977  -4.998  0.00  0.00    -0.469 OA
ENDBRANCH  23  30
ENDBRANCH  22  23
ENDBRANCH  20  22
ENDBRANCH   1  18
TORSDOF 7
