REMARK  Name = ZINC67501972
REMARK  5 active torsions:
REMARK  status: ('A' for Active; 'I' for Inactive)
REMARK    1  A    between atoms: C_5  and  C_7
REMARK    2  A    between atoms: C_7  and  N_8
REMARK    3  A    between atoms: N_8  and  C_9
REMARK    4  A    between atoms: N_14  and  C_16
REMARK    5  A    between atoms: C_16  and  C_17
REMARK                            x       y       z     vdW  Elec       q    Type
REMARK                         _______ _______ _______ _____ _____    ______ ____
ROOT
ATOM      1  C   UNL     1       1.516  -4.149   1.367  0.00  0.00    +0.037 C 
ATOM      2  C   UNL     1       0.089  -4.683   1.519  0.00  0.00    +0.015 C 
ATOM      3  C   UNL     1       0.136  -6.210   1.628  0.00  0.00    -0.017 C 
ATOM      4  C   UNL     1       1.032  -6.605   2.804  0.00  0.00    -0.078 C 
ATOM      5  N   UNL     1       2.388  -6.087   2.586  0.00  0.00    +0.386 N 
ATOM      6  C   UNL     1       2.362  -4.620   2.551  0.00  0.00    -0.059 C 
ATOM      7  H   UNL     1       2.743  -6.436   1.708  0.00  0.00    -0.081 HD
ENDROOT
BRANCH   1   8
ATOM      8  N   UNL     1       1.489  -2.680   1.337  0.00  0.00    -0.311 NA
ATOM      9  H   UNL     1       2.347  -2.295   1.703  0.00  0.00    +0.122 HD
BRANCH   8  10
ATOM     10  C   UNL     1       1.229  -2.186  -0.022  0.00  0.00    +0.117 C 
BRANCH  10  15
ATOM     11  C   UNL     1      -0.017   1.378   0.010  0.00  0.00    +0.000 A 
ATOM     12  C   UNL     1       1.171   2.086   0.002  0.00  0.00    +0.001 A 
ATOM     13  C   UNL     1       2.377   1.411  -0.013  0.00  0.00    +0.014 A 
ATOM     14  C   UNL     1       2.396   0.029  -0.021  0.00  0.00    +0.018 A 
ATOM     15  C   UNL     1       1.208  -0.679  -0.013  0.00  0.00    -0.020 A 
ATOM     16  C   UNL     1       0.002  -0.004   0.002  0.00  0.00    +0.006 A 
ATOM     17  I   UNL     1       4.225  -0.994  -0.044  0.00  0.00    -0.043 I 
ENDBRANCH  10  15
ENDBRANCH   8  10
ENDBRANCH   1   8
BRANCH   5  18
ATOM     18  C   UNL     1       3.263  -6.535   3.678  0.00  0.00    +0.018 C 
BRANCH  18  19
ATOM     19  C   UNL     1       3.396  -8.035   3.632  0.00  0.00    +0.194 C 
ATOM     20  O   UNL     1       2.819  -8.669   2.774  0.00  0.00    -0.278 OA
ATOM     21  N   UNL     1       4.156  -8.672   4.545  0.00  0.00    -0.331 N 
ATOM     22  H   UNL     1       4.617  -8.165   5.231  0.00  0.00    +0.145 HD
ATOM     23  H   UNL     1       4.242  -9.638   4.515  0.00  0.00    +0.145 HD
ENDBRANCH  18  19
ENDBRANCH   5  18
TORSDOF 5
