REMARK  Name = ZINC63557161
REMARK  9 active torsions:
REMARK  status: ('A' for Active; 'I' for Inactive)
REMARK    1  A    between atoms: C_1  and  C_2
REMARK    2  A    between atoms: C_2  and  C_3
REMARK    3  A    between atoms: C_3  and  C_4
REMARK    4  A    between atoms: C_3  and  C_5
REMARK    5  A    between atoms: C_3  and  C_6
REMARK    6  A    between atoms: C_13  and  C_15
REMARK    7  A    between atoms: N_20  and  C_22
REMARK    8  A    between atoms: C_22  and  C_23
REMARK    9  A    between atoms: C_23  and  C_24
REMARK                            x       y       z     vdW  Elec       q    Type
REMARK                         _______ _______ _______ _____ _____    ______ ____
ROOT
ATOM      1  C   UNL     1      -3.562  -5.764   4.863  0.00  0.00    +0.101 C 
ATOM      2  C   UNL     1      -3.408  -4.870   6.115  0.00  0.00    +0.110 C 
ATOM      3  C   UNL     1      -4.404  -5.438   7.102  0.00  0.00    +0.216 C 
ATOM      4  O   UNL     1      -4.409  -5.211   8.293  0.00  0.00    -0.276 OA
ATOM      5  N   UNL     1      -5.284  -6.232   6.466  0.00  0.00    -0.300 N 
ATOM      6  C   UNL     1      -5.007  -6.289   5.025  0.00  0.00    +0.121 C 
ENDROOT
BRANCH   1  13
ATOM      7  C   UNL     1      -1.413  -2.063   0.004  0.00  0.00    +0.159 C 
ATOM      8  N   UNL     1      -2.780  -2.622   0.113  0.00  0.00    -0.253 N 
ATOM      9  N   UNL     1      -3.015  -3.383   1.236  0.00  0.00    -0.163 NA
ATOM     10  C   UNL     1      -2.119  -3.607   2.145  0.00  0.00    +0.179 C 
ATOM     11  S   UNL     1      -0.677  -2.732   1.554  0.00  0.00    -0.064 S 
ATOM     12  N   UNL     1      -2.249  -4.356   3.311  0.00  0.00    -0.263 N 
ATOM     13  C   UNL     1      -3.422  -4.954   3.601  0.00  0.00    +0.224 C 
ATOM     14  O   UNL     1      -4.364  -4.839   2.845  0.00  0.00    -0.275 OA
ATOM     15  H   UNL     1      -3.460  -2.463  -0.560  0.00  0.00    +0.169 HD
ATOM     16  H   UNL     1      -1.496  -4.447   3.915  0.00  0.00    +0.157 HD
BRANCH   7  17
ATOM     17  C   UNL     1      -1.433  -0.534   0.013  0.00  0.00    -0.006 C 
ATOM     18  C   UNL     1      -2.149  -0.040   1.272  0.00  0.00    +0.013 C 
ATOM     19  C   UNL     1      -2.173  -0.027  -1.227  0.00  0.00    +0.013 C 
BRANCH  17  21
ATOM     20  C   UNL     1      -0.019   1.526   0.010  0.00  0.00    +0.004 C 
ATOM     21  C   UNL     1       0.002  -0.004   0.002  0.00  0.00    +0.006 C 
ENDBRANCH  17  21
ENDBRANCH   7  17
ENDBRANCH   1  13
BRANCH   5  22
ATOM     22  C   UNL     1      -6.378  -6.949   7.126  0.00  0.00    +0.112 C 
BRANCH  22  23
ATOM     23  C   UNL     1      -7.628  -6.067   7.145  0.00  0.00    +0.052 C 
BRANCH  23  24
ATOM     24  C   UNL     1      -8.753  -6.804   7.824  0.00  0.00    -0.040 C 
ATOM     25  C   UNL     1      -9.117  -6.714   9.123  0.00  0.00    +0.000 A 
ATOM     26  C   UNL     1      -8.594  -5.933  10.250  0.00  0.00    +0.030 A 
ATOM     27  C   UNL     1      -9.180  -6.057  11.463  0.00  0.00    +0.042 A 
ATOM     28  C   UNL     1     -10.273  -6.912  11.669  0.00  0.00    +0.022 A 
ATOM     29  C   UNL     1     -10.809  -7.661  10.683  0.00  0.00    +0.027 A 
ATOM     30  C   UNL     1     -10.271  -7.608   9.367  0.00  0.00    +0.043 A 
ATOM     31  N   UNL     1     -10.607  -8.227   8.261  0.00  0.00    -0.380 N 
ATOM     32  C   UNL     1      -9.708  -7.790   7.188  0.00  0.00    +0.144 C 
ATOM     33 CL   UNL     1      -8.564  -5.135  12.799  0.00  0.00    -0.084 Cl
ATOM     34  H   UNL     1     -11.333  -8.864   8.168  0.00  0.00    +0.160 HD
ENDBRANCH  23  24
ENDBRANCH  22  23
ENDBRANCH   5  22
TORSDOF 6
