REMARK  Name = ZINC19376344
REMARK  5 active torsions:
REMARK  status: ('A' for Active; 'I' for Inactive)
REMARK    1  A    between atoms: N_15  and  C_18
REMARK    2  A    between atoms: C_18  and  C_19
REMARK    3  A    between atoms: C_19  and  C_21
REMARK    4  A    between atoms: C_19  and  O_29
REMARK    5  A    between atoms: C_31  and  O_33
REMARK                            x       y       z     vdW  Elec       q    Type
REMARK                         _______ _______ _______ _____ _____    ______ ____
ROOT
ATOM      1  C   UNL     1      -7.009   4.565  -2.306  0.00  0.00    +0.001 A 
ATOM      2  C   UNL     1      -5.623   4.681  -2.223  0.00  0.00    +0.001 A 
ATOM      3  C   UNL     1      -4.968   4.438  -1.054  0.00  0.00    +0.012 A 
ATOM      4  C   UNL     1      -5.697   4.063   0.086  0.00  0.00    +0.024 A 
ATOM      5  C   UNL     1      -7.105   3.943   0.001  0.00  0.00    -0.014 A 
ATOM      6  C   UNL     1      -7.748   4.206  -1.221  0.00  0.00    +0.008 A 
ATOM      7  C   UNL     1      -7.831   3.562   1.142  0.00  0.00    +0.009 A 
ATOM      8  C   UNL     1      -7.173   3.310   2.304  0.00  0.00    +0.010 A 
ATOM      9  C   UNL     1      -5.783   3.424   2.396  0.00  0.00    +0.023 A 
ATOM     10  C   UNL     1      -5.046   3.801   1.313  0.00  0.00    +0.135 A 
ATOM     11  O   UNL     1      -3.698   3.945   1.370  0.00  0.00    -0.485 OA
ATOM     12  C   UNL     1      -3.003   3.353   2.465  0.00  0.00    +0.110 C 
ATOM     13  C   UNL     1      -1.566   3.877   2.512  0.00  0.00    +0.029 C 
ATOM     14  C   UNL     1      -0.830   3.446   1.241  0.00  0.00    -0.075 C 
ATOM     15  N   UNL     1      -0.836   1.981   1.143  0.00  0.00    +0.382 N 
ATOM     16  C   UNL     1      -2.206   1.461   1.046  0.00  0.00    -0.075 C 
ATOM     17  C   UNL     1      -2.985   1.832   2.310  0.00  0.00    +0.029 C 
ATOM     18  C   UNL     1      -3.727   3.729   3.763  0.00  0.00    +0.084 C 
ATOM     19  C   UNL     1      -5.130   3.120   3.723  0.00  0.00    +0.152 C 
ATOM     20  H   UNL     1      -0.391   1.581   2.066  0.00  0.00    -0.082 HD
ENDROOT
BRANCH  19  21
ATOM     21  O   UNL     1      -5.918   3.675   4.778  0.00  0.00    -0.387 OA
ATOM     22  H   UNL     1      -5.600   3.555   5.824  0.00  0.00    +0.210 HD
ENDBRANCH  19  21
BRANCH  15  23
ATOM     23  C   UNL     1      -0.019   1.526   0.010  0.00  0.00    -0.042 C 
BRANCH  23  24
ATOM     24  C   UNL     1       1.463   1.642   0.372  0.00  0.00    +0.128 C 
BRANCH  24  25
ATOM     25  C   UNL     1       2.302   1.187  -0.794  0.00  0.00    -0.018 A 
ATOM     26  C   UNL     1       2.875   2.119  -1.638  0.00  0.00    +0.009 A 
ATOM     27  C   UNL     1       3.645   1.704  -2.709  0.00  0.00    +0.041 A 
ATOM     28  C   UNL     1       3.843   0.353  -2.936  0.00  0.00    +0.158 A 
ATOM     29  C   UNL     1       3.268  -0.582  -2.090  0.00  0.00    +0.159 A 
ATOM     30  C   UNL     1       2.502  -0.163  -1.015  0.00  0.00    +0.047 A 
ATOM     31  F   UNL     1       3.460  -1.901  -2.310  0.00  0.00    -0.202 F 
ATOM     32  F   UNL     1       4.596  -0.053  -3.982  0.00  0.00    -0.202 F 
ENDBRANCH  24  25
BRANCH  24  33
ATOM     33  O   UNL     1       1.742   0.821   1.508  0.00  0.00    -0.389 OA
ATOM     34  H   UNL     1       2.762   0.775   1.917  0.00  0.00    +0.210 HD
ENDBRANCH  24  33
ENDBRANCH  23  24
ENDBRANCH  15  23
TORSDOF 5
