REMARK  Name = ZINC45261822
REMARK  6 active torsions:
REMARK  status: ('A' for Active; 'I' for Inactive)
REMARK    1  A    between atoms: C_4  and  C_7
REMARK    2  A    between atoms: C_13  and  C_15
REMARK    3  A    between atoms: C_17  and  C_32
REMARK    4  A    between atoms: C_20  and  C_24
REMARK    5  A    between atoms: C_24  and  C_25
REMARK    6  A    between atoms: N_34  and  O_35
REMARK                            x       y       z     vdW  Elec       q    Type
REMARK                         _______ _______ _______ _____ _____    ______ ____
ROOT
ATOM      1  C   UNL     1       6.944  -3.812   1.625  0.00  0.00    +0.028 C 
ATOM      2  C   UNL     1       8.373  -3.316   1.860  0.00  0.00    +0.072 C 
ATOM      3  C   UNL     1       9.305  -3.949   0.823  0.00  0.00    +0.013 C 
ATOM      4  C   UNL     1       9.197  -5.473   0.917  0.00  0.00    -0.019 C 
ATOM      5  C   UNL     1       7.738  -5.889   0.716  0.00  0.00    -0.078 C 
ATOM      6  N   UNL     1       6.903  -5.273   1.754  0.00  0.00    +0.387 N 
ATOM      7  H   UNL     1       7.248  -5.539   2.664  0.00  0.00    -0.085 HD
ATOM      8  H   UNL     1       5.951  -5.592   1.651  0.00  0.00    -0.085 HD
ENDROOT
BRANCH   1  15
ATOM      9  C   UNL     1       4.866   0.126  -0.185  0.00  0.00    -0.041 C 
ATOM     10  C   UNL     1       5.765   0.048   0.766  0.00  0.00    -0.004 C 
ATOM     11  C   UNL     1       6.782  -1.056   0.855  0.00  0.00    +0.135 C 
ATOM     12  N   UNL     1       6.429  -2.115  -0.100  0.00  0.00    -0.299 N 
ATOM     13  C   UNL     1       5.998  -1.697  -1.445  0.00  0.00    +0.112 C 
ATOM     14  C   UNL     1       4.714  -0.875  -1.291  0.00  0.00    +0.054 C 
ATOM     15  C   UNL     1       6.498  -3.417   0.240  0.00  0.00    +0.203 C 
ATOM     16  O   UNL     1       6.202  -4.272  -0.567  0.00  0.00    -0.277 OA
BRANCH   9  20
ATOM     17  C   UNL     1       2.194   3.428  -0.119  0.00  0.00    +0.000 A 
ATOM     18  C   UNL     1       3.546   3.639  -0.324  0.00  0.00    +0.001 A 
ATOM     19  C   UNL     1       4.419   2.571  -0.346  0.00  0.00    +0.008 A 
ATOM     20  C   UNL     1       3.936   1.275  -0.162  0.00  0.00    -0.022 A 
ATOM     21  C   UNL     1       2.572   1.068   0.044  0.00  0.00    +0.008 A 
ATOM     22  C   UNL     1       1.709   2.145   0.064  0.00  0.00    +0.001 A 
ENDBRANCH   9  20
ENDBRANCH   1  15
BRANCH   2  23
ATOM     23  C   UNL     1       8.820  -3.708   3.245  0.00  0.00    +0.237 C 
ATOM     24  O   UNL     1       8.070  -4.324   3.973  0.00  0.00    -0.273 OA
ATOM     25  N   UNL     1      10.053  -3.375   3.675  0.00  0.00    -0.197 N 
ATOM     26  H   UNL     1      10.653  -2.882   3.093  0.00  0.00    +0.182 HD
BRANCH  25  27
ATOM     27  O   UNL     1      10.473  -3.743   4.976  0.00  0.00    -0.295 OA
ATOM     28  H   UNL     1      11.371  -3.461   5.194  0.00  0.00    +0.241 HD
ENDBRANCH  25  27
ENDBRANCH   2  23
BRANCH   4  29
ATOM     29  C   UNL     1      10.065  -6.115  -0.167  0.00  0.00    +0.097 C 
BRANCH  29  30
ATOM     30  C   UNL     1      10.056  -7.612   0.003  0.00  0.00    +0.216 C 
ATOM     31  O   UNL     1       9.417  -8.117   0.902  0.00  0.00    -0.276 OA
ATOM     32  N   UNL     1      10.757  -8.391  -0.845  0.00  0.00    -0.301 N 
ATOM     33  C   UNL     1      11.575  -7.914  -1.969  0.00  0.00    +0.108 C 
ATOM     34  C   UNL     1      12.165  -9.157  -2.667  0.00  0.00    +0.020 C 
ATOM     35  C   UNL     1      11.191 -10.288  -2.243  0.00  0.00    +0.020 C 
ATOM     36  C   UNL     1      10.836  -9.862  -0.794  0.00  0.00    +0.108 C 
ENDBRANCH  29  30
ENDBRANCH   4  29
TORSDOF 6
