REMARK  Name = ZINC39344351
REMARK  3 active torsions:
REMARK  status: ('A' for Active; 'I' for Inactive)
REMARK    1  A    between atoms: C_6  and  C_11
REMARK    2  A    between atoms: N_13  and  N_14
REMARK    3  A    between atoms: C_15  and  C_17
REMARK                            x       y       z     vdW  Elec       q    Type
REMARK                         _______ _______ _______ _____ _____    ______ ____
ROOT
ATOM      1  C   UNL     1       3.631  -2.749  -1.285  0.00  0.00    +0.255 C 
ATOM      2  O   UNL     1       4.291  -2.141  -2.101  0.00  0.00    -0.272 OA
ATOM      3  N   UNL     1       3.335  -4.048  -1.491  0.00  0.00    -0.232 N 
ATOM      4  H   UNL     1       2.807  -4.534  -0.838  0.00  0.00    +0.173 HD
ENDROOT
BRANCH   1  10
ATOM      5  C   UNL     1      -0.016   1.348   0.009  0.00  0.00    +0.001 A 
ATOM      6  C   UNL     1       1.166   2.101   0.002  0.00  0.00    +0.002 A 
ATOM      7  C   UNL     1       2.391   1.535  -0.013  0.00  0.00    +0.026 A 
ATOM      8  C   UNL     1       2.529   0.120  -0.022  0.00  0.00    +0.043 A 
ATOM      9  N   UNL     1       3.587  -0.654  -0.037  0.00  0.00    -0.370 N 
ATOM     10  C   UNL     1       3.143  -2.053  -0.041  0.00  0.00    +0.191 C 
ATOM     11  C   UNL     1       1.631  -2.008  -0.025  0.00  0.00    +0.016 C 
ATOM     12  C   UNL     1       1.295  -0.698  -0.014  0.00  0.00    -0.004 A 
ATOM     13  C   UNL     1       0.002  -0.004   0.002  0.00  0.00    +0.010 A 
ATOM     14  H   UNL     1       4.509  -0.353  -0.045  0.00  0.00    +0.161 HD
ENDBRANCH   1  10
BRANCH   3  15
ATOM     15  N   UNL     1       3.789  -4.695  -2.647  0.00  0.00    -0.229 N 
ATOM     16  C   UNL     1       3.492  -5.994  -2.853  0.00  0.00    +0.276 C 
ATOM     17  O   UNL     1       2.831  -6.604  -2.035  0.00  0.00    -0.267 OA
ATOM     18  H   UNL     1       4.316  -4.209  -3.300  0.00  0.00    +0.173 HD
BRANCH  16  19
ATOM     19  C   UNL     1       3.969  -6.673  -4.067  0.00  0.00    +0.104 A 
ATOM     20  H   UNL     1       5.018  -5.167  -5.087  0.00  0.00    +0.166 HD
ATOM     21  C   UNL     1       3.736  -7.973  -4.385  0.00  0.00    +0.041 A 
ATOM     22  C   UNL     1       4.362  -8.232  -5.628  0.00  0.00    +0.000 A 
ATOM     23  C   UNL     1       4.460  -9.372  -6.437  0.00  0.00    +0.010 A 
ATOM     24  C   UNL     1       5.150  -9.312  -7.613  0.00  0.00    +0.001 A 
ATOM     25  C   UNL     1       5.757  -8.130  -8.018  0.00  0.00    +0.002 A 
ATOM     26  C   UNL     1       5.675  -6.997  -7.240  0.00  0.00    +0.026 A 
ATOM     27  C   UNL     1       4.977  -7.032  -6.036  0.00  0.00    +0.047 A 
ATOM     28  N   UNL     1       4.720  -6.089  -5.069  0.00  0.00    -0.351 N 
ENDBRANCH  16  19
ENDBRANCH   3  15
TORSDOF 3
