REMARK  Name = ZINC54897184
REMARK  8 active torsions:
REMARK  status: ('A' for Active; 'I' for Inactive)
REMARK    1  A    between atoms: C_1  and  C_2
REMARK    2  A    between atoms: C_2  and  C_3
REMARK    3  A    between atoms: C_2  and  C_4
REMARK    4  A    between atoms: C_4  and  N_5
REMARK    5  A    between atoms: N_5  and  C_19
REMARK    6  A    between atoms: C_11  and  N_18
REMARK    7  A    between atoms: C_14  and  C_16
REMARK    8  A    between atoms: C_14  and  C_17
REMARK                            x       y       z     vdW  Elec       q    Type
REMARK                         _______ _______ _______ _____ _____    ______ ____
ROOT
ATOM      1  N   UNL     1      -1.416  -1.993  -0.116  0.00  0.00    -0.306 N 
ATOM      2  C   UNL     1      -1.400  -2.777   1.027  0.00  0.00    +0.161 A 
ATOM      3  N   UNL     1      -1.502  -4.085   1.123  0.00  0.00    -0.229 NA
ATOM      4  C   UNL     1      -1.470  -4.708   2.299  0.00  0.00    +0.053 A 
ATOM      5  C   UNL     1      -1.323  -3.893   3.373  0.00  0.00    -0.000 A 
ATOM      6  S   UNL     1      -1.237  -2.287   2.632  0.00  0.00    -0.059 S 
ATOM      7  C   UNL     1      -1.250  -4.283   4.811  0.00  0.00    -0.035 C 
ATOM      8  C   UNL     1      -0.997  -5.798   4.884  0.00  0.00    -0.005 C 
ATOM      9  C   UNL     1      -1.966  -6.507   3.933  0.00  0.00    -0.031 C 
ATOM     10  C   UNL     1      -1.584  -6.215   2.480  0.00  0.00    +0.062 C 
ATOM     11  C   UNL     1      -1.906  -8.016   4.180  0.00  0.00    +0.011 C 
ATOM     12  C   UNL     1      -3.389  -6.009   4.194  0.00  0.00    +0.011 C 
ENDROOT
BRANCH   7  13
ATOM     13  N   UNL     1      -0.148  -3.564   5.464  0.00  0.00    +0.383 N 
ATOM     14  H   UNL     1      -0.308  -2.570   5.395  0.00  0.00    -0.089 HD
ATOM     15  H   UNL     1      -0.102  -3.831   6.436  0.00  0.00    -0.089 HD
ATOM     16  H   UNL     1       0.722  -3.797   5.009  0.00  0.00    -0.089 HD
ENDBRANCH   7  13
BRANCH   1  17
ATOM     17  C   UNL     1      -1.688  -2.604  -1.419  0.00  0.00    +0.075 C 
ATOM     18  C   UNL     1      -1.427  -1.755  -2.665  0.00  0.00    +0.024 C 
ATOM     19  C   UNL     1      -2.863  -2.050  -2.227  0.00  0.00    +0.024 C 
ENDBRANCH   1  17
BRANCH   1  20
ATOM     20  C   UNL     1      -1.162  -0.553  -0.020  0.00  0.00    +0.110 C 
BRANCH  20  22
ATOM     21  C   UNL     1       0.590   1.219  -0.194  0.00  0.00    +0.009 C 
ATOM     22  C   UNL     1       0.338  -0.289  -0.169  0.00  0.00    +0.000 C 
ATOM     23  C   UNL     1       1.085  -0.912   1.012  0.00  0.00    +0.009 C 
ENDBRANCH  20  22
ENDBRANCH   1  20
TORSDOF 4
