REMARK  Name = ZINC03021780
REMARK  8 active torsions:
REMARK  status: ('A' for Active; 'I' for Inactive)
REMARK    1  A    between atoms: C_1  and  C_2
REMARK    2  A    between atoms: C_5  and  N_9
REMARK    3  A    between atoms: C_10  and  C_12
REMARK    4  A    between atoms: C_12  and  S_13
REMARK    5  A    between atoms: S_13  and  C_14
REMARK    6  A    between atoms: C_18  and  C_22
REMARK    7  A    between atoms: N_25  and  C_26
REMARK    8  A    between atoms: C_30  and  C_32
REMARK                            x       y       z     vdW  Elec       q    Type
REMARK                         _______ _______ _______ _____ _____    ______ ____
ROOT
ATOM      1  C   UNL     1      -7.650   3.801  -0.358  0.00  0.00    +0.177 A 
ATOM      2  N   UNL     1      -7.404   5.083  -0.326  0.00  0.00    -0.201 NA
ATOM      3  C   UNL     1      -8.398   6.009  -0.403  0.00  0.00    +0.187 A 
ATOM      4  C   UNL     1      -9.788   5.542  -0.513  0.00  0.00    +0.082 A 
ATOM      5  C   UNL     1     -10.579   6.659  -0.568  0.00  0.00    +0.046 A 
ATOM      6  N   UNL     1      -9.775   7.735  -0.499  0.00  0.00    -0.279 N 
ATOM      7  H   UNL     1     -10.206   8.746  -0.527  0.00  0.00    +0.189 HD
ATOM      8  N   UNL     1      -8.441   7.322  -0.398  0.00  0.00    -0.153 NA
ATOM      9  C   UNL     1     -12.081   6.679  -0.685  0.00  0.00    +0.066 C 
ATOM     10  C   UNL     1     -10.021   4.088  -0.540  0.00  0.00    +0.124 A 
ATOM     11  N   UNL     1     -11.226   3.593  -0.636  0.00  0.00    -0.384 N 
ATOM     12  N   UNL     1      -8.907   3.266  -0.459  0.00  0.00    -0.275 N 
ATOM     13  H   UNL     1     -11.374   2.503  -0.654  0.00  0.00    +0.157 HD
ATOM     14  H   UNL     1     -12.094   4.266  -0.699  0.00  0.00    +0.157 HD
ENDROOT
BRANCH  12  15
ATOM     15  C   UNL     1      -9.068   1.875  -0.480  0.00  0.00    +0.051 A 
ATOM     16  C   UNL     1      -9.573   1.250  -1.613  0.00  0.00    +0.028 A 
ATOM     17  C   UNL     1      -9.726  -0.122  -1.634  0.00  0.00    +0.022 A 
ATOM     18  C   UNL     1      -9.389  -0.874  -0.522  0.00  0.00    +0.044 A 
ATOM     19  C   UNL     1      -8.891  -0.254   0.610  0.00  0.00    -0.030 A 
ATOM     20  C   UNL     1      -8.730   1.118   0.634  0.00  0.00    +0.031 A 
ATOM     21  C   UNL     1      -8.523  -1.075   1.819  0.00  0.00    +0.045 C 
ATOM     22 CL   UNL     1      -9.590  -2.598  -0.548  0.00  0.00    -0.083 Cl
ENDBRANCH  12  15
BRANCH   1  23
ATOM     23  S   UNL     1      -6.284   2.692  -0.259  0.00  0.00    -0.078 S 
BRANCH  23  24
ATOM     24  C   UNL     1      -4.923   3.881  -0.146  0.00  0.00    +0.173 C 
BRANCH  24  26
ATOM     25  N   UNL     1      -2.457   3.822   0.045  0.00  0.00    -0.285 N 
ATOM     26  C   UNL     1      -3.615   3.139  -0.049  0.00  0.00    +0.227 C 
ATOM     27  O   UNL     1      -3.604   1.926  -0.055  0.00  0.00    -0.275 OA
ATOM     28  H   UNL     1      -2.472   4.918   0.138  0.00  0.00    +0.155 HD
BRANCH  25  33
ATOM     29  C   UNL     1       2.493   1.052  -0.040  0.00  0.00    +0.045 C 
ATOM     30  C   UNL     1       1.178   1.787  -0.017  0.00  0.00    -0.032 A 
ATOM     31  C   UNL     1       1.044   2.938   0.738  0.00  0.00    +0.006 A 
ATOM     32  C   UNL     1      -0.161   3.611   0.765  0.00  0.00    +0.023 A 
ATOM     33  C   UNL     1      -1.237   3.138   0.024  0.00  0.00    +0.035 A 
ATOM     34  C   UNL     1      -1.100   1.983  -0.733  0.00  0.00    +0.043 A 
ATOM     35  C   UNL     1       0.107   1.310  -0.752  0.00  0.00    +0.046 A 
ATOM     36 CL   UNL     1       0.280  -0.135  -1.699  0.00  0.00    -0.083 Cl
ENDBRANCH  25  33
ENDBRANCH  24  26
ENDBRANCH  23  24
ENDBRANCH   1  23
TORSDOF 5
