REMARK  Name = ZINC36746089
REMARK  6 active torsions:
REMARK  status: ('A' for Active; 'I' for Inactive)
REMARK    1  A    between atoms: C_1  and  C_2
REMARK    2  A    between atoms: C_7  and  C_10
REMARK    3  A    between atoms: N_12  and  C_13
REMARK    4  A    between atoms: C_13  and  C_14
REMARK    5  A    between atoms: C_14  and  S_15
REMARK    6  A    between atoms: S_15  and  N_18
REMARK                            x       y       z     vdW  Elec       q    Type
REMARK                         _______ _______ _______ _____ _____    ______ ____
ROOT
ATOM      1  C   UNL     1       1.487  -2.381  -0.122  0.00  0.00    +0.199 C 
ATOM      2  O   UNL     1       1.775  -1.554  -0.962  0.00  0.00    -0.278 OA
ATOM      3  N   UNL     1       1.776  -3.681  -0.330  0.00  0.00    -0.315 N 
ATOM      4  H   UNL     1       1.545  -4.342   0.342  0.00  0.00    +0.149 HD
ENDROOT
BRANCH   1  10
ATOM      5  C   UNL     1      -0.722   1.176  -0.248  0.00  0.00    -0.014 C 
ATOM      6  C   UNL     1      -0.412  -0.316  -0.115  0.00  0.00    -0.074 C 
ATOM      7  C   UNL     1      -1.719  -1.095   0.047  0.00  0.00    -0.016 C 
ATOM      8  C   UNL     1      -1.405  -2.588   0.180  0.00  0.00    -0.003 C 
ATOM      9  C   UNL     1      -0.455  -2.796   1.363  0.00  0.00    -0.007 C 
ATOM     10  C   UNL     1       0.805  -1.954   1.152  0.00  0.00    +0.016 C 
ATOM     11  N   UNL     1       0.440  -0.535   1.060  0.00  0.00    +0.388 N 
ATOM     12  H   UNL     1       1.277   0.021   0.975  0.00  0.00    -0.084 HD
ATOM     13  H   UNL     1      -0.060  -0.263   1.893  0.00  0.00    -0.084 HD
ENDBRANCH   1  10
BRANCH   3  14
ATOM     14  C   UNL     1       2.438  -4.096  -1.569  0.00  0.00    +0.128 C 
BRANCH  14  15
ATOM     15  C   UNL     1       2.649  -5.611  -1.552  0.00  0.00    +0.203 C 
BRANCH  15  16
ATOM     16  S   UNL     1       3.469  -6.125  -3.086  0.00  0.00    +0.028 S 
ATOM     17  O   UNL     1       2.596  -5.942  -4.192  0.00  0.00    -0.158 OA
ATOM     18  O   UNL     1       4.798  -5.623  -3.122  0.00  0.00    -0.158 OA
BRANCH  16  19
ATOM     19  N   UNL     1       3.639  -7.766  -2.949  0.00  0.00    -0.208 NA
ATOM     20  H   UNL     1       3.320  -8.222  -2.155  0.00  0.00    +0.144 HD
ATOM     21  H   UNL     1       4.059  -8.271  -3.662  0.00  0.00    +0.144 HD
ENDBRANCH  16  19
ENDBRANCH  15  16
ENDBRANCH  14  15
ENDBRANCH   3  14
TORSDOF 5
