REMARK  Name = ZINC21543400
REMARK  7 active torsions:
REMARK  status: ('A' for Active; 'I' for Inactive)
REMARK    1  A    between atoms: C_4  and  C_7
REMARK    2  A    between atoms: C_12  and  C_19
REMARK    3  A    between atoms: C_19  and  O_21
REMARK    4  A    between atoms: O_21  and  C_22
REMARK    5  A    between atoms: C_22  and  C_23
REMARK    6  A    between atoms: N_25  and  C_26
REMARK    7  A    between atoms: C_27  and  C_34
REMARK                            x       y       z     vdW  Elec       q    Type
REMARK                         _______ _______ _______ _____ _____    ______ ____
ROOT
ATOM      1  C   UNL     1      -0.164   1.193   2.388  0.00  0.00    +0.340 C 
ATOM      2  O   UNL     1       0.836   0.505   2.423  0.00  0.00    -0.245 OA
ENDROOT
BRANCH   1   7
ATOM      3  C   UNL     1      -1.294   1.358   8.482  0.00  0.00    +0.211 C 
ATOM      4  C   UNL     1      -0.247   1.267   7.372  0.00  0.00    +0.085 C 
ATOM      5  C   UNL     1      -0.849   1.668   6.051  0.00  0.00    -0.029 A 
ATOM      6  C   UNL     1      -0.255   1.258   4.875  0.00  0.00    +0.019 A 
ATOM      7  C   UNL     1      -0.803   1.633   3.647  0.00  0.00    +0.059 A 
ATOM      8  C   UNL     1      -1.950   2.428   3.606  0.00  0.00    +0.016 A 
ATOM      9  C   UNL     1      -2.549   2.833   4.780  0.00  0.00    +0.016 A 
ATOM     10  C   UNL     1      -2.000   2.455   6.005  0.00  0.00    +0.062 A 
ATOM     11  C   UNL     1      -2.638   2.886   7.274  0.00  0.00    +0.340 C 
ATOM     12  O   UNL     1      -3.729   3.420   7.285  0.00  0.00    -0.245 OA
ATOM     13  O   UNL     1      -1.949   2.659   8.421  0.00  0.00    -0.453 OA
BRANCH   3  17
ATOM     14  C   UNL     1       0.612   0.900  12.278  0.00  0.00    +0.000 A 
ATOM     15  C   UNL     1       0.042  -0.194  11.654  0.00  0.00    +0.000 A 
ATOM     16  C   UNL     1      -0.575  -0.046  10.426  0.00  0.00    +0.007 A 
ATOM     17  C   UNL     1      -0.622   1.197   9.822  0.00  0.00    -0.007 A 
ATOM     18  C   UNL     1      -0.047   2.290  10.443  0.00  0.00    +0.007 A 
ATOM     19  C   UNL     1       0.565   2.142  11.674  0.00  0.00    +0.000 A 
ENDBRANCH   3  17
ENDBRANCH   1   7
BRANCH   1  20
ATOM     20  O   UNL     1      -0.692   1.554   1.203  0.00  0.00    -0.452 OA
BRANCH  20  21
ATOM     21  C   UNL     1      -0.013   1.086   0.008  0.00  0.00    +0.328 C 
BRANCH  21  22
ATOM     22  C   UNL     1      -0.742   1.585  -1.213  0.00  0.00    +0.255 C 
ATOM     23  O   UNL     1      -1.736   2.268  -1.088  0.00  0.00    -0.272 OA
ATOM     24  N   UNL     1      -0.288   1.272  -2.443  0.00  0.00    -0.277 N 
ATOM     25  H   UNL     1       0.614   0.653  -2.556  0.00  0.00    +0.155 HD
BRANCH  24  26
ATOM     26  C   UNL     1      -0.959   1.732  -3.566  0.00  0.00    +0.084 A 
ATOM     27  C   UNL     1      -0.648   1.523  -4.899  0.00  0.00    +0.068 A 
ATOM     28  C   UNL     1      -1.530   2.121  -5.902  0.00  0.00    -0.023 A 
ATOM     29  C   UNL     1      -2.560   2.829  -5.406  0.00  0.00    -0.004 A 
ATOM     30  S   UNL     1      -2.384   2.711  -3.643  0.00  0.00    -0.077 S 
ATOM     31  C   UNL     1      -3.418   3.414  -6.496  0.00  0.00    +0.043 C 
ATOM     32  C   UNL     1      -3.035   2.617  -7.762  0.00  0.00    +0.010 C 
ATOM     33  C   UNL     1      -1.598   2.168  -7.429  0.00  0.00    +0.037 C 
BRANCH  27  34
ATOM     34  C   UNL     1       0.520   0.729  -5.292  0.00  0.00    +0.244 C 
ATOM     35  O   UNL     1       0.412  -0.472  -5.457  0.00  0.00    -0.270 OA
ATOM     36  N   UNL     1       1.714   1.329  -5.469  0.00  0.00    -0.325 N 
ATOM     37  H   UNL     1       2.591   0.733  -5.763  0.00  0.00    +0.145 HD
ATOM     38  H   UNL     1       1.812   2.414  -5.319  0.00  0.00    +0.145 HD
ENDBRANCH  27  34
ENDBRANCH  24  26
ENDBRANCH  21  22
ENDBRANCH  20  21
ENDBRANCH   1  20
TORSDOF 7
