REMARK  Name = ZINC60377258
REMARK  12 active torsions:
REMARK  status: ('A' for Active; 'I' for Inactive)
REMARK    1  A    between atoms: C_1  and  C_2
REMARK    2  A    between atoms: C_5  and  N_28
REMARK    3  A    between atoms: C_7  and  N_8
REMARK    4  A    between atoms: C_9  and  C_11
REMARK    5  A    between atoms: C_11  and  C_12
REMARK    6  A    between atoms: C_12  and  N_13
REMARK    7  A    between atoms: N_13  and  C_14
REMARK    8  A    between atoms: N_13  and  C_15
REMARK    9  A    between atoms: C_15  and  C_17
REMARK   10  A    between atoms: C_15  and  C_18
REMARK   11  A    between atoms: C_22  and  S_24
REMARK   12  A    between atoms: S_24  and  N_27
REMARK                            x       y       z     vdW  Elec       q    Type
REMARK                         _______ _______ _______ _____ _____    ______ ____
ROOT
ATOM      1  N   UNL     1      -0.355  -0.220   7.309  0.00  0.00    +0.383 N 
ATOM      2  C   UNL     1      -1.626   0.514   7.345  0.00  0.00    -0.095 C 
ATOM      3  H   UNL     1       0.412   0.431   7.390  0.00  0.00    -0.081 HD
ENDROOT
BRANCH   1   4
ATOM      4  C   UNL     1      -0.308  -1.174   8.425  0.00  0.00    -0.041 C 
ATOM      5  C   UNL     1       1.017  -1.938   8.387  0.00  0.00    -0.008 C 
BRANCH   4   6
ATOM      6  C   UNL     1      -0.420  -0.427   9.729  0.00  0.00    -0.059 A 
ATOM      7  C   UNL     1       0.235   0.779   9.893  0.00  0.00    +0.002 A 
ATOM      8  C   UNL     1       0.133   1.464  11.089  0.00  0.00    +0.002 A 
ATOM      9  C   UNL     1      -0.625   0.943  12.121  0.00  0.00    +0.028 A 
ATOM     10  C   UNL     1      -1.281  -0.263  11.957  0.00  0.00    +0.105 A 
ATOM     11  C   UNL     1      -1.182  -0.946  10.759  0.00  0.00    +0.030 A 
BRANCH  10  12
ATOM     12  S   UNL     1      -2.247  -0.927  13.273  0.00  0.00    +0.056 S 
ATOM     13  O   UNL     1      -2.315  -2.330  13.058  0.00  0.00    -0.153 OA
ATOM     14  O   UNL     1      -1.738  -0.363  14.474  0.00  0.00    -0.153 OA
BRANCH  12  15
ATOM     15  N   UNL     1      -3.787  -0.345  13.091  0.00  0.00    -0.204 NA
ATOM     16  H   UNL     1      -4.543  -0.873  13.393  0.00  0.00    +0.144 HD
ATOM     17  H   UNL     1      -3.932   0.523  12.684  0.00  0.00    +0.144 HD
ENDBRANCH  12  15
ENDBRANCH  10  12
ENDBRANCH   4   6
ENDBRANCH   1   4
BRANCH   1  18
ATOM     18  C   UNL     1      -0.245  -0.948   6.037  0.00  0.00    -0.069 C 
BRANCH  18  19
ATOM     19  C   UNL     1      -0.169   0.052   4.882  0.00  0.00    +0.077 C 
BRANCH  19  21
ATOM     20  N   UNL     1       0.025  -0.015   2.417  0.00  0.00    -0.285 N 
ATOM     21  C   UNL     1      -0.057  -0.694   3.578  0.00  0.00    +0.215 C 
ATOM     22  O   UNL     1      -0.040  -1.907   3.573  0.00  0.00    -0.276 OA
ATOM     23  H   UNL     1       0.077   0.954   2.425  0.00  0.00    +0.155 HD
BRANCH  20  30
ATOM     24  C   UNL     1      -1.265   1.183   0.181  0.00  0.00    +0.045 C 
ATOM     25  C   UNL     1      -0.584  -0.158   0.084  0.00  0.00    -0.029 A 
ATOM     26  C   UNL     1      -0.569  -0.841  -1.117  0.00  0.00    +0.007 A 
ATOM     27  C   UNL     1       0.056  -2.071  -1.206  0.00  0.00    +0.033 A 
ATOM     28  C   UNL     1       0.667  -2.622  -0.095  0.00  0.00    +0.128 A 
ATOM     29  C   UNL     1       0.656  -1.944   1.109  0.00  0.00    +0.056 A 
ATOM     30  C   UNL     1       0.034  -0.706   1.201  0.00  0.00    +0.038 A 
BRANCH  28  31
ATOM     31  N   UNL     1       1.334  -3.940  -0.195  0.00  0.00    +0.056 N 
ATOM     32  O   UNL     1       1.344  -4.534  -1.248  0.00  0.00    -0.126 OA
ATOM     33  O   UNL     1       1.868  -4.422   0.776  0.00  0.00    -0.126 OA
ENDBRANCH  28  31
ENDBRANCH  20  30
ENDBRANCH  19  21
ENDBRANCH  18  19
ENDBRANCH   1  18
TORSDOF 9
