REMARK  Name = ZINC39354749
REMARK  11 active torsions:
REMARK  status: ('A' for Active; 'I' for Inactive)
REMARK    1  A    between atoms: C_4  and  C_7
REMARK    2  A    between atoms: C_10  and  C_13
REMARK    3  A    between atoms: C_13  and  N_14
REMARK    4  A    between atoms: N_14  and  C_15
REMARK    5  A    between atoms: C_15  and  C_16
REMARK    6  A    between atoms: C_21  and  O_22
REMARK    7  A    between atoms: O_22  and  C_23
REMARK    8  A    between atoms: C_23  and  C_24
REMARK    9  A    between atoms: C_24  and  C_26
REMARK   10  A    between atoms: C_24  and  O_33
REMARK   11  A    between atoms: C_26  and  N_27
REMARK                            x       y       z     vdW  Elec       q    Type
REMARK                         _______ _______ _______ _____ _____    ______ ____
ROOT
ATOM      1  C   UNL     1       2.293  -6.231   3.808  0.00  0.00    -0.023 A 
ATOM      2  C   UNL     1       1.452  -5.957   4.869  0.00  0.00    +0.005 A 
ATOM      3  C   UNL     1       0.340  -6.748   5.093  0.00  0.00    +0.000 A 
ATOM      4  C   UNL     1       0.067  -7.813   4.255  0.00  0.00    +0.004 A 
ATOM      5  C   UNL     1       0.904  -8.090   3.192  0.00  0.00    +0.046 A 
ATOM      6  C   UNL     1       2.018  -7.295   2.962  0.00  0.00    +0.122 A 
ENDROOT
BRANCH   1   7
ATOM      7  C   UNL     1       3.506  -5.369   3.565  0.00  0.00    -0.043 C 
BRANCH   7   8
ATOM      8  N   UNL     1       3.212  -4.400   2.501  0.00  0.00    +0.385 N 
ATOM      9  H   UNL     1       2.437  -3.818   2.780  0.00  0.00    -0.085 HD
ATOM     10  H   UNL     1       2.975  -4.893   1.653  0.00  0.00    -0.085 HD
BRANCH   8  11
ATOM     11  C   UNL     1       4.394  -3.560   2.264  0.00  0.00    -0.024 C 
BRANCH  11  14
ATOM     12  C   UNL     1       3.711  -0.707  -0.038  0.00  0.00    +0.153 C 
ATOM     13  C   UNL     1       4.045  -1.243   1.343  0.00  0.00    +0.026 C 
ATOM     14  C   UNL     1       4.093  -2.566   1.172  0.00  0.00    +0.043 C 
ATOM     15  N   UNL     1       3.835  -2.893  -0.114  0.00  0.00    -0.185 NA
ATOM     16  N   UNL     1       3.614  -1.928  -0.856  0.00  0.00    -0.298 N 
ATOM     17  H   UNL     1       3.413  -1.966  -1.804  0.00  0.00    +0.183 HD
BRANCH  12  21
ATOM     18  C   UNL     1      -0.017   1.378   0.010  0.00  0.00    +0.000 A 
ATOM     19  C   UNL     1       1.171   2.086   0.002  0.00  0.00    +0.000 A 
ATOM     20  C   UNL     1       2.377   1.411  -0.013  0.00  0.00    +0.006 A 
ATOM     21  C   UNL     1       2.396   0.029  -0.020  0.00  0.00    -0.020 A 
ATOM     22  C   UNL     1       1.208  -0.679  -0.012  0.00  0.00    +0.006 A 
ATOM     23  C   UNL     1       0.002  -0.004   0.002  0.00  0.00    +0.000 A 
ENDBRANCH  12  21
ENDBRANCH  11  14
ENDBRANCH   8  11
ENDBRANCH   7   8
ENDBRANCH   1   7
BRANCH   6  24
ATOM     24  O   UNL     1       2.841  -7.562   1.914  0.00  0.00    -0.489 OA
BRANCH  24  25
ATOM     25  C   UNL     1       2.496  -8.674   1.085  0.00  0.00    +0.258 C 
BRANCH  25  26
ATOM     26  C   UNL     1       3.530  -8.817  -0.033  0.00  0.00    +0.135 C 
BRANCH  26  27
ATOM     27  O   UNL     1       4.800  -9.147   0.533  0.00  0.00    -0.390 OA
ATOM     28  H   UNL     1       4.805  -9.974   1.033  0.00  0.00    +0.210 HD
ENDBRANCH  26  27
BRANCH  26  29
ATOM     29  C   UNL     1       3.095  -9.928  -0.991  0.00  0.00    -0.044 C 
BRANCH  29  30
ATOM     30  N   UNL     1       4.088 -10.065  -2.065  0.00  0.00    +0.381 N 
ATOM     31  C   UNL     1       4.112  -8.836  -2.867  0.00  0.00    -0.079 C 
ATOM     32  C   UNL     1       5.201  -8.942  -3.937  0.00  0.00    -0.019 C 
ATOM     33  C   UNL     1       4.903 -10.139  -4.844  0.00  0.00    -0.004 C 
ATOM     34  C   UNL     1       4.806 -11.405  -3.987  0.00  0.00    -0.019 C 
ATOM     35  C   UNL     1       3.732 -11.207  -2.915  0.00  0.00    -0.079 C 
ATOM     36  H   UNL     1       4.999 -10.219  -1.661  0.00  0.00    -0.082 HD
ENDBRANCH  29  30
ENDBRANCH  26  29
ENDBRANCH  25  26
ENDBRANCH  24  25
ENDBRANCH   6  24
TORSDOF 11
