REMARK  Name = ZINC05075356
REMARK  6 active torsions:
REMARK  status: ('A' for Active; 'I' for Inactive)
REMARK    1  A    between atoms: C_1  and  O_2
REMARK    2  A    between atoms: O_2  and  C_3
REMARK    3  A    between atoms: C_3  and  C_4
REMARK    4  A    between atoms: C_11  and  N_24
REMARK    5  A    between atoms: C_12  and  C_22
REMARK    6  A    between atoms: C_13  and  C_15
REMARK                            x       y       z     vdW  Elec       q    Type
REMARK                         _______ _______ _______ _____ _____    ______ ____
ROOT
ATOM      1  C   UNL     1       0.633  -2.085   1.012  0.00  0.00    +0.096 A 
ATOM      2  C   UNL     1      -0.359  -2.913   1.519  0.00  0.00    +0.052 A 
ATOM      3  C   UNL     1      -0.030  -4.204   1.212  0.00  0.00    +0.223 A 
ATOM      4  N   UNL     1       1.129  -4.178   0.535  0.00  0.00    -0.246 N 
ATOM      5  H   UNL     1       1.605  -4.948   0.187  0.00  0.00    +0.192 HD
ATOM      6  N   UNL     1       1.527  -2.837   0.416  0.00  0.00    -0.173 NA
ATOM      7  O   UNL     1      -0.800  -5.261   1.572  0.00  0.00    -0.423 OA
ATOM      8  C   UNL     1      -1.771  -5.045   2.483  0.00  0.00    +0.200 C 
ATOM      9  C   UNL     1      -2.191  -3.817   2.858  0.00  0.00    +0.098 C 
ATOM     10  C   UNL     1      -1.608  -2.551   2.280  0.00  0.00    +0.104 C 
ENDROOT
BRANCH  10  11
ATOM     11  C   UNL     1      -2.604  -1.911   1.347  0.00  0.00    +0.001 A 
ATOM     12  C   UNL     1      -3.080  -2.614   0.257  0.00  0.00    +0.007 A 
ATOM     13  C   UNL     1      -3.994  -2.027  -0.599  0.00  0.00    +0.000 A 
ATOM     14  C   UNL     1      -4.433  -0.737  -0.364  0.00  0.00    +0.003 A 
ATOM     15  C   UNL     1      -3.958  -0.033   0.726  0.00  0.00    +0.038 A 
ATOM     16  C   UNL     1      -3.047  -0.622   1.587  0.00  0.00    +0.127 A 
ATOM     17  F   UNL     1      -2.587   0.064   2.656  0.00  0.00    -0.205 F 
ENDBRANCH  10  11
BRANCH   8  18
ATOM     18  N   UNL     1      -2.367  -6.137   3.063  0.00  0.00    -0.328 N 
ATOM     19  H   UNL     1      -2.087  -7.032   2.815  0.00  0.00    +0.145 HD
ATOM     20  H   UNL     1      -3.068  -6.014   3.722  0.00  0.00    +0.145 HD
ENDBRANCH   8  18
BRANCH   9  21
ATOM     21  C   UNL     1      -3.227  -3.713   3.841  0.00  0.00    +0.101 C 
ATOM     22  N   UNL     1      -4.050  -3.630   4.620  0.00  0.00    -0.191 NA
ENDBRANCH   9  21
BRANCH   1  23
ATOM     23  C   UNL     1       0.673  -0.582   1.123  0.00  0.00    +0.217 C 
BRANCH  23  25
ATOM     24  C   UNL     1      -0.017   1.425   0.010  0.00  0.00    +0.194 C 
ATOM     25  O   UNL     1       0.002  -0.004   0.002  0.00  0.00    -0.377 OA
ENDBRANCH  23  25
ENDBRANCH   1  23
TORSDOF 5
