REMARK  Name = ZINC03840758
REMARK  10 active torsions:
REMARK  status: ('A' for Active; 'I' for Inactive)
REMARK    1  A    between atoms: C_1  and  C_2
REMARK    2  A    between atoms: C_10  and  C_12
REMARK    3  A    between atoms: C_16  and  C_39
REMARK    4  A    between atoms: C_19  and  O_38
REMARK    5  A    between atoms: C_21  and  C_25
REMARK    6  A    between atoms: C_25  and  C_27
REMARK    7  A    between atoms: C_25  and  C_28
REMARK    8  A    between atoms: N_30  and  C_31
REMARK    9  A    between atoms: C_31  and  C_32
REMARK   10  A    between atoms: C_32  and  N_75
REMARK                            x       y       z     vdW  Elec       q    Type
REMARK                         _______ _______ _______ _____ _____    ______ ____
ROOT
ATOM      1  C   UNL     1       3.718   2.849   1.080  0.00  0.00    +0.014 C 
ATOM      2  C   UNL     1       3.056   3.433   2.329  0.00  0.00    +0.042 C 
ATOM      3  C   UNL     1       3.918   3.135   3.546  0.00  0.00    +0.057 A 
ATOM      4  C   UNL     1       3.339   2.756   4.715  0.00  0.00    +0.015 A 
ATOM      5  S   UNL     1       4.733   2.544   5.789  0.00  0.00    -0.057 S 
ATOM      6  C   UNL     1       5.960   2.962   4.630  0.00  0.00    +0.165 A 
ATOM      7  N   UNL     1       5.246   3.222   3.555  0.00  0.00    -0.229 NA
ATOM      8  N   UNL     1       7.339   3.010   4.797  0.00  0.00    -0.264 N 
ATOM      9  C   UNL     1       7.885   2.704   5.990  0.00  0.00    +0.222 C 
ATOM     10  O   UNL     1       7.172   2.387   6.920  0.00  0.00    -0.275 OA
ATOM     11  C   UNL     1       1.889   2.573   4.994  0.00  0.00    +0.051 C 
ATOM     12  C   UNL     1       1.073   3.221   3.859  0.00  0.00    -0.022 C 
ATOM     13  C   UNL     1       1.670   2.800   2.514  0.00  0.00    +0.033 C 
ATOM     14  C   UNL     1       0.783   3.293   1.362  0.00  0.00    +0.123 C 
ATOM     15  C   UNL     1      -0.633   2.740   1.513  0.00  0.00    +0.029 C 
ATOM     16  C   UNL     1      -1.221   3.237   2.837  0.00  0.00    +0.007 C 
ATOM     17  C   UNL     1      -0.364   2.706   3.984  0.00  0.00    +0.008 C 
ATOM     18  C   UNL     1       1.096   4.745   4.001  0.00  0.00    +0.012 C 
ATOM     19  H   UNL     1       7.908   3.263   4.054  0.00  0.00    +0.157 HD
ENDROOT
BRANCH   9  20
ATOM     20  C   UNL     1       9.380   2.755   6.171  0.00  0.00    +0.075 C 
ATOM     21  C   UNL     1      10.113   1.428   6.375  0.00  0.00    +0.013 C 
ATOM     22  C   UNL     1       9.938   2.395   7.549  0.00  0.00    +0.013 C 
ENDBRANCH   9  20
BRANCH  15  23
ATOM     23  C   UNL     1      -0.589   1.210   1.513  0.00  0.00    +0.077 C 
ATOM     24  C   UNL     1       0.074   0.719   0.225  0.00  0.00    +0.017 C 
BRANCH  23  25
ATOM     25  C   UNL     1      -1.992   0.667   1.595  0.00  0.00    +0.216 C 
ATOM     26  O   UNL     1      -2.935   1.429   1.648  0.00  0.00    -0.276 OA
ATOM     27  N   UNL     1      -2.200  -0.664   1.610  0.00  0.00    -0.317 N 
ATOM     28  H   UNL     1      -1.446  -1.273   1.568  0.00  0.00    +0.149 HD
BRANCH  27  29
ATOM     29  C   UNL     1      -3.564  -1.192   1.690  0.00  0.00    +0.085 C 
BRANCH  29  30
ATOM     30  C   UNL     1      -3.520  -2.722   1.691  0.00  0.00    -0.060 C 
BRANCH  30  36
ATOM     31  C   UNL     1      -5.504  -2.925   3.065  0.00  0.00    -0.050 C 
ATOM     32  C   UNL     1      -6.945  -3.442   3.083  0.00  0.00    +0.141 C 
ATOM     33  O   UNL     1      -6.945  -4.848   2.822  0.00  0.00    -0.383 OA
ATOM     34  C   UNL     1      -6.353  -5.201   1.569  0.00  0.00    +0.141 C 
ATOM     35  C   UNL     1      -4.906  -4.702   1.536  0.00  0.00    -0.050 C 
ATOM     36  N   UNL     1      -4.904  -3.240   1.752  0.00  0.00    +0.384 N 
ATOM     37  H   UNL     1      -5.460  -2.792   1.014  0.00  0.00    -0.082 HD
ENDBRANCH  30  36
ENDBRANCH  29  30
ENDBRANCH  27  29
ENDBRANCH  23  25
ENDBRANCH  15  23
BRANCH  14  38
ATOM     38  O   UNL     1       1.331   2.856   0.117  0.00  0.00    -0.391 OA
ATOM     39  H   UNL     1       0.827   3.143  -0.657  0.00  0.00    +0.210 HD
ENDBRANCH  14  38
TORSDOF 7
