REMARK  Name = ZINC38658987
REMARK  15 active torsions:
REMARK  status: ('A' for Active; 'I' for Inactive)
REMARK    1  A    between atoms: C_1  and  C_2
REMARK    2  A    between atoms: C_2  and  C_3
REMARK    3  A    between atoms: C_6  and  O_9
REMARK    4  A    between atoms: O_9  and  C_10
REMARK    5  A    between atoms: C_10  and  C_12
REMARK    6  A    between atoms: C_10  and  C_13
REMARK    7  A    between atoms: C_13  and  O_15
REMARK    8  A    between atoms: O_15  and  C_16
REMARK    9  A    between atoms: C_23  and  N_39
REMARK   10  A    between atoms: C_24  and  C_37
REMARK   11  A    between atoms: C_25  and  C_27
REMARK   12  A    between atoms: C_31  and  O_35
REMARK   13  A    between atoms: C_32  and  O_33
REMARK   14  A    between atoms: O_33  and  C_34
REMARK   15  A    between atoms: O_35  and  C_36
REMARK                            x       y       z     vdW  Elec       q    Type
REMARK                         _______ _______ _______ _____ _____    ______ ____
ROOT
ATOM      1  C   UNL     1       6.099  -1.568  -7.522  0.00  0.00    +0.135 A 
ATOM      2  C   UNL     1       5.111  -1.320  -8.465  0.00  0.00    +0.047 A 
ATOM      3  C   UNL     1       5.458  -1.041  -9.772  0.00  0.00    +0.012 A 
ATOM      4  C   UNL     1       6.790  -1.008 -10.148  0.00  0.00    +0.008 A 
ATOM      5  C   UNL     1       7.781  -1.254  -9.210  0.00  0.00    +0.138 A 
ATOM      6  C   UNL     1       7.433  -1.529  -7.894  0.00  0.00    +0.093 A 
ATOM      7  O   UNL     1       9.091  -1.226  -9.559  0.00  0.00    -0.441 OA
ATOM      8  C   UNL     1       9.471  -0.598 -10.684  0.00  0.00    +0.199 C 
ATOM      9  C   UNL     1       8.597  -0.319 -11.680  0.00  0.00    +0.098 C 
ATOM     10  C   UNL     1       7.148  -0.702 -11.578  0.00  0.00    +0.102 C 
ENDROOT
BRANCH  10  11
ATOM     11  C   UNL     1       6.892  -1.921 -12.428  0.00  0.00    +0.011 A 
ATOM     12  C   UNL     1       7.554  -3.104 -12.156  0.00  0.00    +0.008 A 
ATOM     13  C   UNL     1       7.322  -4.223 -12.933  0.00  0.00    +0.004 A 
ATOM     14  C   UNL     1       6.428  -4.164 -13.986  0.00  0.00    +0.049 A 
ATOM     15  C   UNL     1       5.761  -2.982 -14.263  0.00  0.00    +0.162 A 
ATOM     16  C   UNL     1       5.990  -1.857 -13.477  0.00  0.00    +0.166 A 
BRANCH  16  17
ATOM     17  O   UNL     1       5.335  -0.695 -13.742  0.00  0.00    -0.491 OA
ATOM     18  C   UNL     1       5.961   0.210 -14.654  0.00  0.00    +0.277 C 
ENDBRANCH  16  17
BRANCH  15  19
ATOM     19  O   UNL     1       4.881  -2.922 -15.299  0.00  0.00    -0.491 OA
ATOM     20  C   UNL     1       4.692  -4.117 -16.059  0.00  0.00    +0.277 C 
ENDBRANCH  15  19
ENDBRANCH  10  11
BRANCH   8  21
ATOM     21  N   UNL     1      10.785  -0.226 -10.828  0.00  0.00    -0.328 N 
ATOM     22  H   UNL     1      11.423  -0.418 -10.123  0.00  0.00    +0.145 HD
ATOM     23  H   UNL     1      11.075   0.228 -11.634  0.00  0.00    +0.145 HD
ENDBRANCH   8  21
BRANCH   9  24
ATOM     24  C   UNL     1       9.064   0.354 -12.855  0.00  0.00    +0.101 C 
ATOM     25  N   UNL     1       9.434   0.889 -13.787  0.00  0.00    -0.191 NA
ENDBRANCH   9  24
BRANCH   1  26
ATOM     26  O   UNL     1       5.759  -1.843  -6.236  0.00  0.00    -0.423 OA
BRANCH  26  27
ATOM     27  C   UNL     1       5.098  -2.985  -5.989  0.00  0.00    +0.353 C 
ATOM     28  O   UNL     1       4.904  -3.776  -6.881  0.00  0.00    -0.246 OA
BRANCH  27  29
ATOM     29  C   UNL     1       4.596  -3.280  -4.599  0.00  0.00    +0.279 C 
ATOM     30  C   UNL     1       5.778  -3.321  -3.628  0.00  0.00    +0.064 C 
BRANCH  29  31
ATOM     31  O   UNL     1       3.930  -4.545  -4.591  0.00  0.00    -0.478 OA
BRANCH  31  35
ATOM     32  C   UNL     1       0.717  -4.953  -2.035  0.00  0.00    -0.047 A 
ATOM     33  C   UNL     1       1.486  -3.804  -2.000  0.00  0.00    +0.007 A 
ATOM     34  C   UNL     1       2.562  -3.665  -2.855  0.00  0.00    +0.046 A 
ATOM     35  C   UNL     1       2.872  -4.679  -3.749  0.00  0.00    +0.122 A 
ATOM     36  C   UNL     1       2.100  -5.831  -3.782  0.00  0.00    +0.046 A 
ATOM     37  C   UNL     1       1.028  -5.968  -2.922  0.00  0.00    +0.007 A 
BRANCH  32  39
ATOM     38  C   UNL     1       0.008  -5.752   0.202  0.00  0.00    +0.009 C 
ATOM     39  C   UNL     1      -0.457  -5.102  -1.102  0.00  0.00    +0.032 C 
ENDBRANCH  32  39
ENDBRANCH  31  35
ENDBRANCH  29  31
ENDBRANCH  27  29
ENDBRANCH  26  27
ENDBRANCH   1  26
TORSDOF 11
