REMARK  Name = ZINC19514629
REMARK  4 active torsions:
REMARK  status: ('A' for Active; 'I' for Inactive)
REMARK    1  A    between atoms: C_4  and  C_7
REMARK    2  A    between atoms: C_7  and  N_8
REMARK    3  A    between atoms: N_11  and  C_12
REMARK    4  A    between atoms: C_12  and  C_17
REMARK                            x       y       z     vdW  Elec       q    Type
REMARK                         _______ _______ _______ _____ _____    ______ ____
ROOT
ATOM      1  N   UNL     1       1.142   2.033   0.002  0.00  0.00    -0.299 N 
ATOM      2  C   UNL     1      -0.016   1.344   0.009  0.00  0.00    +0.300 C 
ATOM      3  O   UNL     1      -1.077   1.937   0.018  0.00  0.00    -0.253 OA
ATOM      4  N   UNL     1       0.002  -0.004   0.002  0.00  0.00    -0.284 N 
ATOM      5  H   UNL     1       2.102   1.496  -0.010  0.00  0.00    +0.150 HD
ATOM      6  H   UNL     1       0.962  -0.541  -0.010  0.00  0.00    +0.151 HD
ENDROOT
BRANCH   4   7
ATOM      7  C   UNL     1      -1.256  -0.754   0.010  0.00  0.00    +0.137 C 
ATOM      8  C   UNL     1      -2.021  -0.516   1.336  0.00  0.00    +0.037 C 
ATOM      9  C   UNL     1      -1.313  -1.483   2.317  0.00  0.00    +0.003 C 
ATOM     10  C   UNL     1      -1.017  -2.735   1.466  0.00  0.00    +0.003 C 
ATOM     11  C   UNL     1      -0.981  -2.272  -0.001  0.00  0.00    +0.037 C 
BRANCH   7  12
ATOM     12  C   UNL     1      -2.109  -0.364  -1.170  0.00  0.00    +0.379 C 
ATOM     13  O   UNL     1      -2.809  -1.188  -1.708  0.00  0.00    -0.244 OA
ATOM     14  O   UNL     1      -2.089   0.899  -1.624  0.00  0.00    -0.244 OA
ENDBRANCH   7  12
ENDBRANCH   4   7
BRANCH   1  15
ATOM     15  C   UNL     1       1.122   3.498   0.010  0.00  0.00    +0.109 C 
BRANCH  15  19
ATOM     16  C   UNL     1       4.675   5.680   1.170  0.00  0.00    +0.000 C 
ATOM     17  C   UNL     1       3.973   6.083  -0.129  0.00  0.00    +0.000 C 
ATOM     18  C   UNL     1       2.537   5.553  -0.118  0.00  0.00    +0.005 C 
ATOM     19  C   UNL     1       2.557   4.028  -0.001  0.00  0.00    +0.006 C 
ATOM     20  C   UNL     1       3.259   3.625   1.298  0.00  0.00    +0.005 C 
ATOM     21  C   UNL     1       4.694   4.155   1.287  0.00  0.00    +0.000 C 
ENDBRANCH  15  19
ENDBRANCH   1  15
TORSDOF 4
