REMARK  Name = ZINC62700903
REMARK  8 active torsions:
REMARK  status: ('A' for Active; 'I' for Inactive)
REMARK    1  A    between atoms: C_1  and  C_2
REMARK    2  A    between atoms: C_2  and  C_4
REMARK    3  A    between atoms: C_2  and  O_11
REMARK    4  A    between atoms: N_9  and  C_10
REMARK    5  A    between atoms: O_11  and  C_12
REMARK    6  A    between atoms: C_15  and  C_19
REMARK    7  A    between atoms: C_19  and  N_20
REMARK    8  A    between atoms: N_20  and  C_21
REMARK                            x       y       z     vdW  Elec       q    Type
REMARK                         _______ _______ _______ _____ _____    ______ ____
ROOT
ATOM      1  O   UNL     1      -1.339  -0.499   0.012  0.00  0.00    -0.479 OA
ENDROOT
BRANCH   1   2
ATOM      2  C   UNL     1      -1.965  -0.607  -1.189  0.00  0.00    +0.136 A 
ATOM      3  C   UNL     1      -1.269  -0.349  -2.361  0.00  0.00    +0.047 A 
ATOM      4  C   UNL     1      -1.908  -0.459  -3.581  0.00  0.00    +0.005 A 
ATOM      5  C   UNL     1      -3.240  -0.826  -3.635  0.00  0.00    -0.063 A 
ATOM      6  C   UNL     1      -3.937  -1.084  -2.469  0.00  0.00    +0.020 A 
ATOM      7  C   UNL     1      -3.300  -0.980  -1.246  0.00  0.00    +0.060 A 
ATOM      8 BR   UNL     1      -4.251  -1.341   0.349  0.00  0.00    -0.047 Br
BRANCH   5   9
ATOM      9  C   UNL     1      -3.935  -0.945  -4.967  0.00  0.00    -0.047 C 
BRANCH   9  10
ATOM     10  N   UNL     1      -3.790  -2.316  -5.474  0.00  0.00    +0.380 N 
ATOM     11  C   UNL     1      -4.467  -2.432  -6.773  0.00  0.00    -0.100 C 
ATOM     12  H   UNL     1      -2.811  -2.533  -5.585  0.00  0.00    -0.086 HD
ATOM     13  H   UNL     1      -4.205  -2.962  -4.819  0.00  0.00    -0.086 HD
ENDBRANCH   9  10
ENDBRANCH   5   9
ENDBRANCH   1   2
BRANCH   1  15
ATOM     14  C   UNL     1       0.299   1.273  -0.132  0.00  0.00    +0.062 C 
ATOM     15  C   UNL     1       0.066  -0.234  -0.010  0.00  0.00    +0.256 C 
BRANCH  15  16
ATOM     16  C   UNL     1       0.692  -0.738   1.265  0.00  0.00    +0.261 C 
ATOM     17  O   UNL     1      -0.008  -1.188   2.147  0.00  0.00    -0.271 OA
ATOM     18  N   UNL     1       2.029  -0.688   1.425  0.00  0.00    -0.237 N 
ATOM     19  C   UNL     1       2.589  -1.138   2.565  0.00  0.00    +0.306 C 
ATOM     20  O   UNL     1       1.888  -1.589   3.449  0.00  0.00    -0.252 OA
ATOM     21  N   UNL     1       3.926  -1.088   2.724  0.00  0.00    -0.302 N 
ATOM     22  C   UNL     1       4.535  -1.577   3.964  0.00  0.00    +0.129 C 
ATOM     23  H   UNL     1       2.588  -0.328   0.719  0.00  0.00    +0.159 HD
ATOM     24  H   UNL     1       4.486  -0.728   2.019  0.00  0.00    +0.150 HD
ENDBRANCH  15  16
ENDBRANCH   1  15
TORSDOF 5
