REMARK  Name = ZINC48688618
REMARK  7 active torsions:
REMARK  status: ('A' for Active; 'I' for Inactive)
REMARK    1  A    between atoms: C_1  and  C_2
REMARK    2  A    between atoms: C_2  and  C_4
REMARK    3  A    between atoms: C_2  and  N_11
REMARK    4  A    between atoms: N_14  and  C_15
REMARK    5  A    between atoms: C_15  and  C_17
REMARK    6  A    between atoms: C_15  and  C_18
REMARK    7  A    between atoms: N_20  and  C_21
REMARK                            x       y       z     vdW  Elec       q    Type
REMARK                         _______ _______ _______ _____ _____    ______ ____
ROOT
ATOM      1  N   UNL     1       0.711  -0.489   1.189  0.00  0.00    -0.293 N 
ATOM      2  C   UNL     1       2.054  -0.600   1.174  0.00  0.00    +0.301 C 
ATOM      3  O   UNL     1       2.677  -0.297   0.175  0.00  0.00    -0.253 OA
ATOM      4  N   UNL     1       2.706  -1.046   2.266  0.00  0.00    -0.288 N 
ATOM      5  H   UNL     1       0.213  -0.731   1.986  0.00  0.00    +0.151 HD
ATOM      6  H   UNL     1       2.208  -1.288   3.062  0.00  0.00    +0.151 HD
ENDROOT
BRANCH   1   8
ATOM      7  C   UNL     1      -0.019   1.526   0.010  0.00  0.00    +0.033 C 
ATOM      8  C   UNL     1       0.002  -0.004   0.002  0.00  0.00    +0.102 C 
BRANCH   8   9
ATOM      9  C   UNL     1      -1.412  -0.526   0.013  0.00  0.00    -0.027 A 
ATOM     10  C   UNL     1      -2.123  -0.571   1.198  0.00  0.00    +0.006 A 
ATOM     11  C   UNL     1      -3.420  -1.049   1.208  0.00  0.00    +0.015 A 
ATOM     12  C   UNL     1      -4.006  -1.482   0.032  0.00  0.00    +0.018 A 
ATOM     13  C   UNL     1      -3.294  -1.437  -1.153  0.00  0.00    +0.015 A 
ATOM     14  C   UNL     1      -1.999  -0.954  -1.163  0.00  0.00    +0.006 A 
ATOM     15 BR   UNL     1      -5.780  -2.136   0.046  0.00  0.00    -0.050 Br
ENDBRANCH   8   9
ENDBRANCH   1   8
BRANCH   4  16
ATOM     16  C   UNL     1       4.166  -1.166   2.249  0.00  0.00    +0.157 C 
ATOM     17  C   UNL     1       4.792   0.183   2.607  0.00  0.00    +0.038 C 
BRANCH  16  18
ATOM     18  C   UNL     1       4.596  -2.203   3.255  0.00  0.00    +0.233 C 
ATOM     19  O   UNL     1       3.765  -2.784   3.920  0.00  0.00    -0.274 OA
ATOM     20  N   UNL     1       5.904  -2.484   3.415  0.00  0.00    -0.317 N 
ATOM     21  C   UNL     1       6.322  -3.491   4.393  0.00  0.00    +0.128 C 
ATOM     22  H   UNL     1       6.569  -2.019   2.883  0.00  0.00    +0.148 HD
ENDBRANCH  16  18
ENDBRANCH   4  16
TORSDOF 4
