REMARK  Name = ZINC15103228
REMARK  12 active torsions:
REMARK  status: ('A' for Active; 'I' for Inactive)
REMARK    1  A    between atoms: C_1  and  C_2
REMARK    2  A    between atoms: C_4  and  C_29
REMARK    3  A    between atoms: C_6  and  O_8
REMARK    4  A    between atoms: O_8  and  C_9
REMARK    5  A    between atoms: C_9  and  C_10
REMARK    6  A    between atoms: C_10  and  N_58
REMARK    7  A    between atoms: C_11  and  N_58
REMARK    8  A    between atoms: C_12  and  C_14
REMARK    9  A    between atoms: C_12  and  C_15
REMARK   10  A    between atoms: C_12  and  N_58
REMARK   11  A    between atoms: N_17  and  C_18
REMARK   12  A    between atoms: C_19  and  C_26
REMARK                            x       y       z     vdW  Elec       q    Type
REMARK                         _______ _______ _______ _____ _____    ______ ____
ROOT
ATOM      1  C   UNL     1      -0.587   3.292  -4.914  0.00  0.00    +0.204 C 
ATOM      2  O   UNL     1      -0.416   3.944  -5.922  0.00  0.00    -0.277 OA
ATOM      3  N   UNL     1       0.342   3.304  -3.938  0.00  0.00    -0.281 N 
ATOM      4  H   UNL     1       0.205   2.783  -3.132  0.00  0.00    +0.155 HD
ENDROOT
BRANCH   3   5
ATOM      5  C   UNL     1       1.494   4.063  -4.086  0.00  0.00    +0.084 A 
ATOM      6  C   UNL     1       2.551   4.202  -3.204  0.00  0.00    +0.068 A 
ATOM      7  C   UNL     1       3.660   5.067  -3.608  0.00  0.00    -0.023 A 
ATOM      8  C   UNL     1       3.523   5.645  -4.814  0.00  0.00    -0.004 A 
ATOM      9  S   UNL     1       1.956   5.066  -5.418  0.00  0.00    -0.077 S 
ATOM     10  C   UNL     1       4.702   6.514  -5.161  0.00  0.00    +0.043 C 
ATOM     11  C   UNL     1       5.813   6.069  -4.184  0.00  0.00    +0.010 C 
ATOM     12  C   UNL     1       4.990   5.516  -3.003  0.00  0.00    +0.037 C 
BRANCH   6  13
ATOM     13  C   UNL     1       2.563   3.504  -1.915  0.00  0.00    +0.244 C 
ATOM     14  O   UNL     1       2.089   4.038  -0.929  0.00  0.00    -0.270 OA
ATOM     15  N   UNL     1       3.093   2.269  -1.822  0.00  0.00    -0.325 N 
ATOM     16  H   UNL     1       3.097   1.805  -0.970  0.00  0.00    +0.145 HD
ATOM     17  H   UNL     1       3.471   1.843  -2.608  0.00  0.00    +0.145 HD
ENDBRANCH   6  13
ENDBRANCH   3   5
BRANCH   1  18
ATOM     18  C   UNL     1      -1.838   2.467  -4.753  0.00  0.00    +0.016 C 
ATOM     19  C   UNL     1      -1.503   0.988  -4.950  0.00  0.00    -0.004 C 
BRANCH  18  21
ATOM     20  C   UNL     1      -4.170   2.394  -5.401  0.00  0.00    -0.095 C 
ATOM     21  N   UNL     1      -2.831   2.911  -5.754  0.00  0.00    +0.387 N 
ATOM     22  H   UNL     1      -2.861   3.937  -5.762  0.00  0.00    -0.081 HD
BRANCH  21  23
ATOM     23  C   UNL     1      -2.443   2.432  -7.097  0.00  0.00    -0.037 C 
BRANCH  23  24
ATOM     24  C   UNL     1      -3.354   3.086  -8.137  0.00  0.00    +0.210 C 
BRANCH  24  25
ATOM     25  O   UNL     1      -3.141   4.499  -8.136  0.00  0.00    -0.494 OA
BRANCH  25  31
ATOM     26  C   UNL     1      -6.525   4.684 -11.648  0.00  0.00    +0.044 C 
ATOM     27  C   UNL     1      -5.536   5.361 -10.735  0.00  0.00    -0.047 A 
ATOM     28  C   UNL     1      -5.378   6.734 -10.786  0.00  0.00    +0.007 A 
ATOM     29  C   UNL     1      -4.471   7.359  -9.949  0.00  0.00    -0.047 A 
ATOM     30  C   UNL     1      -3.721   6.613  -9.061  0.00  0.00    +0.049 A 
ATOM     31  C   UNL     1      -3.878   5.235  -9.009  0.00  0.00    +0.121 A 
ATOM     32  C   UNL     1      -4.784   4.610  -9.853  0.00  0.00    +0.049 A 
ATOM     33  C   UNL     1      -4.302   8.855 -10.006  0.00  0.00    +0.044 C 
ENDBRANCH  25  31
ENDBRANCH  24  25
ENDBRANCH  23  24
ENDBRANCH  21  23
ENDBRANCH  18  21
ENDBRANCH   1  18
TORSDOF 8
