REMARK  Name = ZINC20287898
REMARK  13 active torsions:
REMARK  status: ('A' for Active; 'I' for Inactive)
REMARK    1  A    between atoms: C_1  and  C_2
REMARK    2  A    between atoms: C_2  and  N_3
REMARK    3  A    between atoms: N_6  and  C_9
REMARK    4  A    between atoms: C_9  and  C_11
REMARK    5  A    between atoms: C_9  and  C_16
REMARK    6  A    between atoms: C_16  and  C_18
REMARK    7  A    between atoms: C_16  and  N_19
REMARK    8  A    between atoms: C_20  and  C_22
REMARK    9  A    between atoms: N_24  and  C_25
REMARK   10  A    between atoms: C_25  and  C_26
REMARK   11  A    between atoms: C_26  and  N_27
REMARK   12  A    between atoms: N_27  and  C_28
REMARK   13  A    between atoms: N_27  and  C_29
REMARK                            x       y       z     vdW  Elec       q    Type
REMARK                         _______ _______ _______ _____ _____    ______ ____
ROOT
ATOM      1  C   UNL     1       2.524   3.934  -1.422  0.00  0.00    +0.092 C 
ATOM      2  C   UNL     1       1.100   4.293  -1.853  0.00  0.00    +0.030 C 
ENDROOT
BRANCH   1   3
ATOM      3  N   UNL     1       3.076   2.938  -2.343  0.00  0.00    -0.303 N 
ATOM      4  C   UNL     1       3.661   3.332  -3.491  0.00  0.00    +0.299 C 
ATOM      5  O   UNL     1       3.731   4.513  -3.762  0.00  0.00    -0.265 OA
ATOM      6  H   UNL     1       3.013   1.867  -2.097  0.00  0.00    +0.149 HD
BRANCH   4   7
ATOM      7  C   UNL     1       4.225   2.315  -4.430  0.00  0.00    +0.299 C 
ATOM      8  O   UNL     1       4.156   1.134  -4.159  0.00  0.00    -0.265 OA
ATOM      9  N   UNL     1       4.810   2.709  -5.579  0.00  0.00    -0.309 N 
ATOM     10  H   UNL     1       4.873   3.780  -5.824  0.00  0.00    +0.149 HD
BRANCH   9  11
ATOM     11  C   UNL     1       5.362   1.713  -6.499  0.00  0.00    +0.086 C 
BRANCH  11  12
ATOM     12  C   UNL     1       5.964   2.420  -7.715  0.00  0.00    -0.061 C 
BRANCH  12  13
ATOM     13  N   UNL     1       6.518   1.420  -8.639  0.00  0.00    +0.377 N 
ATOM     14  C   UNL     1       5.453   0.585  -9.211  0.00  0.00    -0.097 C 
ATOM     15  C   UNL     1       7.309   2.062  -9.697  0.00  0.00    -0.097 C 
ATOM     16  H   UNL     1       7.189   0.765  -8.065  0.00  0.00    -0.083 HD
ENDBRANCH  12  13
ENDBRANCH  11  12
ENDBRANCH   9  11
ENDBRANCH   4   7
ENDBRANCH   1   3
BRANCH   1  17
ATOM     17  C   UNL     1       2.498   3.360  -0.004  0.00  0.00    +0.113 C 
BRANCH  17  21
ATOM     18  N   UNL     1       1.685   6.087   3.118  0.00  0.00    +0.381 N 
ATOM     19  C   UNL     1       1.027   4.774   3.162  0.00  0.00    -0.063 C 
ATOM     20  C   UNL     1       1.793   3.792   2.272  0.00  0.00    +0.066 C 
ATOM     21  N   UNL     1       1.836   4.312   0.898  0.00  0.00    -0.297 NA
ATOM     22  C   UNL     1       2.494   5.625   0.854  0.00  0.00    +0.066 C 
ATOM     23  C   UNL     1       1.728   6.606   1.744  0.00  0.00    -0.063 C 
ATOM     24  H   UNL     1       2.721   5.959   3.466  0.00  0.00    -0.082 HD
BRANCH  18  26
ATOM     25  C   UNL     1       1.568   8.445   3.767  0.00  0.00    -0.017 C 
ATOM     26  C   UNL     1       1.023   7.039   4.020  0.00  0.00    -0.082 C 
ENDBRANCH  18  26
ENDBRANCH  17  21
BRANCH  17  27
ATOM     27  C   UNL     1       1.742   2.057  -0.004  0.00  0.00    +0.009 A 
ATOM     28  C   UNL     1       2.223   0.790  -0.015  0.00  0.00    +0.013 A 
ATOM     29  C   UNL     1       1.332  -0.266  -0.012  0.00  0.00    +0.008 A 
ATOM     30  C   UNL     1       0.002  -0.004   0.002  0.00  0.00    +0.045 A 
ATOM     31  S   UNL     1      -0.022   1.781   0.012  0.00  0.00    -0.100 S 
ENDBRANCH  17  27
ENDBRANCH   1  17
TORSDOF 9
