REMARK  Name = ZINC09705927
REMARK  15 active torsions:
REMARK  status: ('A' for Active; 'I' for Inactive)
REMARK    1  A    between atoms: C_1  and  C_2
REMARK    2  A    between atoms: C_2  and  N_69
REMARK    3  A    between atoms: C_3  and  C_4
REMARK    4  A    between atoms: C_3  and  N_69
REMARK    5  A    between atoms: C_5  and  C_6
REMARK    6  A    between atoms: C_5  and  N_69
REMARK    7  A    between atoms: C_6  and  C_7
REMARK    8  A    between atoms: C_7  and  C_8
REMARK    9  A    between atoms: C_8  and  C_10
REMARK   10  A    between atoms: C_8  and  N_11
REMARK   11  A    between atoms: C_12  and  C_14
REMARK   12  A    between atoms: N_16  and  C_17
REMARK   13  A    between atoms: C_25  and  C_26
REMARK   14  A    between atoms: N_28  and  C_29
REMARK   15  A    between atoms: C_33  and  C_35
REMARK                            x       y       z     vdW  Elec       q    Type
REMARK                         _______ _______ _______ _____ _____    ______ ____
ROOT
ATOM      1  C   UNL     1       1.840   4.921   0.479  0.00  0.00    +0.093 A 
ATOM      2  C   UNL     1       0.614   4.113   0.481  0.00  0.00    +0.042 A 
ATOM      3  C   UNL     1       0.319   2.799   0.843  0.00  0.00    +0.013 A 
ATOM      4  C   UNL     1      -0.961   2.333   0.722  0.00  0.00    +0.001 A 
ATOM      5  C   UNL     1      -1.967   3.161   0.243  0.00  0.00    +0.004 A 
ATOM      6  C   UNL     1      -1.695   4.462  -0.119  0.00  0.00    +0.047 A 
ATOM      7  C   UNL     1      -0.400   4.956  -0.005  0.00  0.00    +0.138 A 
ATOM      8  O   UNL     1       0.153   6.157  -0.271  0.00  0.00    -0.448 OA
ATOM      9  C   UNL     1       1.476   6.152   0.005  0.00  0.00    +0.212 A 
ENDROOT
BRANCH   1  12
ATOM     10  C   UNL     1       3.451   3.217   0.816  0.00  0.00    +0.303 C 
ATOM     11  O   UNL     1       2.677   2.406   0.352  0.00  0.00    -0.265 OA
ATOM     12  N   UNL     1       3.108   4.519   0.876  0.00  0.00    -0.274 N 
ATOM     13  H   UNL     1       3.746   5.175   1.197  0.00  0.00    +0.155 HD
BRANCH  10  15
ATOM     14  N   UNL     1       5.129   1.471   1.260  0.00  0.00    -0.305 N 
ATOM     15  C   UNL     1       4.785   2.772   1.320  0.00  0.00    +0.300 C 
ATOM     16  O   UNL     1       5.559   3.583   1.784  0.00  0.00    -0.265 OA
ATOM     17  H   UNL     1       4.510   0.822   0.889  0.00  0.00    +0.149 HD
BRANCH  14  18
ATOM     18  C   UNL     1       6.437   1.035   1.754  0.00  0.00    +0.070 C 
ATOM     19  C   UNL     1       7.483   1.211   0.652  0.00  0.00    +0.028 C 
BRANCH  18  20
ATOM     20  C   UNL     1       6.364  -0.439   2.158  0.00  0.00    +0.020 C 
BRANCH  20  21
ATOM     21  C   UNL     1       5.410  -0.597   3.343  0.00  0.00    -0.017 C 
BRANCH  21  22
ATOM     22  C   UNL     1       5.338  -2.071   3.747  0.00  0.00    -0.079 C 
BRANCH  22  23
ATOM     23  N   UNL     1       4.342  -2.217   4.830  0.00  0.00    +0.379 N 
ATOM     24  H   UNL     1       4.448  -1.436   5.487  0.00  0.00    -0.082 HD
BRANCH  23  26
ATOM     25  C   UNL     1       1.970  -2.116   5.417  0.00  0.00    -0.017 C 
ATOM     26  C   UNL     1       2.976  -2.189   4.267  0.00  0.00    -0.082 C 
ENDBRANCH  23  26
BRANCH  23  27
ATOM     27  C   UNL     1       4.565  -3.487   5.553  0.00  0.00    -0.082 C 
ATOM     28  C   UNL     1       5.749  -3.308   6.505  0.00  0.00    -0.017 C 
ENDBRANCH  23  27
ENDBRANCH  22  23
ENDBRANCH  21  22
ENDBRANCH  20  21
ENDBRANCH  18  20
ENDBRANCH  14  18
ENDBRANCH  10  15
ENDBRANCH   1  12
BRANCH   9  29
ATOM     29  C   UNL     1       2.378   7.289  -0.171  0.00  0.00    +0.285 C 
ATOM     30  O   UNL     1       3.573   7.153   0.020  0.00  0.00    -0.266 OA
ATOM     31  N   UNL     1       1.887   8.488  -0.544  0.00  0.00    -0.279 N 
ATOM     32  H   UNL     1       0.929   8.617  -0.620  0.00  0.00    +0.155 HD
BRANCH  31  33
ATOM     33  C   UNL     1       2.759   9.547  -0.815  0.00  0.00    +0.034 A 
ATOM     34  C   UNL     1       4.004   9.297  -1.379  0.00  0.00    +0.023 A 
ATOM     35  C   UNL     1       4.862  10.345  -1.645  0.00  0.00    +0.002 A 
ATOM     36  C   UNL     1       4.484  11.643  -1.351  0.00  0.00    +0.003 A 
ATOM     37  C   UNL     1       3.246  11.895  -0.790  0.00  0.00    -0.049 A 
ATOM     38  C   UNL     1       2.380  10.851  -0.525  0.00  0.00    +0.026 A 
ATOM     39  C   UNL     1       2.837  13.310  -0.472  0.00  0.00    +0.044 C 
ENDBRANCH  31  33
ENDBRANCH   9  29
TORSDOF 11
