REMARK  Name = ZINC63633150
REMARK  8 active torsions:
REMARK  status: ('A' for Active; 'I' for Inactive)
REMARK    1  A    between atoms: C_1  and  C_2
REMARK    2  A    between atoms: C_8  and  C_11
REMARK    3  A    between atoms: C_11  and  C_12
REMARK    4  A    between atoms: C_12  and  N_13
REMARK    5  A    between atoms: N_13  and  C_14
REMARK    6  A    between atoms: N_19  and  C_22
REMARK    7  A    between atoms: C_25  and  O_28
REMARK    8  A    between atoms: O_28  and  C_29
REMARK                            x       y       z     vdW  Elec       q    Type
REMARK                         _______ _______ _______ _____ _____    ______ ____
ROOT
ATOM      1  C   UNL     1      -2.741  -2.643   6.125  0.00  0.00    +0.026 C 
ATOM      2  C   UNL     1      -2.739  -2.435   7.653  0.00  0.00    +0.090 C 
ATOM      3  C   UNL     1      -3.551  -1.172   7.840  0.00  0.00    +0.225 C 
ATOM      4  O   UNL     1      -3.798  -0.647   8.904  0.00  0.00    -0.275 OA
ATOM      5  N   UNL     1      -3.953  -0.726   6.643  0.00  0.00    -0.212 N 
ATOM      6  C   UNL     1      -3.556  -1.479   5.606  0.00  0.00    +0.213 C 
ATOM      7  O   UNL     1      -3.807  -1.262   4.440  0.00  0.00    -0.277 OA
ENDROOT
BRANCH   5   8
ATOM      8  C   UNL     1      -4.729   0.433   6.486  0.00  0.00    +0.044 A 
ATOM      9  C   UNL     1      -5.008   0.915   5.215  0.00  0.00    +0.027 A 
ATOM     10  C   UNL     1      -5.771   2.055   5.061  0.00  0.00    +0.048 A 
ATOM     11  C   UNL     1      -6.259   2.720   6.177  0.00  0.00    +0.129 A 
ATOM     12  C   UNL     1      -5.980   2.239   7.448  0.00  0.00    +0.048 A 
ATOM     13  C   UNL     1      -5.222   1.095   7.603  0.00  0.00    +0.027 A 
BRANCH  11  14
ATOM     14  O   UNL     1      -7.009   3.843   6.025  0.00  0.00    -0.456 OA
BRANCH  14  15
ATOM     15  C   UNL     1      -7.348   4.218   4.763  0.00  0.00    +0.128 A 
ATOM     16  C   UNL     1      -8.343   3.534   4.079  0.00  0.00    +0.046 A 
ATOM     17  C   UNL     1      -8.686   3.917   2.797  0.00  0.00    +0.004 A 
ATOM     18  C   UNL     1      -8.039   4.981   2.196  0.00  0.00    +0.000 A 
ATOM     19  C   UNL     1      -7.047   5.664   2.876  0.00  0.00    +0.004 A 
ATOM     20  C   UNL     1      -6.704   5.288   4.160  0.00  0.00    +0.046 A 
ENDBRANCH  14  15
ENDBRANCH  11  14
ENDBRANCH   5   8
BRANCH   1  21
ATOM     21  N   UNL     1      -1.372  -2.594   5.594  0.00  0.00    +0.387 N 
ATOM     22  H   UNL     1      -0.807  -3.290   6.056  0.00  0.00    -0.085 HD
ATOM     23  H   UNL     1      -0.980  -1.679   5.759  0.00  0.00    -0.085 HD
BRANCH  21  24
ATOM     24  C   UNL     1      -1.397  -2.863   4.150  0.00  0.00    -0.077 C 
BRANCH  24  25
ATOM     25  C   UNL     1       0.029  -2.812   3.597  0.00  0.00    +0.014 C 
BRANCH  25  33
ATOM     26  C   UNL     1      -0.110   1.453  -0.075  0.00  0.00    +0.044 C 
ATOM     27  C   UNL     1      -0.086  -0.054  -0.068  0.00  0.00    -0.050 A 
ATOM     28  C   UNL     1      -0.101  -0.742  -1.289  0.00  0.00    +0.005 A 
ATOM     29  C   UNL     1      -0.082  -2.089  -1.367  0.00  0.00    +0.026 A 
ATOM     30  C   UNL     1      -0.046  -2.877  -0.183  0.00  0.00    +0.043 A 
ATOM     31  N   UNL     1      -0.024  -4.175   0.001  0.00  0.00    -0.380 N 
ATOM     32  C   UNL     1       0.009  -4.442   1.443  0.00  0.00    +0.144 C 
ATOM     33  C   UNL     1       0.004  -3.088   2.116  0.00  0.00    -0.043 C 
ATOM     34  C   UNL     1      -0.030  -2.174   1.119  0.00  0.00    -0.001 A 
ATOM     35  C   UNL     1      -0.046  -0.706   1.116  0.00  0.00    +0.013 A 
ATOM     36  H   UNL     1      -0.028  -4.846  -0.699  0.00  0.00    +0.160 HD
ENDBRANCH  25  33
ENDBRANCH  24  25
ENDBRANCH  21  24
ENDBRANCH   1  21
TORSDOF 7
