REMARK  Name = ZINC63884112
REMARK  2 active torsions:
REMARK  status: ('A' for Active; 'I' for Inactive)
REMARK    1  A    between atoms: C_4  and  C_7
REMARK    2  A    between atoms: C_15  and  C_17
REMARK                            x       y       z     vdW  Elec       q    Type
REMARK                         _______ _______ _______ _____ _____    ______ ____
ROOT
ATOM      1  C   UNL     1       3.715  -0.711  -0.036  0.00  0.00    +0.131 C 
ATOM      2  C   UNL     1       4.017  -1.214  -1.423  0.00  0.00    -0.012 C 
ATOM      3  C   UNL     1       4.091  -2.534  -1.362  0.00  0.00    +0.023 C 
ATOM      4  C   UNL     1       4.386  -3.417  -2.556  0.00  0.00    +0.071 C 
ATOM      5  C   UNL     1       4.117  -2.627  -3.841  0.00  0.00    +0.114 C 
ATOM      6  N   UNL     1       4.721  -1.292  -3.720  0.00  0.00    -0.292 N 
ATOM      7  C   UNL     1       4.201  -0.392  -2.674  0.00  0.00    +0.142 C 
ATOM      8  C   UNL     1       5.718  -0.903  -4.539  0.00  0.00    +0.263 C 
ATOM      9  O   UNL     1       6.195  -1.690  -5.332  0.00  0.00    -0.268 OA
ATOM     10  N   UNL     1       3.865  -2.979  -0.071  0.00  0.00    -0.283 N 
ATOM     11  N   UNL     1       3.633  -1.937   0.784  0.00  0.00    -0.231 NA
ATOM     12  H   UNL     1       3.871  -3.912   0.193  0.00  0.00    +0.166 HD
ATOM     13  H   UNL     1       4.314  -1.920   1.529  0.00  0.00    +0.145 HD
ENDROOT
BRANCH   8  14
ATOM     14  C   UNL     1       6.232   0.482  -4.472  0.00  0.00    +0.105 A 
ATOM     15  C   UNL     1       5.608   1.470  -5.174  0.00  0.00    +0.031 A 
ATOM     16  C   UNL     1       6.093   2.786  -5.112  0.00  0.00    +0.007 A 
ATOM     17  C   UNL     1       7.186   3.061  -4.349  0.00  0.00    +0.070 A 
ATOM     18  C   UNL     1       7.814   2.018  -3.632  0.00  0.00    +0.249 A 
ATOM     19  O   UNL     1       8.794   2.255  -2.946  0.00  0.00    -0.268 OA
ATOM     20  N   UNL     1       7.329   0.764  -3.701  0.00  0.00    -0.318 N 
ATOM     21  H   UNL     1       7.762   0.053  -3.204  0.00  0.00    +0.169 HD
ENDBRANCH   8  14
BRANCH   1  25
ATOM     22  C   UNL     1      -0.011   1.378   0.017  0.00  0.00    +0.000 A 
ATOM     23  C   UNL     1       1.177   2.084   0.009  0.00  0.00    +0.000 A 
ATOM     24  C   UNL     1       2.383   1.408  -0.008  0.00  0.00    +0.005 A 
ATOM     25  C   UNL     1       2.400   0.026  -0.017  0.00  0.00    -0.025 A 
ATOM     26  C   UNL     1       1.212  -0.680  -0.008  0.00  0.00    +0.005 A 
ATOM     27  C   UNL     1       0.006  -0.004   0.007  0.00  0.00    +0.000 A 
ENDBRANCH   1  25
TORSDOF 2
