REMARK  Name = ZINC43093578
REMARK  9 active torsions:
REMARK  status: ('A' for Active; 'I' for Inactive)
REMARK    1  A    between atoms: C_1  and  C_2
REMARK    2  A    between atoms: C_2  and  C_3
REMARK    3  A    between atoms: C_3  and  C_5
REMARK    4  A    between atoms: C_3  and  N_23
REMARK    5  A    between atoms: C_5  and  C_7
REMARK    6  A    between atoms: C_5  and  N_14
REMARK    7  A    between atoms: N_14  and  C_15
REMARK    8  A    between atoms: N_14  and  C_20
REMARK    9  A    between atoms: C_15  and  C_16
REMARK                            x       y       z     vdW  Elec       q    Type
REMARK                         _______ _______ _______ _____ _____    ______ ____
ROOT
ATOM      1  C   UNL     1      -1.492  -1.602  -0.893  0.00  0.00    +0.074 C 
ENDROOT
BRANCH   1   2
ATOM      2  C   UNL     1      -2.804  -2.255  -1.242  0.00  0.00    -0.018 A 
ATOM      3  C   UNL     1      -2.837  -3.304  -2.142  0.00  0.00    +0.006 A 
ATOM      4  C   UNL     1      -4.040  -3.904  -2.462  0.00  0.00    +0.000 A 
ATOM      5  C   UNL     1      -5.212  -3.455  -1.883  0.00  0.00    +0.001 A 
ATOM      6  C   UNL     1      -5.181  -2.407  -0.983  0.00  0.00    +0.015 A 
ATOM      7  C   UNL     1      -3.976  -1.810  -0.658  0.00  0.00    +0.022 A 
ATOM      8 BR   UNL     1      -3.932  -0.380   0.579  0.00  0.00    -0.050 Br
ENDBRANCH   1   2
BRANCH   1   9
ATOM      9  C   UNL     1      -1.173  -0.515  -1.922  0.00  0.00    -0.053 C 
BRANCH   9  10
ATOM     10  N   UNL     1      -1.214  -1.093  -3.272  0.00  0.00    +0.381 N 
ATOM     11  H   UNL     1      -0.898  -0.407  -3.941  0.00  0.00    -0.090 HD
ATOM     12  H   UNL     1      -0.612  -1.902  -3.310  0.00  0.00    -0.090 HD
ATOM     13  H   UNL     1      -2.160  -1.367  -3.493  0.00  0.00    -0.090 HD
ENDBRANCH   9  10
BRANCH   9  15
ATOM     14  C   UNL     1      -1.814   1.753  -2.750  0.00  0.00    +0.002 C 
ATOM     15  C   UNL     1      -2.208   0.607  -1.817  0.00  0.00    -0.018 C 
ENDBRANCH   9  15
ENDBRANCH   1   9
BRANCH   1  16
ATOM     16  N   UNL     1      -0.425  -2.611  -0.900  0.00  0.00    -0.286 NA
BRANCH  16  17
ATOM     17  C   UNL     1      -0.783  -3.761  -0.058  0.00  0.00    +0.058 C 
ATOM     18  C   UNL     1       0.266  -4.261   0.937  0.00  0.00    +0.020 C 
ATOM     19  C   UNL     1      -0.051  -5.080  -0.316  0.00  0.00    +0.020 C 
ENDBRANCH  16  17
BRANCH  16  20
ATOM     20  C   UNL     1       0.855  -2.027  -0.478  0.00  0.00    +0.199 C 
BRANCH  20  21
ATOM     21  C   UNL     1       1.964  -2.490  -1.425  0.00  0.00    +0.402 C 
ATOM     22  F   UNL     1       1.732  -1.970  -2.703  0.00  0.00    -0.169 F 
ATOM     23  F   UNL     1       3.200  -2.035  -0.954  0.00  0.00    -0.169 F 
ATOM     24  F   UNL     1       1.973  -3.887  -1.485  0.00  0.00    -0.169 F 
ENDBRANCH  20  21
ENDBRANCH  16  20
ENDBRANCH   1  16
TORSDOF 8
