REMARK  Name = ZINC31643076
REMARK  5 active torsions:
REMARK  status: ('A' for Active; 'I' for Inactive)
REMARK    1  A    between atoms: N_13  and  C_17
REMARK    2  A    between atoms: C_17  and  C_18
REMARK    3  A    between atoms: N_20  and  C_21
REMARK    4  A    between atoms: C_21  and  C_22
REMARK    5  A    between atoms: C_22  and  C_23
REMARK                            x       y       z     vdW  Elec       q    Type
REMARK                         _______ _______ _______ _____ _____    ______ ____
ROOT
ATOM      1  C   UNL     1       7.862   3.772   1.450  0.00  0.00    +0.001 A 
ATOM      2  C   UNL     1       9.076   4.272   1.884  0.00  0.00    +0.004 A 
ATOM      3  C   UNL     1       9.288   5.635   1.912  0.00  0.00    +0.046 A 
ATOM      4  C   UNL     1       8.285   6.509   1.506  0.00  0.00    +0.126 A 
ATOM      5  C   UNL     1       7.072   6.005   1.067  0.00  0.00    +0.027 A 
ATOM      6  C   UNL     1       6.864   4.636   1.044  0.00  0.00    +0.010 A 
ATOM      7  C   UNL     1       5.970   6.920   0.613  0.00  0.00    +0.144 C 
ATOM      8  C   UNL     1       6.219   8.346   1.096  0.00  0.00    +0.081 C 
ATOM      9  C   UNL     1       7.679   8.709   0.792  0.00  0.00    +0.232 C 
ATOM     10  O   UNL     1       8.527   7.845   1.551  0.00  0.00    -0.492 OA
ATOM     11  C   UNL     1       4.630   6.427   1.109  0.00  0.00    +0.252 C 
ATOM     12  O   UNL     1       4.277   6.293   2.261  0.00  0.00    -0.272 OA
ATOM     13  N   UNL     1       3.909   6.166  -0.002  0.00  0.00    -0.215 N 
ATOM     14  C   UNL     1       4.605   6.433  -1.115  0.00  0.00    +0.310 C 
ATOM     15  O   UNL     1       4.166   6.281  -2.238  0.00  0.00    -0.252 OA
ATOM     16  N   UNL     1       5.844   6.887  -0.849  0.00  0.00    -0.281 N 
ATOM     17  H   UNL     1       6.687   7.204  -1.481  0.00  0.00    +0.152 HD
ENDROOT
BRANCH  13  18
ATOM     18  C   UNL     1       2.535   5.659   0.008  0.00  0.00    +0.213 C 
BRANCH  18  19
ATOM     19  C   UNL     1       2.555   4.152   0.000  0.00  0.00    +0.231 C 
ATOM     20  O   UNL     1       3.614   3.560  -0.013  0.00  0.00    -0.274 OA
ATOM     21  N   UNL     1       1.398   3.462   0.007  0.00  0.00    -0.313 N 
ATOM     22  H   UNL     1       0.438   3.999   0.019  0.00  0.00    +0.149 HD
BRANCH  21  23
ATOM     23  C   UNL     1       1.417   1.997  -0.001  0.00  0.00    +0.119 C 
BRANCH  23  24
ATOM     24  C   UNL     1      -0.018   1.468   0.010  0.00  0.00    +0.137 C 
BRANCH  24  25
ATOM     25  C   UNL     1       0.002  -0.004   0.002  0.00  0.00    +0.064 C 
ATOM     26  N   UNL     1       0.018  -1.140  -0.004  0.00  0.00    -0.197 NA
ENDBRANCH  24  25
ENDBRANCH  23  24
ENDBRANCH  21  23
ENDBRANCH  18  19
ENDBRANCH  13  18
TORSDOF 5
