REMARK  Name = ZINC57415181
REMARK  10 active torsions:
REMARK  status: ('A' for Active; 'I' for Inactive)
REMARK    1  A    between atoms: C_1  and  C_2
REMARK    2  A    between atoms: C_2  and  C_3
REMARK    3  A    between atoms: C_6  and  C_9
REMARK    4  A    between atoms: C_11  and  C_33
REMARK    5  A    between atoms: C_12  and  C_17
REMARK    6  A    between atoms: C_17  and  N_18
REMARK    7  A    between atoms: C_21  and  C_24
REMARK    8  A    between atoms: C_21  and  N_27
REMARK    9  A    between atoms: C_33  and  O_35
REMARK   10  A    between atoms: O_35  and  C_36
REMARK                            x       y       z     vdW  Elec       q    Type
REMARK                         _______ _______ _______ _____ _____    ______ ____
ROOT
ATOM      1  C   UNL     1       1.938  -1.075  -7.327  0.00  0.00    +0.144 C 
ATOM      2  C   UNL     1       2.064  -2.463  -6.732  0.00  0.00    +0.079 C 
ATOM      3  C   UNL     1       3.288  -2.863  -6.322  0.00  0.00    +0.038 C 
ATOM      4  N   UNL     1       4.373  -2.043  -6.441  0.00  0.00    -0.271 N 
ATOM      5  C   UNL     1       4.319  -0.809  -6.958  0.00  0.00    +0.304 C 
ATOM      6  O   UNL     1       5.341  -0.153  -7.023  0.00  0.00    -0.252 OA
ATOM      7  N   UNL     1       3.170  -0.271  -7.409  0.00  0.00    -0.288 N 
ATOM      8  H   UNL     1       5.232  -2.373  -6.133  0.00  0.00    +0.156 HD
ATOM      9  H   UNL     1       3.154   0.625  -7.780  0.00  0.00    +0.151 HD
ENDROOT
BRANCH   1  13
ATOM     10  C   UNL     1      -0.904   1.101  -4.997  0.00  0.00    -0.048 A 
ATOM     11  C   UNL     1      -1.302   0.473  -6.162  0.00  0.00    +0.004 A 
ATOM     12  C   UNL     1      -0.382  -0.231  -6.916  0.00  0.00    +0.006 A 
ATOM     13  C   UNL     1       0.936  -0.307  -6.505  0.00  0.00    -0.022 A 
ATOM     14  C   UNL     1       1.334   0.323  -5.341  0.00  0.00    +0.006 A 
ATOM     15  C   UNL     1       0.415   1.030  -4.589  0.00  0.00    +0.004 A 
BRANCH  10  17
ATOM     16  C   UNL     1      -1.949   3.323  -4.649  0.00  0.00    +0.009 C 
ATOM     17  C   UNL     1      -1.907   1.869  -4.174  0.00  0.00    +0.032 C 
ENDBRANCH  10  17
ENDBRANCH   1  13
BRANCH   2  18
ATOM     18  C   UNL     1       0.939  -3.311  -6.609  0.00  0.00    +0.339 C 
ATOM     19  O   UNL     1       0.497  -3.882  -7.589  0.00  0.00    -0.245 OA
BRANCH  18  20
ATOM     20  O   UNL     1       0.354  -3.487  -5.406  0.00  0.00    -0.465 OA
ATOM     21  C   UNL     1      -0.778  -4.357  -5.356  0.00  0.00    +0.280 C 
ENDBRANCH  18  20
ENDBRANCH   2  18
BRANCH   3  22
ATOM     22  C   UNL     1       3.457  -4.236  -5.724  0.00  0.00    +0.135 C 
BRANCH  22  23
ATOM     23  N   UNL     1       4.316  -5.047  -6.597  0.00  0.00    -0.297 NA
ATOM     24  C   UNL     1       3.664  -5.301  -7.888  0.00  0.00    +0.084 C 
ATOM     25  C   UNL     1       4.641  -6.021  -8.821  0.00  0.00    +0.013 C 
ATOM     26  C   UNL     1       5.073  -7.342  -8.178  0.00  0.00    +0.015 C 
ATOM     27  C   UNL     1       5.705  -7.053  -6.814  0.00  0.00    +0.013 C 
ATOM     28  C   UNL     1       4.698  -6.303  -5.939  0.00  0.00    +0.084 C 
BRANCH  26  29
ATOM     29  N   UNL     1       6.056  -8.010  -9.043  0.00  0.00    +0.389 N 
ATOM     30  C   UNL     1       5.445  -8.292 -10.347  0.00  0.00    -0.077 C 
ATOM     31  C   UNL     1       6.488  -8.915 -11.278  0.00  0.00    -0.019 C 
ATOM     32  C   UNL     1       7.002 -10.218 -10.661  0.00  0.00    -0.004 C 
ATOM     33  C   UNL     1       7.569  -9.924  -9.269  0.00  0.00    -0.019 C 
ATOM     34  C   UNL     1       6.486  -9.264  -8.413  0.00  0.00    -0.077 C 
ATOM     35  H   UNL     1       6.854  -7.407  -9.171  0.00  0.00    -0.080 HD
ENDBRANCH  26  29
BRANCH  26  36
ATOM     36  C   UNL     1       3.871  -8.232  -7.999  0.00  0.00    +0.200 C 
ATOM     37  O   UNL     1       2.834  -7.974  -8.573  0.00  0.00    -0.278 OA
ATOM     38  N   UNL     1       3.947  -9.315  -7.200  0.00  0.00    -0.330 N 
ATOM     39  H   UNL     1       4.751  -9.481  -6.684  0.00  0.00    +0.145 HD
ATOM     40  H   UNL     1       3.198  -9.929  -7.142  0.00  0.00    +0.145 HD
ENDBRANCH  26  36
ENDBRANCH  22  23
ENDBRANCH   3  22
TORSDOF 8
