REMARK  Name = ZINC40530396
REMARK  13 active torsions:
REMARK  status: ('A' for Active; 'I' for Inactive)
REMARK    1  A    between atoms: C_1  and  C_2
REMARK    2  A    between atoms: C_2  and  C_3
REMARK    3  A    between atoms: C_3  and  O_4
REMARK    4  A    between atoms: O_4  and  C_5
REMARK    5  A    between atoms: C_8  and  C_11
REMARK    6  A    between atoms: C_16  and  O_25
REMARK    7  A    between atoms: C_20  and  N_24
REMARK    8  A    between atoms: C_21  and  C_22
REMARK    9  A    between atoms: O_25  and  C_26
REMARK   10  A    between atoms: C_26  and  C_28
REMARK   11  A    between atoms: C_29  and  C_39
REMARK   12  A    between atoms: C_32  and  C_38
REMARK   13  A    between atoms: C_33  and  C_37
REMARK                            x       y       z     vdW  Elec       q    Type
REMARK                         _______ _______ _______ _____ _____    ______ ____
ROOT
ATOM      1  C   UNL     1      -6.361  -4.634   0.065  0.00  0.00    +0.098 C 
ATOM      2  C   UNL     1      -6.492  -5.475  -1.177  0.00  0.00    +0.008 A 
ATOM      3  C   UNL     1      -6.868  -4.878  -2.367  0.00  0.00    +0.012 A 
ATOM      4  C   UNL     1      -6.994  -5.633  -3.515  0.00  0.00    +0.047 A 
ATOM      5  C   UNL     1      -6.742  -6.998  -3.479  0.00  0.00    +0.136 A 
ATOM      6  C   UNL     1      -6.364  -7.599  -2.289  0.00  0.00    +0.093 A 
ATOM      7  C   UNL     1      -6.239  -6.837  -1.135  0.00  0.00    +0.138 A 
ATOM      8  O   UNL     1      -5.869  -7.440   0.022  0.00  0.00    -0.441 OA
ATOM      9  C   UNL     1      -6.109  -6.838   1.198  0.00  0.00    +0.199 C 
ATOM     10  C   UNL     1      -6.349  -5.512   1.285  0.00  0.00    +0.098 C 
ENDROOT
BRANCH   1  14
ATOM     11  C   UNL     1      -2.718  -2.406  -0.111  0.00  0.00    +0.121 A 
ATOM     12  C   UNL     1      -3.934  -1.744  -0.030  0.00  0.00    +0.046 A 
ATOM     13  C   UNL     1      -5.111  -2.466   0.026  0.00  0.00    +0.008 A 
ATOM     14  C   UNL     1      -5.076  -3.848   0.003  0.00  0.00    -0.034 A 
ATOM     15  C   UNL     1      -3.865  -4.511  -0.077  0.00  0.00    +0.008 A 
ATOM     16  C   UNL     1      -2.687  -3.793  -0.140  0.00  0.00    +0.046 A 
BRANCH  11  17
ATOM     17  O   UNL     1      -1.560  -1.698  -0.167  0.00  0.00    -0.492 OA
BRANCH  17  18
ATOM     18  C   UNL     1      -1.668  -0.274  -0.133  0.00  0.00    +0.229 C 
BRANCH  18  20
ATOM     19  C   UNL     1      -0.387   1.871  -0.168  0.00  0.00    +0.007 C 
ATOM     20  C   UNL     1      -0.271   0.346  -0.205  0.00  0.00    +0.038 C 
ENDBRANCH  18  20
ENDBRANCH  17  18
ENDBRANCH  11  17
ENDBRANCH   1  14
BRANCH   9  21
ATOM     21  N   UNL     1      -6.111  -7.593   2.345  0.00  0.00    -0.328 N 
ATOM     22  H   UNL     1      -5.940  -8.547   2.298  0.00  0.00    +0.145 HD
ATOM     23  H   UNL     1      -6.284  -7.173   3.202  0.00  0.00    +0.145 HD
ENDBRANCH   9  21
BRANCH  10  24
ATOM     24  C   UNL     1      -6.597  -4.931   2.570  0.00  0.00    +0.101 C 
ATOM     25  N   UNL     1      -6.795  -4.470   3.589  0.00  0.00    -0.191 NA
ENDBRANCH  10  24
BRANCH   5  26
ATOM     26  O   UNL     1      -6.866  -7.743  -4.609  0.00  0.00    -0.420 OA
BRANCH  26  27
ATOM     27  C   UNL     1      -7.884  -8.626  -4.676  0.00  0.00    +0.380 C 
ATOM     28  O   UNL     1      -8.716  -8.663  -3.791  0.00  0.00    -0.241 OA
BRANCH  27  29
ATOM     29  C   UNL     1      -7.986  -9.542  -5.819  0.00  0.00    +0.216 A 
ATOM     30  C   UNL     1      -8.967 -10.466  -5.995  0.00  0.00    +0.010 A 
ATOM     31  C   UNL     1      -8.666 -11.140  -7.257  0.00  0.00    +0.024 A 
ATOM     32  C   UNL     1      -9.277 -12.166  -7.983  0.00  0.00    +0.015 A 
ATOM     33  C   UNL     1      -8.727 -12.580  -9.163  0.00  0.00    -0.047 A 
ATOM     34  C   UNL     1      -7.567 -11.990  -9.644  0.00  0.00    -0.044 A 
ATOM     35  C   UNL     1      -6.949 -10.977  -8.943  0.00  0.00    +0.050 A 
ATOM     36  C   UNL     1      -7.489 -10.538  -7.740  0.00  0.00    +0.137 A 
ATOM     37  O   UNL     1      -7.124  -9.589  -6.856  0.00  0.00    -0.448 OA
ATOM     38  C   UNL     1      -6.976 -12.462 -10.948  0.00  0.00    +0.044 C 
ATOM     39  C   UNL     1      -9.385 -13.686  -9.947  0.00  0.00    +0.044 C 
ATOM     40  C   UNL     1     -10.130 -10.740  -5.076  0.00  0.00    +0.048 C 
ENDBRANCH  27  29
ENDBRANCH  26  27
ENDBRANCH   5  26
TORSDOF 9
