REMARK  Name = ZINC63112107
REMARK  14 active torsions:
REMARK  status: ('A' for Active; 'I' for Inactive)
REMARK    1  A    between atoms: C_1  and  C_2
REMARK    2  A    between atoms: C_2  and  O_3
REMARK    3  A    between atoms: O_3  and  C_4
REMARK    4  A    between atoms: C_7  and  C_12
REMARK    5  A    between atoms: C_9  and  O_10
REMARK    6  A    between atoms: O_10  and  C_11
REMARK    7  A    between atoms: C_12  and  C_14
REMARK    8  A    between atoms: C_12  and  C_32
REMARK    9  A    between atoms: C_14  and  N_15
REMARK   10  A    between atoms: C_16  and  C_18
REMARK   11  A    between atoms: C_18  and  C_19
REMARK   12  A    between atoms: C_19  and  C_21
REMARK   13  A    between atoms: C_19  and  N_28
REMARK   14  A    between atoms: C_25  and  C_27
REMARK                            x       y       z     vdW  Elec       q    Type
REMARK                         _______ _______ _______ _____ _____    ______ ____
ROOT
ATOM      1  C   UNL     1       0.113  -5.379  -3.387  0.00  0.00    +0.064 C 
ENDROOT
BRANCH   1   2
ATOM      2  C   UNL     1       1.111  -5.556  -2.272  0.00  0.00    -0.033 C 
ATOM      3  C   UNL     1       2.379  -6.013  -2.381  0.00  0.00    -0.000 A 
ATOM      4  C   UNL     1       3.177  -6.468  -3.526  0.00  0.00    +0.010 A 
ATOM      5  C   UNL     1       4.449  -6.879  -3.318  0.00  0.00    +0.001 A 
ATOM      6  C   UNL     1       5.022  -6.882  -2.039  0.00  0.00    +0.002 A 
ATOM      7  C   UNL     1       4.352  -6.479  -0.938  0.00  0.00    +0.026 A 
ATOM      8  C   UNL     1       3.008  -6.026  -1.041  0.00  0.00    +0.043 A 
ATOM      9  N   UNL     1       2.161  -5.593  -0.139  0.00  0.00    -0.380 N 
ATOM     10  C   UNL     1       0.900  -5.250  -0.806  0.00  0.00    +0.145 C 
ATOM     11  H   UNL     1       2.340  -5.509   0.811  0.00  0.00    +0.160 HD
ENDBRANCH   1   2
BRANCH   1  15
ATOM     12  C   UNL     1      -1.043  -1.269  -3.625  0.00  0.00    +0.162 A 
ATOM     13  C   UNL     1      -1.266  -1.988  -2.462  0.00  0.00    +0.050 A 
ATOM     14  C   UNL     1      -0.892  -3.317  -2.388  0.00  0.00    +0.008 A 
ATOM     15  C   UNL     1      -0.294  -3.931  -3.473  0.00  0.00    -0.035 A 
ATOM     16  C   UNL     1      -0.069  -3.219  -4.636  0.00  0.00    +0.053 A 
ATOM     17  C   UNL     1      -0.447  -1.888  -4.719  0.00  0.00    +0.162 A 
BRANCH  17  18
ATOM     18  O   UNL     1      -0.231  -1.188  -5.864  0.00  0.00    -0.491 OA
ATOM     19  C   UNL     1       0.385  -1.889  -6.947  0.00  0.00    +0.277 C 
ENDBRANCH  17  18
BRANCH  12  20
ATOM     20  O   UNL     1      -1.412   0.038  -3.699  0.00  0.00    -0.489 OA
BRANCH  20  22
ATOM     21  C   UNL     1      -2.361   2.074  -2.808  0.00  0.00    +0.048 C 
ATOM     22  C   UNL     1      -2.018   0.608  -2.537  0.00  0.00    +0.226 C 
ENDBRANCH  20  22
ENDBRANCH  12  20
ENDBRANCH   1  15
BRANCH   1  23
ATOM     23  C   UNL     1      -1.121  -6.240  -3.108  0.00  0.00    +0.116 C 
BRANCH  23  24
ATOM     24  N   UNL     1      -0.747  -7.656  -3.143  0.00  0.00    -0.314 N 
ATOM     25  C   UNL     1      -1.679  -8.605  -2.923  0.00  0.00    +0.215 C 
ATOM     26  O   UNL     1      -2.827  -8.286  -2.696  0.00  0.00    -0.276 OA
ATOM     27  H   UNL     1       0.171  -7.911  -3.324  0.00  0.00    +0.149 HD
BRANCH  25  28
ATOM     28  C   UNL     1      -1.294 -10.061  -2.959  0.00  0.00    +0.122 C 
BRANCH  28  29
ATOM     29  C   UNL     1      -2.528 -10.922  -2.679  0.00  0.00    +0.113 C 
BRANCH  29  30
ATOM     30  C   UNL     1      -2.121 -12.370  -2.593  0.00  0.00    -0.026 A 
ATOM     31  C   UNL     1      -2.005 -12.984  -1.360  0.00  0.00    +0.005 A 
ATOM     32  C   UNL     1      -1.632 -14.312  -1.281  0.00  0.00    +0.001 A 
ATOM     33  C   UNL     1      -1.375 -15.028  -2.436  0.00  0.00    +0.003 A 
ATOM     34  C   UNL     1      -1.493 -14.415  -3.669  0.00  0.00    -0.050 A 
ATOM     35  C   UNL     1      -1.870 -13.087  -3.748  0.00  0.00    +0.008 A 
ATOM     36  C   UNL     1      -1.213 -15.195  -4.928  0.00  0.00    +0.044 C 
ENDBRANCH  29  30
BRANCH  29  37
ATOM     37  N   UNL     1      -3.499 -10.750  -3.763  0.00  0.00    -0.292 N 
ATOM     38  C   UNL     1      -4.806 -10.993  -3.541  0.00  0.00    +0.298 C 
ATOM     39  O   UNL     1      -5.192 -11.265  -2.421  0.00  0.00    -0.253 OA
ATOM     40  N   UNL     1      -5.684 -10.933  -4.561  0.00  0.00    -0.313 N 
ATOM     41  H   UNL     1      -3.201 -10.463  -4.640  0.00  0.00    +0.151 HD
ATOM     42  H   UNL     1      -5.376 -10.716  -5.455  0.00  0.00    +0.146 HD
ATOM     43  H   UNL     1      -6.625 -11.108  -4.402  0.00  0.00    +0.146 HD
ENDBRANCH  29  37
ENDBRANCH  28  29
ENDBRANCH  25  28
ENDBRANCH  23  24
ENDBRANCH   1  23
TORSDOF 11
