REMARK  Name = ZINC39533721
REMARK  8 active torsions:
REMARK  status: ('A' for Active; 'I' for Inactive)
REMARK    1  A    between atoms: C_4  and  C_7
REMARK    2  A    between atoms: C_10  and  C_13
REMARK    3  A    between atoms: C_13  and  C_15
REMARK    4  A    between atoms: C_13  and  N_24
REMARK    5  A    between atoms: C_15  and  N_16
REMARK    6  A    between atoms: N_16  and  C_17
REMARK    7  A    between atoms: C_22  and  O_23
REMARK    8  A    between atoms: C_28  and  O_31
REMARK                            x       y       z     vdW  Elec       q    Type
REMARK                         _______ _______ _______ _____ _____    ______ ____
ROOT
ATOM      1  C   UNL     1       7.382  -2.718  -0.134  0.00  0.00    +0.104 C 
ENDROOT
BRANCH   1   2
ATOM      2  N   UNL     1       7.131  -3.879  -0.999  0.00  0.00    -0.295 NA
ATOM      3  C   UNL     1       8.244  -4.835  -0.932  0.00  0.00    +0.066 C 
ATOM      4  C   UNL     1       7.918  -6.054  -1.798  0.00  0.00    -0.063 C 
ATOM      5  N   UNL     1       7.701  -5.625  -3.186  0.00  0.00    +0.398 N 
ATOM      6  C   UNL     1       6.570  -4.689  -3.240  0.00  0.00    +0.073 C 
ATOM      7  C   UNL     1       6.885  -3.459  -2.386  0.00  0.00    +0.096 C 
ATOM      8  H   UNL     1       8.532  -5.168  -3.531  0.00  0.00    -0.082 HD
ATOM      9  H   UNL     1       7.498  -6.431  -3.759  0.00  0.00    -0.082 HD
BRANCH   6  10
ATOM     10  O   UNL     1       6.350  -4.286  -4.593  0.00  0.00    -0.409 OA
ATOM     11  H   UNL     1       6.144  -5.016  -5.192  0.00  0.00    +0.207 HD
ENDBRANCH   6  10
ENDBRANCH   1   2
BRANCH   1  15
ATOM     12  C   UNL     1       3.999  -0.105  -0.240  0.00  0.00    -0.018 A 
ATOM     13  C   UNL     1       5.289   0.421  -0.237  0.00  0.00    +0.009 A 
ATOM     14  C   UNL     1       6.378  -0.427  -0.203  0.00  0.00    +0.006 A 
ATOM     15  C   UNL     1       6.189  -1.797  -0.171  0.00  0.00    -0.029 A 
ATOM     16  C   UNL     1       4.911  -2.325  -0.174  0.00  0.00    +0.006 A 
ATOM     17  C   UNL     1       3.815  -1.486  -0.202  0.00  0.00    +0.009 A 
BRANCH  12  21
ATOM     18  C   UNL     1       0.635   2.494  -0.345  0.00  0.00    +0.000 A 
ATOM     19  C   UNL     1       1.914   3.021  -0.348  0.00  0.00    +0.001 A 
ATOM     20  C   UNL     1       3.009   2.183  -0.314  0.00  0.00    +0.008 A 
ATOM     21  C   UNL     1       2.825   0.802  -0.276  0.00  0.00    -0.018 A 
ATOM     22  C   UNL     1       1.535   0.276  -0.273  0.00  0.00    +0.008 A 
ATOM     23  C   UNL     1       0.447   1.124  -0.307  0.00  0.00    +0.001 A 
ENDBRANCH  12  21
ENDBRANCH   1  15
BRANCH   1  24
ATOM     24  C   UNL     1       7.615  -3.192   1.302  0.00  0.00    +0.125 C 
BRANCH  24  25
ATOM     25  N   UNL     1       7.943  -2.043   2.149  0.00  0.00    -0.339 N 
ATOM     26  H   UNL     1       7.933  -1.147   1.776  0.00  0.00    +0.146 HD
BRANCH  25  27
ATOM     27  C   UNL     1       8.272  -2.237   3.495  0.00  0.00    +0.069 A 
ATOM     28  C   UNL     1       8.293  -3.518   4.028  0.00  0.00    +0.026 A 
ATOM     29  C   UNL     1       8.619  -3.707   5.358  0.00  0.00    +0.002 A 
ATOM     30  C   UNL     1       8.924  -2.623   6.160  0.00  0.00    +0.004 A 
ATOM     31  C   UNL     1       8.905  -1.343   5.635  0.00  0.00    +0.047 A 
ATOM     32  C   UNL     1       8.585  -1.145   4.302  0.00  0.00    +0.138 A 
BRANCH  32  33
ATOM     33  O   UNL     1       8.570   0.112   3.784  0.00  0.00    -0.505 OA
ATOM     34  H   UNL     1       7.714   0.556   3.854  0.00  0.00    +0.292 HD
ENDBRANCH  32  33
ENDBRANCH  25  27
ENDBRANCH  24  25
ENDBRANCH   1  24
TORSDOF 8
