REMARK  Name = ZINC35555845
REMARK  5 active torsions:
REMARK  status: ('A' for Active; 'I' for Inactive)
REMARK    1  A    between atoms: C_1  and  C_2
REMARK    2  A    between atoms: C_2  and  C_3
REMARK    3  A    between atoms: C_2  and  N_4
REMARK    4  A    between atoms: C_5  and  C_7
REMARK    5  A    between atoms: C_12  and  C_29
REMARK                            x       y       z     vdW  Elec       q    Type
REMARK                         _______ _______ _______ _____ _____    ______ ____
ROOT
ATOM      1  C   UNL     1       0.770  -1.097   3.542  0.00  0.00    +0.101 C 
ATOM      2  C   UNL     1       1.357  -2.479   3.256  0.00  0.00    +0.051 C 
ATOM      3  C   UNL     1       0.225  -3.448   3.030  0.00  0.00    -0.025 A 
ATOM      4  C   UNL     1       0.415  -4.538   2.201  0.00  0.00    +0.017 A 
ATOM      5  C   UNL     1      -0.621  -5.427   1.979  0.00  0.00    +0.055 A 
ATOM      6  C   UNL     1      -1.848  -5.226   2.584  0.00  0.00    +0.014 A 
ATOM      7  C   UNL     1      -2.041  -4.141   3.414  0.00  0.00    +0.024 A 
ATOM      8  C   UNL     1      -0.998  -3.248   3.644  0.00  0.00    +0.033 A 
ATOM      9  N   UNL     1      -1.219  -2.167   4.515  0.00  0.00    -0.323 N 
ATOM     10  C   UNL     1      -0.185  -1.174   4.737  0.00  0.00    +0.103 C 
ATOM     11  C   UNL     1      -0.735   0.219   5.000  0.00  0.00    +0.129 C 
ATOM     12  N   UNL     1      -2.006   0.204   5.696  0.00  0.00    -0.313 N 
ATOM     13  C   UNL     1      -3.059  -0.748   5.382  0.00  0.00    +0.125 C 
ATOM     14  C   UNL     1      -2.505  -2.141   5.209  0.00  0.00    +0.124 C 
ATOM     15  C   UNL     1      -2.228   1.137   6.702  0.00  0.00    +0.099 A 
ATOM     16  C   UNL     1      -3.482   1.224   7.298  0.00  0.00    +0.042 A 
ATOM     17  C   UNL     1      -3.689   2.157   8.298  0.00  0.00    +0.005 A 
ATOM     18  C   UNL     1      -2.630   2.975   8.670  0.00  0.00    +0.018 A 
ATOM     19  C   UNL     1      -1.412   2.835   8.036  0.00  0.00    +0.084 A 
ATOM     20  N   UNL     1      -1.242   1.932   7.088  0.00  0.00    -0.350 N 
ATOM     21  H   UNL     1      -0.375   1.852   6.662  0.00  0.00    +0.166 HD
ENDROOT
BRANCH   1  23
ATOM     22  N   UNL     1       0.657  -0.464   1.153  0.00  0.00    -0.313 N 
ATOM     23  C   UNL     1       0.017  -0.614   2.329  0.00  0.00    +0.218 C 
ATOM     24  O   UNL     1      -1.166  -0.359   2.412  0.00  0.00    -0.275 OA
ATOM     25  H   UNL     1       1.603  -0.667   1.087  0.00  0.00    +0.149 HD
BRANCH  22  27
ATOM     26  C   UNL     1      -0.119   1.536  -0.021  0.00  0.00    +0.027 C 
ATOM     27  C   UNL     1      -0.075   0.007  -0.025  0.00  0.00    +0.067 C 
ATOM     28  C   UNL     1       0.630  -0.480  -1.292  0.00  0.00    +0.027 C 
ENDBRANCH  22  27
ENDBRANCH   1  23
BRANCH   5  29
ATOM     29  C   UNL     1      -0.412  -6.615   1.077  0.00  0.00    +0.417 C 
ATOM     30  F   UNL     1       0.046  -7.700   1.833  0.00  0.00    -0.166 F 
ATOM     31  F   UNL     1      -1.622  -6.953   0.462  0.00  0.00    -0.166 F 
ATOM     32  F   UNL     1       0.536  -6.297   0.098  0.00  0.00    -0.166 F 
ENDBRANCH   5  29
TORSDOF 3
