REMARK  Name = ZINC01932595
REMARK  3 active torsions:
REMARK  status: ('A' for Active; 'I' for Inactive)
REMARK    1  A    between atoms: C_1  and  C_2
REMARK    2  A    between atoms: C_2  and  O_4
REMARK    3  A    between atoms: O_4  and  C_5
REMARK                            x       y       z     vdW  Elec       q    Type
REMARK                         _______ _______ _______ _____ _____    ______ ____
ROOT
ATOM      1  C   UNL     1      -0.002   1.354   0.002  0.00  0.00    +0.135 A 
ATOM      2  C   UNL     1      -1.209   2.041   0.100  0.00  0.00    +0.047 A 
ATOM      3  C   UNL     1      -1.228   3.407   0.106  0.00  0.00    +0.019 A 
ATOM      4  C   UNL     1      -0.031   4.116   0.004  0.00  0.00    +0.066 A 
ATOM      5  C   UNL     1       1.192   3.431  -0.101  0.00  0.00    +0.142 A 
ATOM      6  C   UNL     1       1.195   2.043  -0.101  0.00  0.00    +0.093 A 
ATOM      7  O   UNL     1       2.342   4.128  -0.200  0.00  0.00    -0.461 OA
ATOM      8  C   UNL     1       2.371   5.466  -0.203  0.00  0.00    +0.219 A 
ATOM      9  C   UNL     1       1.261   6.220  -0.108  0.00  0.00    +0.123 A 
ATOM     10  C   UNL     1      -0.008   5.590   0.001  0.00  0.00    +0.211 A 
ATOM     11  O   UNL     1      -1.036   6.241   0.090  0.00  0.00    -0.285 OA
ATOM     12 CL   UNL     1       1.378   7.952  -0.118  0.00  0.00    -0.076 Cl
ENDROOT
BRANCH   1  13
ATOM     13  O   UNL     1       0.002  -0.004   0.002  0.00  0.00    -0.426 OA
BRANCH  13  15
ATOM     14  C   UNL     1       0.684  -2.111   1.094  0.00  0.00    +0.136 C 
ATOM     15  C   UNL     1       0.526  -0.613   1.078  0.00  0.00    +0.309 C 
ATOM     16  O   UNL     1       0.871   0.041   2.034  0.00  0.00    -0.251 OA
ENDBRANCH  13  15
ENDBRANCH   1  13
TORSDOF 2
