REMARK  Name = ZINC66649814
REMARK  5 active torsions:
REMARK  status: ('A' for Active; 'I' for Inactive)
REMARK    1  A    between atoms: C_1  and  N_2
REMARK    2  A    between atoms: N_2  and  C_3
REMARK    3  A    between atoms: C_4  and  C_6
REMARK    4  A    between atoms: C_12  and  C_14
REMARK    5  A    between atoms: C_14  and  C_15
REMARK                            x       y       z     vdW  Elec       q    Type
REMARK                         _______ _______ _______ _____ _____    ______ ____
ROOT
ATOM      1  C   UNL     1       0.021  -2.178  -1.177  0.00  0.00    +0.173 C 
ATOM      2  C   UNL     1      -1.216  -2.691  -0.398  0.00  0.00    +0.102 C 
ATOM      3  S   UNL     1      -2.333  -3.109  -1.810  0.00  0.00    -0.139 S 
ATOM      4  C   UNL     1      -0.996  -3.522  -3.016  0.00  0.00    +0.178 C 
ATOM      5  N   UNL     1       0.087  -2.631  -2.556  0.00  0.00    -0.280 N 
ATOM      6  C   UNL     1       1.089  -2.258  -3.377  0.00  0.00    +0.219 C 
ATOM      7  O   UNL     1       1.966  -1.526  -2.970  0.00  0.00    -0.275 OA
ENDROOT
BRANCH   1  11
ATOM      8  C   UNL     1      -0.018   1.461   0.010  0.00  0.00    +0.131 C 
ATOM      9  N   UNL     1       0.002  -0.004   0.002  0.00  0.00    -0.306 N 
ATOM     10  C   UNL     1       0.024  -0.743   1.267  0.00  0.00    +0.131 C 
ATOM     11  C   UNL     1       0.000  -0.672  -1.169  0.00  0.00    +0.236 C 
ATOM     12  O   UNL     1      -0.018  -0.060  -2.216  0.00  0.00    -0.274 OA
ENDBRANCH   1  11
BRANCH   6  13
ATOM     13  C   UNL     1       1.119  -2.751  -4.801  0.00  0.00    +0.127 C 
BRANCH  13  14
ATOM     14  C   UNL     1       2.350  -2.185  -5.511  0.00  0.00    +0.169 C 
ATOM     15  C   UNL     1       2.387  -2.636  -6.957  0.00  0.00    +0.241 C 
ATOM     16  O   UNL     1       1.567  -2.401  -7.819  0.00  0.00    -0.273 OA
ATOM     17  N   UNL     1       3.521  -3.352  -7.087  0.00  0.00    -0.239 N 
ATOM     18  C   UNL     1       4.199  -3.416  -5.936  0.00  0.00    +0.307 C 
ATOM     19  O   UNL     1       5.253  -4.006  -5.804  0.00  0.00    -0.252 OA
ATOM     20  N   UNL     1       3.584  -2.749  -4.937  0.00  0.00    -0.287 N 
ATOM     21  H   UNL     1       3.810  -3.771  -7.913  0.00  0.00    +0.159 HD
ATOM     22  H   UNL     1       3.892  -2.659  -4.022  0.00  0.00    +0.151 HD
ENDBRANCH  13  14
ENDBRANCH   6  13
TORSDOF 3
