REMARK  Name = ZINC61749946
REMARK  9 active torsions:
REMARK  status: ('A' for Active; 'I' for Inactive)
REMARK    1  A    between atoms: C_1  and  C_2
REMARK    2  A    between atoms: C_5  and  C_8
REMARK    3  A    between atoms: C_8  and  C_9
REMARK    4  A    between atoms: C_8  and  N_25
REMARK    5  A    between atoms: C_9  and  N_10
REMARK    6  A    between atoms: N_13  and  C_14
REMARK    7  A    between atoms: C_19  and  C_20
REMARK    8  A    between atoms: C_20  and  C_21
REMARK    9  A    between atoms: N_23  and  C_24
REMARK                            x       y       z     vdW  Elec       q    Type
REMARK                         _______ _______ _______ _____ _____    ______ ____
ROOT
ATOM      1  N   UNL     1      -1.135  -6.311   0.241  0.00  0.00    -0.300 N 
ATOM      2  C   UNL     1      -2.267  -7.035   0.332  0.00  0.00    +0.304 C 
ATOM      3  O   UNL     1      -3.342  -6.475   0.428  0.00  0.00    -0.253 OA
ATOM      4  N   UNL     1      -2.209  -8.382   0.318  0.00  0.00    -0.269 N 
ATOM      5  H   UNL     1      -0.277  -6.758   0.164  0.00  0.00    +0.150 HD
ATOM      6  H   UNL     1      -1.363  -8.829   0.154  0.00  0.00    +0.156 HD
ENDROOT
BRANCH   4   7
ATOM      7  C   UNL     1      -3.367  -9.135   0.538  0.00  0.00    +0.038 A 
ATOM      8  C   UNL     1      -4.426  -8.591   1.254  0.00  0.00    +0.023 A 
ATOM      9  C   UNL     1      -5.568  -9.336   1.470  0.00  0.00    +0.002 A 
ATOM     10  C   UNL     1      -5.658 -10.624   0.974  0.00  0.00    +0.000 A 
ATOM     11  C   UNL     1      -4.606 -11.169   0.261  0.00  0.00    +0.006 A 
ATOM     12  C   UNL     1      -3.463 -10.426   0.037  0.00  0.00    -0.017 A 
BRANCH  12  13
ATOM     13  C   UNL     1      -2.320 -11.019  -0.745  0.00  0.00    +0.132 C 
BRANCH  13  14
ATOM     14  C   UNL     1      -1.317 -11.618   0.207  0.00  0.00    +0.217 C 
ATOM     15  O   UNL     1      -1.512 -11.569   1.403  0.00  0.00    -0.275 OA
ATOM     16  N   UNL     1      -0.204 -12.209  -0.271  0.00  0.00    -0.318 N 
ATOM     17  C   UNL     1       0.770 -12.792   0.655  0.00  0.00    +0.128 C 
ATOM     18  H   UNL     1      -0.048 -12.249  -1.227  0.00  0.00    +0.148 HD
ENDBRANCH  13  14
ENDBRANCH  12  13
ENDBRANCH   4   7
BRANCH   1  19
ATOM     19  C   UNL     1      -1.198  -4.847   0.257  0.00  0.00    +0.095 C 
BRANCH  19  20
ATOM     20  C   UNL     1       0.199  -4.273   0.014  0.00  0.00    -0.020 C 
BRANCH  20  25
ATOM     21  C   UNL     1       2.107  -5.979  -5.167  0.00  0.00    +0.044 C 
ATOM     22  C   UNL     1       1.609  -5.534  -3.816  0.00  0.00    -0.050 A 
ATOM     23  C   UNL     1       2.038  -6.184  -2.673  0.00  0.00    +0.003 A 
ATOM     24  C   UNL     1       1.582  -5.775  -1.434  0.00  0.00    +0.002 A 
ATOM     25  C   UNL     1       0.697  -4.717  -1.337  0.00  0.00    -0.059 A 
ATOM     26  C   UNL     1       0.269  -4.067  -2.479  0.00  0.00    +0.002 A 
ATOM     27  C   UNL     1       0.729  -4.473  -3.718  0.00  0.00    +0.003 A 
ENDBRANCH  20  25
BRANCH  20  28
ATOM     28  N   UNL     1       0.140  -2.806   0.056  0.00  0.00    +0.385 N 
ATOM     29  C   UNL     1      -0.155  -2.344   1.437  0.00  0.00    -0.078 C 
ATOM     30  C   UNL     1       0.364  -0.884   1.440  0.00  0.00    -0.020 C 
ATOM     31  C   UNL     1       1.640  -0.968   0.572  0.00  0.00    -0.020 C 
ATOM     32  C   UNL     1       1.459  -2.232  -0.288  0.00  0.00    -0.078 C 
ATOM     33  H   UNL     1      -0.564  -2.467  -0.583  0.00  0.00    -0.081 HD
ENDBRANCH  20  28
ENDBRANCH  19  20
ENDBRANCH   1  19
TORSDOF 7
