REMARK  Name = ZINC28428320
REMARK  10 active torsions:
REMARK  status: ('A' for Active; 'I' for Inactive)
REMARK    1  A    between atoms: C_5  and  C_7
REMARK    2  A    between atoms: C_7  and  N_8
REMARK    3  A    between atoms: C_10  and  C_17
REMARK    4  A    between atoms: C_17  and  N_18
REMARK    5  A    between atoms: N_18  and  C_19
REMARK    6  A    between atoms: C_19  and  C_20
REMARK    7  A    between atoms: C_20  and  N_21
REMARK    8  A    between atoms: N_21  and  C_22
REMARK    9  A    between atoms: C_22  and  C_23
REMARK   10  A    between atoms: C_23  and  O_24
REMARK                            x       y       z     vdW  Elec       q    Type
REMARK                         _______ _______ _______ _____ _____    ______ ____
ROOT
ATOM      1  N   UNL     1      -4.184  -0.247  -1.380  0.00  0.00    -0.342 N 
ATOM      2  C   UNL     1      -2.888   0.170  -1.509  0.00  0.00    +0.092 A 
ATOM      3  C   UNL     1      -2.662   1.222  -0.706  0.00  0.00    -0.008 A 
ATOM      4  C   UNL     1      -3.920   1.507  -0.011  0.00  0.00    +0.004 A 
ATOM      5  C   UNL     1      -4.845   0.552  -0.473  0.00  0.00    +0.050 A 
ATOM      6  C   UNL     1      -6.146   0.573   0.015  0.00  0.00    +0.026 A 
ATOM      7  C   UNL     1      -6.515   1.523   0.942  0.00  0.00    +0.002 A 
ATOM      8  C   UNL     1      -5.599   2.463   1.395  0.00  0.00    +0.001 A 
ATOM      9  C   UNL     1      -4.315   2.461   0.929  0.00  0.00    +0.010 A 
ENDROOT
BRANCH   1  10
ATOM     10  C   UNL     1      -4.783  -1.371  -2.103  0.00  0.00    +0.158 C 
BRANCH  10  15
ATOM     11  C   UNL     1      -5.808  -4.054   0.348  0.00  0.00    +0.000 A 
ATOM     12  C   UNL     1      -4.686  -4.861   0.360  0.00  0.00    +0.001 A 
ATOM     13  C   UNL     1      -3.595  -4.540  -0.425  0.00  0.00    +0.020 A 
ATOM     14  C   UNL     1      -3.627  -3.413  -1.227  0.00  0.00    +0.046 A 
ATOM     15  C   UNL     1      -4.748  -2.602  -1.234  0.00  0.00    -0.009 A 
ATOM     16  C   UNL     1      -5.840  -2.925  -0.449  0.00  0.00    +0.007 A 
ATOM     17 CL   UNL     1      -2.260  -3.012  -2.219  0.00  0.00    -0.083 Cl
ENDBRANCH  10  15
ENDBRANCH   1  10
BRANCH   3  18
ATOM     18  C   UNL     1      -1.363   1.970  -0.552  0.00  0.00    +0.118 C 
BRANCH  18  19
ATOM     19  N   UNL     1      -0.679   1.519   0.667  0.00  0.00    -0.314 NA
ATOM     20  H   UNL     1      -1.319   1.712   1.540  0.00  0.00    +0.122 HD
BRANCH  19  21
ATOM     21  C   UNL     1       0.594   2.229   0.850  0.00  0.00    +0.062 C 
BRANCH  21  22
ATOM     22  C   UNL     1       1.276   1.732   2.126  0.00  0.00    -0.067 C 
BRANCH  22  23
ATOM     23  N   UNL     1       2.549   2.442   2.309  0.00  0.00    +0.381 N 
ATOM     24  H   UNL     1       3.203   2.251   1.445  0.00  0.00    -0.086 HD
ATOM     25  H   UNL     1       2.358   3.522   2.392  0.00  0.00    -0.086 HD
BRANCH  23  26
ATOM     26  C   UNL     1       3.233   1.990   3.528  0.00  0.00    -0.054 C 
BRANCH  26  27
ATOM     27  C   UNL     1       4.552   2.751   3.684  0.00  0.00    +0.137 C 
BRANCH  27  28
ATOM     28  O   UNL     1       4.280   4.138   3.895  0.00  0.00    -0.397 OA
ATOM     29  H   UNL     1       5.110   4.847   4.029  0.00  0.00    +0.209 HD
ENDBRANCH  27  28
ENDBRANCH  26  27
ENDBRANCH  23  26
ENDBRANCH  22  23
ENDBRANCH  21  22
ENDBRANCH  19  21
ENDBRANCH  18  19
ENDBRANCH   3  18
TORSDOF 10
