REMARK  Name = ZINC59170695
REMARK  10 active torsions:
REMARK  status: ('A' for Active; 'I' for Inactive)
REMARK    1  A    between atoms: C_1  and  C_2
REMARK    2  A    between atoms: C_2  and  N_3
REMARK    3  A    between atoms: N_3  and  C_4
REMARK    4  A    between atoms: N_3  and  C_6
REMARK    5  A    between atoms: C_4  and  C_5
REMARK    6  A    between atoms: C_11  and  C_27
REMARK    7  A    between atoms: N_13  and  C_14
REMARK    8  A    between atoms: C_17  and  S_20
REMARK    9  A    between atoms: S_20  and  N_23
REMARK   10  A    between atoms: N_29  and  C_30
REMARK                            x       y       z     vdW  Elec       q    Type
REMARK                         _______ _______ _______ _____ _____    ______ ____
ROOT
ATOM      1  C   UNL     1      -2.048  -0.798   1.142  0.00  0.00    +0.033 A 
ATOM      2  C   UNL     1      -1.789   0.072   2.203  0.00  0.00    +0.024 A 
ATOM      3  C   UNL     1      -2.606   0.092   3.294  0.00  0.00    +0.013 A 
ATOM      4  C   UNL     1      -3.709  -0.773   3.359  0.00  0.00    +0.018 A 
ATOM      5  C   UNL     1      -4.544  -0.786   4.504  0.00  0.00    +0.030 A 
ATOM      6  C   UNL     1      -5.497  -1.790   4.610  0.00  0.00    +0.098 A 
ATOM      7  C   UNL     1      -5.548  -2.793   3.529  0.00  0.00    +0.212 A 
ATOM      8  N   UNL     1      -6.020  -4.003   3.744  0.00  0.00    -0.325 N 
ATOM      9  O   UNL     1      -5.090  -2.425   2.305  0.00  0.00    -0.438 OA
ATOM     10  C   UNL     1      -3.991  -1.630   2.276  0.00  0.00    +0.139 A 
ATOM     11  C   UNL     1      -3.152  -1.641   1.176  0.00  0.00    +0.070 A 
ATOM     12  H   UNL     1      -6.250  -4.281   4.644  0.00  0.00    +0.169 HD
ENDROOT
BRANCH   8  13
ATOM     13  C   UNL     1      -6.188  -4.867   2.697  0.00  0.00    +0.042 A 
ATOM     14  C   UNL     1      -6.771  -4.423   1.507  0.00  0.00    +0.027 A 
ATOM     15  C   UNL     1      -6.936  -5.301   0.456  0.00  0.00    +0.030 A 
ATOM     16  C   UNL     1      -6.527  -6.617   0.578  0.00  0.00    +0.105 A 
ATOM     17  C   UNL     1      -5.950  -7.063   1.753  0.00  0.00    +0.030 A 
ATOM     18  C   UNL     1      -5.773  -6.196   2.811  0.00  0.00    +0.027 A 
BRANCH  16  19
ATOM     19  S   UNL     1      -6.743  -7.730  -0.771  0.00  0.00    +0.056 S 
ATOM     20  O   UNL     1      -6.779  -9.038  -0.216  0.00  0.00    -0.153 OA
ATOM     21  O   UNL     1      -7.802  -7.209  -1.562  0.00  0.00    -0.153 OA
BRANCH  19  22
ATOM     22  N   UNL     1      -5.374  -7.647  -1.699  0.00  0.00    -0.204 NA
ATOM     23  H   UNL     1      -4.650  -7.053  -1.443  0.00  0.00    +0.144 HD
ATOM     24  H   UNL     1      -5.295  -8.191  -2.498  0.00  0.00    +0.144 HD
ENDBRANCH  19  22
ENDBRANCH  16  19
ENDBRANCH   8  13
BRANCH   6  25
ATOM     25  C   UNL     1      -6.421  -1.850   5.754  0.00  0.00    +0.253 C 
ATOM     26  O   UNL     1      -6.274  -1.093   6.695  0.00  0.00    -0.270 OA
ATOM     27  N   UNL     1      -7.429  -2.744   5.759  0.00  0.00    -0.279 N 
ATOM     28  H   UNL     1      -7.516  -3.381   5.033  0.00  0.00    +0.155 HD
BRANCH  27  29
ATOM     29  C   UNL     1      -8.352  -2.752   6.812  0.00  0.00    +0.069 A 
ATOM     30  C   UNL     1      -7.977  -2.298   8.069  0.00  0.00    +0.026 A 
ATOM     31  C   UNL     1      -8.889  -2.307   9.106  0.00  0.00    +0.002 A 
ATOM     32  C   UNL     1     -10.175  -2.769   8.894  0.00  0.00    +0.003 A 
ATOM     33  C   UNL     1     -10.554  -3.223   7.644  0.00  0.00    +0.040 A 
ATOM     34  C   UNL     1      -9.648  -3.210   6.599  0.00  0.00    +0.144 A 
ATOM     35  F   UNL     1     -10.019  -3.648   5.376  0.00  0.00    -0.204 F 
ENDBRANCH  27  29
ENDBRANCH   6  25
BRANCH   1  36
ATOM     36  N   UNL     1      -1.199  -0.817   0.041  0.00  0.00    -0.330 N 
BRANCH  36  38
ATOM     37  C   UNL     1      -0.427   1.399  -0.648  0.00  0.00    +0.024 C 
ATOM     38  C   UNL     1      -0.034   0.070   0.000  0.00  0.00    +0.102 C 
ENDBRANCH  36  38
BRANCH  36  39
ATOM     39  C   UNL     1      -1.470  -1.723  -1.077  0.00  0.00    +0.102 C 
ATOM     40  C   UNL     1      -0.765  -3.059  -0.833  0.00  0.00    +0.024 C 
ENDBRANCH  36  39
ENDBRANCH   1  36
TORSDOF 8
