REMARK  Name = ZINC22821760
REMARK  10 active torsions:
REMARK  status: ('A' for Active; 'I' for Inactive)
REMARK    1  A    between atoms: C_1  and  C_2
REMARK    2  A    between atoms: C_2  and  N_3
REMARK    3  A    between atoms: N_6  and  C_9
REMARK    4  A    between atoms: C_9  and  C_10
REMARK    5  A    between atoms: C_10  and  C_11
REMARK    6  A    between atoms: C_11  and  N_12
REMARK    7  A    between atoms: C_21  and  C_31
REMARK    8  A    between atoms: N_22  and  C_23
REMARK    9  A    between atoms: C_28  and  C_29
REMARK   10  A    between atoms: N_32  and  C_35
REMARK                            x       y       z     vdW  Elec       q    Type
REMARK                         _______ _______ _______ _____ _____    ______ ____
ROOT
ATOM      1  N   UNL     1       7.711   4.533   3.235  0.00  0.00    -0.259 N 
ATOM      2  C   UNL     1       7.292   4.300   1.974  0.00  0.00    +0.283 A 
ATOM      3  O   UNL     1       7.946   4.697   1.025  0.00  0.00    -0.265 OA
ATOM      4  C   UNL     1       6.097   3.593   1.766  0.00  0.00    +0.157 A 
ATOM      5  C   UNL     1       5.368   3.148   2.868  0.00  0.00    +0.170 A 
ATOM      6  N   UNL     1       4.293   2.515   2.408  0.00  0.00    -0.193 NA
ATOM      7  C   UNL     1       4.292   2.530   1.083  0.00  0.00    +0.223 A 
ATOM      8  N   UNL     1       5.391   3.187   0.643  0.00  0.00    -0.277 N 
ATOM      9  C   UNL     1       5.368   3.190  -0.741  0.00  0.00    +0.116 A 
ATOM     10  C   UNL     1       4.279   2.541  -1.143  0.00  0.00    +0.040 A 
ATOM     11  N   UNL     1       3.586   2.124  -0.021  0.00  0.00    -0.282 N 
ATOM     12  C   UNL     1       3.869   2.304  -2.574  0.00  0.00    +0.065 C 
ATOM     13  N   UNL     1       5.851   3.420   4.140  0.00  0.00    -0.279 N 
ATOM     14  C   UNL     1       7.002   4.101   4.292  0.00  0.00    +0.333 A 
ATOM     15  O   UNL     1       7.411   4.331   5.414  0.00  0.00    -0.246 OA
ATOM     16  C   UNL     1       5.107   2.965   5.317  0.00  0.00    +0.155 C 
ENDROOT
BRANCH  11  17
ATOM     17  C   UNL     1       2.382   1.409  -0.013  0.00  0.00    +0.054 A 
ATOM     18  C   UNL     1       1.170   2.088   0.002  0.00  0.00    +0.046 A 
ATOM     19  C   UNL     1      -0.017   1.380   0.010  0.00  0.00    +0.043 A 
ATOM     20  C   UNL     1       0.002  -0.004   0.002  0.00  0.00    +0.020 A 
ATOM     21  C   UNL     1       1.207  -0.682  -0.014  0.00  0.00    +0.007 A 
ATOM     22  C   UNL     1       2.396   0.021  -0.022  0.00  0.00    -0.026 A 
ATOM     23  C   UNL     1       3.709  -0.719  -0.039  0.00  0.00    +0.046 C 
ATOM     24 CL   UNL     1      -1.532   2.227   0.021  0.00  0.00    -0.083 Cl
ENDBRANCH  11  17
BRANCH   1  25
ATOM     25  C   UNL     1       8.957   5.271   3.456  0.00  0.00    +0.131 C 
BRANCH  25  26
ATOM     26  C   UNL     1       8.655   6.768   3.547  0.00  0.00    +0.037 C 
BRANCH  26  27
ATOM     27  C   UNL     1       9.957   7.538   3.778  0.00  0.00    +0.086 C 
BRANCH  27  31
ATOM     28  N   UNL     1       9.995  11.721   3.188  0.00  0.00    +0.381 N 
ATOM     29  C   UNL     1      10.481  11.202   4.474  0.00  0.00    -0.063 C 
ATOM     30  C   UNL     1      10.846   9.724   4.320  0.00  0.00    +0.066 C 
ATOM     31  N   UNL     1       9.666   8.975   3.866  0.00  0.00    -0.306 NA
ATOM     32  C   UNL     1       9.180   9.494   2.579  0.00  0.00    +0.066 C 
ATOM     33  C   UNL     1       8.815  10.972   2.733  0.00  0.00    -0.063 C 
ATOM     34  H   UNL     1      10.792  11.583   2.443  0.00  0.00    -0.082 HD
BRANCH  28  36
ATOM     35  C   UNL     1       9.443  13.712   1.874  0.00  0.00    -0.017 C 
ATOM     36  C   UNL     1       9.704  13.158   3.276  0.00  0.00    -0.082 C 
ENDBRANCH  28  36
ENDBRANCH  27  31
ENDBRANCH  26  27
ENDBRANCH  25  26
ENDBRANCH   1  25
TORSDOF 6
