REMARK  Name = ZINC19354077
REMARK  3 active torsions:
REMARK  status: ('A' for Active; 'I' for Inactive)
REMARK    1  A    between atoms: C_1  and  C_2
REMARK    2  A    between atoms: C_3  and  C_15
REMARK    3  A    between atoms: N_5  and  C_7
REMARK                            x       y       z     vdW  Elec       q    Type
REMARK                         _______ _______ _______ _____ _____    ______ ____
ROOT
ATOM      1  C   UNL     1      -0.005  -0.342  -2.566  0.00  0.00    +0.214 C 
ATOM      2  N   UNL     1      -0.954  -1.147  -3.357  0.00  0.00    -0.293 N 
ATOM      3  C   UNL     1      -0.568  -2.364  -3.854  0.00  0.00    +0.183 C 
ATOM      4  N   UNL     1       0.691  -2.611  -4.171  0.00  0.00    -0.183 NA
ATOM      5  C   UNL     1       1.615  -1.649  -3.935  0.00  0.00    +0.236 A 
ATOM      6  N   UNL     1       1.318  -0.534  -3.171  0.00  0.00    -0.285 N 
ATOM      7  C   UNL     1       2.442   0.257  -3.122  0.00  0.00    +0.076 A 
ATOM      8  C   UNL     1       2.743   1.479  -2.535  0.00  0.00    +0.077 A 
ATOM      9  C   UNL     1       4.008   2.017  -2.677  0.00  0.00    +0.164 A 
ATOM     10  C   UNL     1       4.984   1.344  -3.406  0.00  0.00    +0.164 A 
ATOM     11  C   UNL     1       4.701   0.130  -3.997  0.00  0.00    +0.079 A 
ATOM     12  C   UNL     1       3.426  -0.427  -3.861  0.00  0.00    +0.095 A 
ATOM     13  N   UNL     1       2.863  -1.585  -4.321  0.00  0.00    -0.210 NA
ATOM     14  O   UNL     1       6.228   1.893  -3.533  0.00  0.00    -0.488 OA
ATOM     15  C   UNL     1       6.309   3.082  -4.321  0.00  0.00    +0.232 C 
ATOM     16  C   UNL     1       5.978   4.308  -3.484  0.00  0.00    +0.082 C 
ATOM     17  C   UNL     1       4.538   4.304  -2.997  0.00  0.00    +0.232 C 
ATOM     18  O   UNL     1       4.308   3.218  -2.098  0.00  0.00    -0.488 OA
ATOM     19  N   UNL     1      -1.506  -3.345  -4.025  0.00  0.00    -0.331 N 
ATOM     20  H   UNL     1      -1.850  -0.815  -3.525  0.00  0.00    +0.151 HD
ATOM     21  H   UNL     1      -2.433  -3.175  -3.795  0.00  0.00    +0.145 HD
ATOM     22  H   UNL     1      -1.245  -4.211  -4.376  0.00  0.00    +0.145 HD
ENDROOT
BRANCH   1  25
ATOM     23  C   UNL     1      -0.018   1.503   0.010  0.00  0.00    +0.068 C 
ATOM     24  C   UNL     1       0.002  -0.004   0.002  0.00  0.00    +0.069 A 
ATOM     25  C   UNL     1       0.008  -0.818  -1.136  0.00  0.00    +0.053 A 
ATOM     26  C   UNL     1       0.027  -2.108  -0.726  0.00  0.00    +0.140 A 
ATOM     27  N   UNL     1       0.034  -2.109   0.627  0.00  0.00    -0.221 N 
ATOM     28  N   UNL     1       0.023  -0.777   1.058  0.00  0.00    -0.170 NA
ATOM     29 CL   UNL     1       0.041  -3.509  -1.751  0.00  0.00    -0.061 Cl
BRANCH  27  30
ATOM     30  C   UNL     1       0.053  -3.244   1.452  0.00  0.00    +0.067 A 
ATOM     31  C   UNL     1      -0.618  -4.396   1.064  0.00  0.00    +0.030 A 
ATOM     32  C   UNL     1      -0.598  -5.512   1.877  0.00  0.00    +0.040 A 
ATOM     33  C   UNL     1       0.091  -5.482   3.078  0.00  0.00    +0.124 A 
ATOM     34  C   UNL     1       0.760  -4.334   3.466  0.00  0.00    +0.040 A 
ATOM     35  C   UNL     1       0.747  -3.218   2.653  0.00  0.00    +0.030 A 
ATOM     36  F   UNL     1       0.110  -6.575   3.872  0.00  0.00    -0.205 F 
ENDBRANCH  27  30
ENDBRANCH   1  25
TORSDOF 2
