REMARK  Name = ZINC48183696
REMARK  8 active torsions:
REMARK  status: ('A' for Active; 'I' for Inactive)
REMARK    1  A    between atoms: C_1  and  C_2
REMARK    2  A    between atoms: C_4  and  C_25
REMARK    3  A    between atoms: C_7  and  N_8
REMARK    4  A    between atoms: N_11  and  C_12
REMARK    5  A    between atoms: C_12  and  C_13
REMARK    6  A    between atoms: C_13  and  C_14
REMARK    7  A    between atoms: C_13  and  N_15
REMARK    8  A    between atoms: N_27  and  C_28
REMARK                            x       y       z     vdW  Elec       q    Type
REMARK                         _______ _______ _______ _____ _____    ______ ____
ROOT
ATOM      1  N   UNL     1       0.059  -0.412   2.455  0.00  0.00    -0.269 N 
ATOM      2  C   UNL     1      -0.127  -0.986   3.660  0.00  0.00    +0.304 C 
ATOM      3  O   UNL     1      -0.271  -2.191   3.744  0.00  0.00    -0.253 OA
ATOM      4  N   UNL     1      -0.153  -0.226   4.772  0.00  0.00    -0.301 N 
ATOM      5  H   UNL     1       0.244   0.538   2.394  0.00  0.00    +0.156 HD
ATOM      6  H   UNL     1      -0.039   0.735   4.706  0.00  0.00    +0.150 HD
ENDROOT
BRANCH   1  13
ATOM      7  C   UNL     1      -1.016   0.795   0.118  0.00  0.00    +0.045 C 
ATOM      8  C   UNL     1      -0.535  -0.633   0.128  0.00  0.00    -0.028 A 
ATOM      9  C   UNL     1      -0.604  -1.391  -1.019  0.00  0.00    +0.018 A 
ATOM     10  C   UNL     1      -0.158  -2.715  -1.009  0.00  0.00    +0.037 A 
ATOM     11  C   UNL     1       0.357  -3.266   0.168  0.00  0.00    +0.015 A 
ATOM     12  C   UNL     1       0.424  -2.503   1.311  0.00  0.00    +0.024 A 
ATOM     13  C   UNL     1      -0.016  -1.183   1.296  0.00  0.00    +0.038 A 
BRANCH  10  14
ATOM     14  C   UNL     1      -0.232  -3.530  -2.237  0.00  0.00    +0.244 C 
ATOM     15  O   UNL     1      -0.681  -3.049  -3.260  0.00  0.00    -0.270 OA
ATOM     16  N   UNL     1       0.199  -4.807  -2.225  0.00  0.00    -0.314 N 
ATOM     17  C   UNL     1       0.126  -5.616  -3.445  0.00  0.00    +0.128 C 
ATOM     18  H   UNL     1       0.557  -5.190  -1.410  0.00  0.00    +0.149 HD
ENDBRANCH  10  14
ENDBRANCH   1  13
BRANCH   4  19
ATOM     19  C   UNL     1      -0.355  -0.850   6.082  0.00  0.00    +0.090 C 
BRANCH  19  20
ATOM     20  C   UNL     1      -0.473   0.237   7.152  0.00  0.00    -0.054 C 
ATOM     21  C   UNL     1      -0.776  -0.411   8.505  0.00  0.00    -0.012 C 
BRANCH  20  22
ATOM     22  N   UNL     1      -1.560   1.159   6.796  0.00  0.00    +0.385 N 
ATOM     23  C   UNL     1      -1.621   2.251   7.779  0.00  0.00    -0.073 C 
ATOM     24  C   UNL     1      -2.536   3.348   7.233  0.00  0.00    +0.017 C 
ATOM     25  C   UNL     1      -3.848   2.747   6.796  0.00  0.00    -0.048 A 
ATOM     26  C   UNL     1      -4.931   3.588   6.598  0.00  0.00    +0.004 A 
ATOM     27  C   UNL     1      -6.147   3.074   6.194  0.00  0.00    +0.000 A 
ATOM     28  C   UNL     1      -6.285   1.714   5.987  0.00  0.00    +0.000 A 
ATOM     29  C   UNL     1      -5.206   0.876   6.185  0.00  0.00    +0.002 A 
ATOM     30  C   UNL     1      -3.984   1.390   6.592  0.00  0.00    -0.061 A 
ATOM     31  C   UNL     1      -2.837   0.438   6.805  0.00  0.00    -0.042 C 
ATOM     32  H   UNL     1      -1.393   1.538   5.877  0.00  0.00    -0.081 HD
ENDBRANCH  20  22
ENDBRANCH  19  20
ENDBRANCH   4  19
TORSDOF 5
