REMARK  Name = ZINC39653725
REMARK  8 active torsions:
REMARK  status: ('A' for Active; 'I' for Inactive)
REMARK    1  A    between atoms: C_1  and  C_2
REMARK    2  A    between atoms: C_2  and  O_3
REMARK    3  A    between atoms: O_3  and  C_4
REMARK    4  A    between atoms: C_7  and  C_10
REMARK    5  A    between atoms: C_10  and  C_11
REMARK    6  A    between atoms: C_11  and  N_12
REMARK    7  A    between atoms: C_13  and  C_15
REMARK    8  A    between atoms: C_26  and  C_28
REMARK                            x       y       z     vdW  Elec       q    Type
REMARK                         _______ _______ _______ _____ _____    ______ ____
ROOT
ATOM      1  C   UNL     1      -0.690  -9.747  -4.176  0.00  0.00    +0.100 C 
ATOM      2  C   UNL     1       0.530 -10.364  -4.896  0.00  0.00    +0.121 C 
ATOM      3  N   UNL     1      -0.016 -11.537  -5.619  0.00  0.00    -0.296 N 
ATOM      4  C   UNL     1      -1.329 -11.077  -6.130  0.00  0.00    +0.115 C 
ATOM      5  C   UNL     1      -1.908 -10.216  -4.990  0.00  0.00    -0.004 C 
ATOM      6  C   UNL     1      -2.655  -9.016  -5.562  0.00  0.00    -0.010 C 
ATOM      7  C   UNL     1      -3.894  -9.505  -6.318  0.00  0.00    -0.082 C 
ATOM      8  N   UNL     1      -4.762 -10.256  -5.404  0.00  0.00    +0.379 N 
ATOM      9  C   UNL     1      -4.068 -11.460  -4.930  0.00  0.00    -0.082 C 
ATOM     10  C   UNL     1      -2.836 -11.054  -4.116  0.00  0.00    -0.010 C 
ATOM     11  C   UNL     1       0.553 -12.749  -5.775  0.00  0.00    +0.247 C 
ATOM     12  O   UNL     1       1.581 -13.018  -5.185  0.00  0.00    -0.270 OA
ATOM     13  H   UNL     1      -5.001  -9.675  -4.614  0.00  0.00    -0.086 HD
ATOM     14  H   UNL     1      -5.606 -10.525  -5.888  0.00  0.00    -0.086 HD
ENDROOT
BRANCH  11  15
ATOM     15  C   UNL     1      -0.073 -13.750  -6.664  0.00  0.00    +0.040 A 
ATOM     16  C   UNL     1      -0.970 -13.345  -7.654  0.00  0.00    +0.033 A 
ATOM     17  C   UNL     1      -1.552 -14.285  -8.481  0.00  0.00    +0.043 A 
ATOM     18  C   UNL     1      -1.248 -15.627  -8.330  0.00  0.00    +0.040 A 
ATOM     19  C   UNL     1      -0.360 -16.036  -7.349  0.00  0.00    +0.043 A 
ATOM     20  C   UNL     1       0.233 -15.104  -6.520  0.00  0.00    +0.033 A 
ATOM     21 CL   UNL     1       0.014 -17.721  -7.167  0.00  0.00    -0.083 Cl
ATOM     22 CL   UNL     1      -2.667 -13.783  -9.713  0.00  0.00    -0.083 Cl
ENDBRANCH  11  15
BRANCH   1  24
ATOM     23  N   UNL     1      -1.142  -7.528  -3.181  0.00  0.00    -0.315 N 
ATOM     24  C   UNL     1      -0.600  -8.243  -4.187  0.00  0.00    +0.218 C 
ATOM     25  O   UNL     1      -0.040  -7.675  -5.101  0.00  0.00    -0.275 OA
ATOM     26  H   UNL     1      -1.590  -7.982  -2.450  0.00  0.00    +0.149 HD
BRANCH  23  27
ATOM     27  C   UNL     1      -1.054  -6.066  -3.191  0.00  0.00    +0.109 C 
BRANCH  27  28
ATOM     28  C   UNL     1      -1.744  -5.505  -1.946  0.00  0.00    +0.054 C 
BRANCH  28  32
ATOM     29  C   UNL     1      -1.488  -1.239  -1.976  0.00  0.00    +0.121 A 
ATOM     30  C   UNL     1      -2.568  -1.875  -2.571  0.00  0.00    +0.046 A 
ATOM     31  C   UNL     1      -2.648  -3.254  -2.561  0.00  0.00    +0.007 A 
ATOM     32  C   UNL     1      -1.654  -4.000  -1.956  0.00  0.00    -0.046 A 
ATOM     33  C   UNL     1      -0.577  -3.369  -1.362  0.00  0.00    +0.007 A 
ATOM     34  C   UNL     1      -0.489  -1.991  -1.375  0.00  0.00    +0.046 A 
BRANCH  29  35
ATOM     35  O   UNL     1      -1.407   0.118  -1.985  0.00  0.00    -0.492 OA
BRANCH  35  37
ATOM     36  C   UNL     1      -2.208   2.331  -2.533  0.00  0.00    +0.048 C 
ATOM     37  C   UNL     1      -2.473   0.827  -2.621  0.00  0.00    +0.225 C 
ENDBRANCH  35  37
ENDBRANCH  29  35
ENDBRANCH  28  32
ENDBRANCH  27  28
ENDBRANCH  23  27
ENDBRANCH   1  24
TORSDOF 7
