REMARK  Name = ZINC13165478
REMARK  5 active torsions:
REMARK  status: ('A' for Active; 'I' for Inactive)
REMARK    1  A    between atoms: C_1  and  N_2
REMARK    2  A    between atoms: N_12  and  C_13
REMARK    3  A    between atoms: C_13  and  C_15
REMARK    4  A    between atoms: C_20  and  S_21
REMARK    5  A    between atoms: S_21  and  C_24
REMARK                            x       y       z     vdW  Elec       q    Type
REMARK                         _______ _______ _______ _____ _____    ______ ____
ROOT
ATOM      1  C   UNL     1      -1.295  -5.564   2.150  0.00  0.00    +0.151 C 
ATOM      2  N   UNL     1      -1.893  -4.700   1.128  0.00  0.00    -0.323 N 
ATOM      3  C   UNL     1      -2.870  -5.200   0.287  0.00  0.00    +0.071 A 
ATOM      4  C   UNL     1      -3.363  -4.285  -0.655  0.00  0.00    +0.040 A 
ATOM      5  C   UNL     1      -4.333  -4.619  -1.570  0.00  0.00    +0.017 A 
ATOM      6  C   UNL     1      -4.853  -5.902  -1.577  0.00  0.00    +0.002 A 
ATOM      7  C   UNL     1      -4.386  -6.827  -0.659  0.00  0.00    +0.017 A 
ATOM      8  C   UNL     1      -3.416  -6.494   0.258  0.00  0.00    +0.042 A 
ATOM      9 BR   UNL     1      -2.810  -7.792   1.492  0.00  0.00    -0.048 Br
ATOM     10  S   UNL     1      -2.448  -2.806  -0.303  0.00  0.00    -0.052 S 
ATOM     11  C   UNL     1      -1.489  -3.407   1.011  0.00  0.00    +0.167 A 
ATOM     12  N   UNL     1      -0.575  -2.760   1.727  0.00  0.00    -0.152 NA
ENDROOT
BRANCH  12  13
ATOM     13  C   UNL     1      -0.303  -1.479   1.463  0.00  0.00    +0.271 C 
ATOM     14  O   UNL     1      -0.892  -0.903   0.565  0.00  0.00    -0.268 OA
BRANCH  13  15
ATOM     15  C   UNL     1       0.716  -0.758   2.262  0.00  0.00    +0.064 A 
ATOM     16  C   UNL     1       1.395  -1.416   3.287  0.00  0.00    +0.015 A 
ATOM     17  C   UNL     1       2.338  -0.738   4.032  0.00  0.00    +0.001 A 
ATOM     18  C   UNL     1       2.615   0.590   3.759  0.00  0.00    +0.002 A 
ATOM     19  C   UNL     1       1.948   1.246   2.740  0.00  0.00    +0.028 A 
ATOM     20  C   UNL     1       1.002   0.579   1.988  0.00  0.00    +0.100 A 
BRANCH  20  21
ATOM     21  S   UNL     1       0.154   1.416   0.691  0.00  0.00    -0.005 S 
ATOM     22  O   UNL     1       0.667   2.741   0.719  0.00  0.00    -0.170 OA
ATOM     23  O   UNL     1      -1.223   1.167   0.938  0.00  0.00    -0.170 OA
ATOM     24  C   UNL     1       0.679   0.575  -0.828  0.00  0.00    +0.200 C 
ENDBRANCH  20  21
ENDBRANCH  13  15
ENDBRANCH  12  13
TORSDOF 3
