REMARK  Name = ZINC39884078
REMARK  5 active torsions:
REMARK  status: ('A' for Active; 'I' for Inactive)
REMARK    1  A    between atoms: C_4  and  N_7
REMARK    2  A    between atoms: C_8  and  C_10
REMARK    3  A    between atoms: C_10  and  N_11
REMARK    4  A    between atoms: C_17  and  C_32
REMARK    5  A    between atoms: C_37  and  O_38
REMARK                            x       y       z     vdW  Elec       q    Type
REMARK                         _______ _______ _______ _____ _____    ______ ____
ROOT
ATOM      1  N   UNL     1       4.719  -4.163   0.245  0.00  0.00    -0.288 N 
ATOM      2  C   UNL     1       4.559  -4.757   1.473  0.00  0.00    +0.091 A 
ATOM      3  C   UNL     1       4.328  -6.083   1.448  0.00  0.00    +0.033 A 
ATOM      4  S   UNL     1       4.372  -6.459  -0.290  0.00  0.00    -0.030 S 
ATOM      5  C   UNL     1       4.647  -4.907  -0.874  0.00  0.00    +0.292 A 
ATOM      6  O   UNL     1       4.756  -4.544  -2.032  0.00  0.00    -0.259 OA
ATOM      7  C   UNL     1       4.069  -7.015   2.566  0.00  0.00    +0.075 C 
ATOM      8  C   UNL     1       4.467  -6.531   3.958  0.00  0.00    +0.111 C 
ATOM      9  C   UNL     1       4.089  -5.066   4.214  0.00  0.00    +0.152 C 
ATOM     10  S   UNL     1       4.668  -3.897   3.022  0.00  0.00    -0.093 S 
ATOM     11  C   UNL     1       2.599  -5.124   4.361  0.00  0.00    +0.244 C 
ATOM     12  O   UNL     1       1.800  -4.262   4.080  0.00  0.00    -0.273 OA
ATOM     13  N   UNL     1       2.339  -6.351   4.876  0.00  0.00    -0.162 N 
ATOM     14  C   UNL     1       3.422  -7.202   4.879  0.00  0.00    +0.235 C 
ATOM     15  O   UNL     1       3.549  -8.246   5.473  0.00  0.00    -0.274 OA
ATOM     16  C   UNL     1       1.128  -6.711   5.346  0.00  0.00    +0.313 C 
ATOM     17  O   UNL     1       0.958  -7.826   5.797  0.00  0.00    -0.252 OA
ATOM     18  N   UNL     1       0.106  -5.833   5.317  0.00  0.00    -0.313 N 
ATOM     19  H   UNL     1       0.241  -4.942   4.957  0.00  0.00    +0.147 HD
ATOM     20  H   UNL     1      -0.766  -6.092   5.655  0.00  0.00    +0.147 HD
ENDROOT
BRANCH   7  21
ATOM     21  C   UNL     1       4.809  -8.298   2.287  0.00  0.00    +0.003 A 
ATOM     22  C   UNL     1       6.184  -8.287   2.154  0.00  0.00    +0.008 A 
ATOM     23  C   UNL     1       6.865  -9.463   1.898  0.00  0.00    +0.001 A 
ATOM     24  C   UNL     1       6.171 -10.653   1.775  0.00  0.00    +0.004 A 
ATOM     25  C   UNL     1       4.796 -10.669   1.908  0.00  0.00    +0.046 A 
ATOM     26  C   UNL     1       4.112  -9.491   2.170  0.00  0.00    +0.121 A 
BRANCH  26  27
ATOM     27  O   UNL     1       2.760  -9.505   2.307  0.00  0.00    -0.506 OA
ATOM     28  H   UNL     1       2.279  -9.372   1.479  0.00  0.00    +0.292 HD
ENDBRANCH  26  27
ENDBRANCH   7  21
BRANCH   1  29
ATOM     29  C   UNL     1       4.962  -2.721   0.153  0.00  0.00    +0.222 C 
BRANCH  29  31
ATOM     30  N   UNL     1       3.622  -0.651  -0.037  0.00  0.00    -0.284 N 
ATOM     31  C   UNL     1       3.645  -1.995   0.057  0.00  0.00    +0.237 C 
ATOM     32  O   UNL     1       2.606  -2.620   0.064  0.00  0.00    -0.274 OA
ATOM     33  H   UNL     1       4.452  -0.156  -0.121  0.00  0.00    +0.155 HD
BRANCH  30  37
ATOM     34  C   UNL     1      -0.015   1.381   0.029  0.00  0.00    +0.000 A 
ATOM     35  C   UNL     1       0.140   0.218   0.763  0.00  0.00    +0.002 A 
ATOM     36  C   UNL     1       1.344  -0.457   0.743  0.00  0.00    +0.023 A 
ATOM     37  C   UNL     1       2.400   0.031  -0.015  0.00  0.00    +0.033 A 
ATOM     38  C   UNL     1       2.241   1.198  -0.751  0.00  0.00    +0.023 A 
ATOM     39  C   UNL     1       1.034   1.870  -0.727  0.00  0.00    +0.002 A 
ENDBRANCH  30  37
ENDBRANCH  29  31
ENDBRANCH   1  29
TORSDOF 5
