REMARK  Name = ZINC35397203
REMARK  8 active torsions:
REMARK  status: ('A' for Active; 'I' for Inactive)
REMARK    1  A    between atoms: C_1  and  C_2
REMARK    2  A    between atoms: C_2  and  N_3
REMARK    3  A    between atoms: C_10  and  C_25
REMARK    4  A    between atoms: C_11  and  S_13
REMARK    5  A    between atoms: S_13  and  C_14
REMARK    6  A    between atoms: C_14  and  C_15
REMARK    7  A    between atoms: N_17  and  C_18
REMARK    8  A    between atoms: C_21  and  C_24
REMARK                            x       y       z     vdW  Elec       q    Type
REMARK                         _______ _______ _______ _____ _____    ______ ____
ROOT
ATOM      1  N   UNL     1       0.572  -0.395  -1.085  0.00  0.00    +0.380 N 
ATOM      2  C   UNL     1      -0.195  -0.004  -2.274  0.00  0.00    -0.075 C 
ATOM      3  C   UNL     1       0.566  -0.423  -3.535  0.00  0.00    +0.035 C 
ATOM      4  C   UNL     1       0.771  -1.938  -3.521  0.00  0.00    +0.150 C 
ATOM      5  C   UNL     1       1.494  -2.350  -2.238  0.00  0.00    +0.035 C 
ATOM      6  C   UNL     1       0.698  -1.856  -1.028  0.00  0.00    -0.075 C 
ATOM      7  N   UNL     1      -0.522  -2.622  -3.611  0.00  0.00    -0.251 NA
ATOM      8  C   UNL     1      -0.503  -3.341  -4.693  0.00  0.00    +0.100 C 
ATOM      9  C   UNL     1       0.801  -3.172  -5.377  0.00  0.00    +0.120 C 
ATOM     10  N   UNL     1       1.546  -2.353  -4.693  0.00  0.00    -0.246 NA
ATOM     11  H   UNL     1       1.491   0.019  -1.130  0.00  0.00    -0.082 HD
ENDROOT
BRANCH   8  12
ATOM     12  C   UNL     1      -1.613  -4.197  -5.170  0.00  0.00    +0.003 A 
ATOM     13  C   UNL     1      -1.349  -5.294  -5.992  0.00  0.00    +0.011 A 
ATOM     14  C   UNL     1      -2.386  -6.088  -6.432  0.00  0.00    +0.016 A 
ATOM     15  C   UNL     1      -3.688  -5.800  -6.060  0.00  0.00    +0.018 A 
ATOM     16  C   UNL     1      -3.957  -4.714  -5.245  0.00  0.00    +0.016 A 
ATOM     17  C   UNL     1      -2.927  -3.915  -4.794  0.00  0.00    +0.011 A 
ATOM     18 BR   UNL     1      -5.106  -6.894  -6.669  0.00  0.00    -0.050 Br
ENDBRANCH   8  12
BRANCH   1  20
ATOM     19  C   UNL     1      -0.142   1.612   0.123  0.00  0.00    -0.017 C 
ATOM     20  C   UNL     1      -0.120   0.083   0.120  0.00  0.00    -0.082 C 
ENDBRANCH   1  20
BRANCH   9  21
ATOM     21  S   UNL     1       1.270  -3.959  -6.881  0.00  0.00    -0.095 S 
BRANCH  21  22
ATOM     22  C   UNL     1       2.953  -3.354  -7.187  0.00  0.00    +0.172 C 
BRANCH  22  23
ATOM     23  C   UNL     1       3.480  -3.958  -8.463  0.00  0.00    +0.227 C 
ATOM     24  O   UNL     1       2.789  -4.723  -9.103  0.00  0.00    -0.275 OA
ATOM     25  N   UNL     1       4.720  -3.650  -8.893  0.00  0.00    -0.285 N 
ATOM     26  H   UNL     1       5.301  -3.101  -8.343  0.00  0.00    +0.155 HD
BRANCH  25  27
ATOM     27  C   UNL     1       5.168  -4.121 -10.131  0.00  0.00    +0.033 A 
ATOM     28  C   UNL     1       6.501  -4.472 -10.301  0.00  0.00    +0.023 A 
ATOM     29  C   UNL     1       6.941  -4.937 -11.525  0.00  0.00    +0.005 A 
ATOM     30  C   UNL     1       6.055  -5.053 -12.581  0.00  0.00    -0.050 A 
ATOM     31  C   UNL     1       4.727  -4.705 -12.415  0.00  0.00    +0.005 A 
ATOM     32  C   UNL     1       4.280  -4.245 -11.192  0.00  0.00    +0.023 A 
ATOM     33  C   UNL     1       6.538  -5.561 -13.915  0.00  0.00    +0.044 C 
ENDBRANCH  25  27
ENDBRANCH  22  23
ENDBRANCH  21  22
ENDBRANCH   9  21
TORSDOF 6
