REMARK  Name = ZINC37951971
REMARK  7 active torsions:
REMARK  status: ('A' for Active; 'I' for Inactive)
REMARK    1  A    between atoms: C_1  and  C_2
REMARK    2  A    between atoms: C_2  and  C_3
REMARK    3  A    between atoms: C_3  and  C_4
REMARK    4  A    between atoms: C_3  and  C_11
REMARK    5  A    between atoms: C_3  and  N_14
REMARK    6  A    between atoms: N_14  and  C_15
REMARK    7  A    between atoms: C_15  and  C_16
REMARK                            x       y       z     vdW  Elec       q    Type
REMARK                         _______ _______ _______ _____ _____    ______ ____
ROOT
ATOM      1  C   UNL     1       0.718  -0.497  -1.257  0.00  0.00    +0.036 C 
ENDROOT
BRANCH   1   2
ATOM      2  C   UNL     1       2.165  -0.079  -1.208  0.00  0.00    -0.050 A 
ATOM      3  C   UNL     1       2.682   0.739  -2.195  0.00  0.00    +0.004 A 
ATOM      4  C   UNL     1       4.009   1.123  -2.151  0.00  0.00    +0.020 A 
ATOM      5  C   UNL     1       4.820   0.688  -1.119  0.00  0.00    +0.041 A 
ATOM      6  C   UNL     1       4.303  -0.131  -0.131  0.00  0.00    +0.020 A 
ATOM      7  C   UNL     1       2.974  -0.510  -0.173  0.00  0.00    +0.004 A 
ATOM      8 CL   UNL     1       6.487   1.169  -1.063  0.00  0.00    -0.084 Cl
ENDBRANCH   1   2
BRANCH   1   9
ATOM      9  C   UNL     1       0.632  -2.000  -1.327  0.00  0.00    +0.204 C 
ATOM     10  O   UNL     1       0.484  -2.648  -0.313  0.00  0.00    -0.277 OA
ATOM     11  N   UNL     1       0.718  -2.625  -2.519  0.00  0.00    -0.330 N 
ATOM     12  H   UNL     1       0.836  -2.107  -3.330  0.00  0.00    +0.145 HD
ATOM     13  H   UNL     1       0.662  -3.592  -2.564  0.00  0.00    +0.145 HD
ENDBRANCH   1   9
BRANCH   1  14
ATOM     14  N   UNL     1       0.080   0.086  -2.444  0.00  0.00    +0.394 N 
ATOM     15  H   UNL     1       0.138   1.092  -2.397  0.00  0.00    -0.083 HD
ATOM     16  H   UNL     1       0.552  -0.239  -3.274  0.00  0.00    -0.083 HD
BRANCH  14  17
ATOM     17  C   UNL     1      -1.331  -0.321  -2.492  0.00  0.00    -0.037 C 
BRANCH  17  18
ATOM     18  C   UNL     1      -1.986   0.277  -3.709  0.00  0.00    -0.027 A 
ATOM     19  C   UNL     1      -2.097  -0.237  -4.959  0.00  0.00    +0.009 A 
ATOM     20  C   UNL     1      -2.749   0.499  -5.931  0.00  0.00    +0.008 A 
ATOM     21  C   UNL     1      -3.258   1.712  -5.606  0.00  0.00    +0.045 A 
ATOM     22  S   UNL     1      -2.824   1.845  -3.879  0.00  0.00    -0.104 S 
ENDBRANCH  17  18
ENDBRANCH  14  17
ENDBRANCH   1  14
BRANCH   1  24
ATOM     23  C   UNL     1      -0.019   1.526   0.010  0.00  0.00    +0.003 C 
ATOM     24  C   UNL     1       0.002  -0.004   0.002  0.00  0.00    -0.002 C 
ENDBRANCH   1  24
TORSDOF 6
