REMARK  Name = ZINC09287016
REMARK  4 active torsions:
REMARK  status: ('A' for Active; 'I' for Inactive)
REMARK    1  A    between atoms: C_8  and  S_10
REMARK    2  A    between atoms: S_10  and  C_11
REMARK    3  A    between atoms: C_11  and  C_12
REMARK    4  A    between atoms: N_22  and  C_23
REMARK                            x       y       z     vdW  Elec       q    Type
REMARK                         _______ _______ _______ _____ _____    ______ ____
ROOT
ATOM      1  C   UNL     1       4.726  -6.088  -0.198  0.00  0.00    +0.060 A 
ATOM      2  C   UNL     1       5.232  -6.602  -1.356  0.00  0.00    +0.094 A 
ATOM      3  C   UNL     1       6.053  -7.742  -1.292  0.00  0.00    +0.253 A 
ATOM      4  O   UNL     1       6.523  -8.229  -2.307  0.00  0.00    -0.268 OA
ATOM      5  N   UNL     1       6.312  -8.288  -0.084  0.00  0.00    -0.293 N 
ATOM      6  C   UNL     1       5.779  -7.731   1.037  0.00  0.00    +0.211 A 
ATOM      7  N   UNL     1       5.016  -6.660   0.969  0.00  0.00    -0.218 NA
ATOM      8  N   UNL     1       6.047  -8.293   2.261  0.00  0.00    -0.298 N 
ATOM      9  C   UNL     1       5.650  -7.650   3.417  0.00  0.00    +0.180 C 
ATOM     10  N   UNL     1       6.011  -8.116   4.578  0.00  0.00    -0.371 N 
ATOM     11  N   UNL     1       4.872  -6.517   3.341  0.00  0.00    -0.328 N 
ATOM     12  H   UNL     1       5.661  -7.718   5.390  0.00  0.00    +0.159 HD
ATOM     13  H   UNL     1       4.674  -6.121   2.478  0.00  0.00    +0.169 HD
ATOM     14  H   UNL     1       6.629  -8.861   4.630  0.00  0.00    +0.159 HD
ATOM     15  H   UNL     1       6.515  -9.140   2.315  0.00  0.00    +0.172 HD
ATOM     16  H   UNL     1       6.875  -9.075  -0.016  0.00  0.00    +0.172 HD
ENDROOT
BRANCH  11  17
ATOM     17  C   UNL     1       4.368  -5.936   4.510  0.00  0.00    +0.042 A 
ATOM     18  C   UNL     1       5.202  -5.732   5.601  0.00  0.00    +0.027 A 
ATOM     19  C   UNL     1       4.702  -5.158   6.754  0.00  0.00    +0.022 A 
ATOM     20  C   UNL     1       3.370  -4.786   6.821  0.00  0.00    +0.041 A 
ATOM     21  C   UNL     1       2.537  -4.988   5.735  0.00  0.00    +0.022 A 
ATOM     22  C   UNL     1       3.034  -5.556   4.578  0.00  0.00    +0.027 A 
ATOM     23 CL   UNL     1       2.744  -4.066   8.271  0.00  0.00    -0.084 Cl
ENDBRANCH  11  17
BRANCH   1  24
ATOM     24  C   UNL     1       3.844  -4.867  -0.239  0.00  0.00    +0.132 C 
BRANCH  24  25
ATOM     25  S   UNL     1       2.120  -5.356   0.041  0.00  0.00    -0.093 S 
BRANCH  25  33
ATOM     26  C   UNL     1      -2.371  -0.738   0.034  0.00  0.00    +0.002 A 
ATOM     27  C   UNL     1      -1.457   0.277  -0.209  0.00  0.00    +0.001 A 
ATOM     28  C   UNL     1      -0.116  -0.036  -0.340  0.00  0.00    +0.017 A 
ATOM     29  C   UNL     1       0.288  -1.343  -0.228  0.00  0.00    +0.040 A 
ATOM     30  C   UNL     1      -0.614  -2.402   0.019  0.00  0.00    +0.079 A 
ATOM     31  C   UNL     1      -1.976  -2.046   0.147  0.00  0.00    +0.029 A 
ATOM     32  N   UNL     1      -0.062  -3.633   0.102  0.00  0.00    -0.233 NA
ATOM     33  C   UNL     1       1.228  -3.838  -0.036  0.00  0.00    +0.136 A 
ATOM     34  S   UNL     1       1.849  -2.187  -0.321  0.00  0.00    -0.061 S 
ENDBRANCH  25  33
ENDBRANCH  24  25
ENDBRANCH   1  24
TORSDOF 4
