REMARK  Name = ZINC38036846
REMARK  6 active torsions:
REMARK  status: ('A' for Active; 'I' for Inactive)
REMARK    1  A    between atoms: C_1  and  C_2
REMARK    2  A    between atoms: C_2  and  C_3
REMARK    3  A    between atoms: C_3  and  N_4
REMARK    4  A    between atoms: C_12  and  C_13
REMARK    5  A    between atoms: C_13  and  C_15
REMARK    6  A    between atoms: C_13  and  N_21
REMARK                            x       y       z     vdW  Elec       q    Type
REMARK                         _______ _______ _______ _____ _____    ______ ____
ROOT
ATOM      1  N   UNL     1       0.738  -1.962  -1.265  0.00  0.00    -0.329 N 
ATOM      2  C   UNL     1       1.714  -2.771  -0.717  0.00  0.00    +0.072 A 
ATOM      3  C   UNL     1       2.900  -2.526  -0.037  0.00  0.00    +0.028 A 
ATOM      4  C   UNL     1       3.675  -3.582   0.392  0.00  0.00    +0.005 A 
ATOM      5  C   UNL     1       3.280  -4.890   0.149  0.00  0.00    +0.040 A 
ATOM      6  C   UNL     1       2.108  -5.152  -0.525  0.00  0.00    +0.151 A 
ATOM      7  C   UNL     1       1.308  -4.091  -0.966  0.00  0.00    +0.124 A 
ATOM      8  N   UNL     1       0.131  -4.024  -1.639  0.00  0.00    -0.231 NA
ATOM      9  C   UNL     1      -0.205  -2.779  -1.808  0.00  0.00    +0.097 A 
ATOM     10  F   UNL     1       1.730  -6.428  -0.758  0.00  0.00    -0.203 F 
ENDROOT
BRANCH   1  11
ATOM     11  C   UNL     1       0.718  -0.497  -1.257  0.00  0.00    +0.123 C 
BRANCH  11  13
ATOM     12  C   UNL     1      -0.019   1.526   0.010  0.00  0.00    +0.005 C 
ATOM     13  C   UNL     1       0.002  -0.004   0.002  0.00  0.00    +0.018 C 
ENDBRANCH  11  13
ENDBRANCH   1  11
BRANCH   9  14
ATOM     14  C   UNL     1      -1.454  -2.309  -2.508  0.00  0.00    -0.004 C 
BRANCH  14  15
ATOM     15  C   UNL     1      -1.291  -2.489  -4.019  0.00  0.00    -0.018 C 
ATOM     16  C   UNL     1      -0.095  -1.667  -4.504  0.00  0.00    +0.002 C 
ATOM     17  C   UNL     1       0.068  -1.848  -6.014  0.00  0.00    +0.000 C 
ATOM     18  C   UNL     1      -1.200  -1.371  -6.725  0.00  0.00    +0.000 C 
ATOM     19  C   UNL     1      -2.397  -2.192  -6.240  0.00  0.00    +0.000 C 
ATOM     20  C   UNL     1      -2.560  -2.012  -4.729  0.00  0.00    +0.002 C 
ENDBRANCH  14  15
BRANCH  14  21
ATOM     21  N   UNL     1      -2.603  -3.098  -2.042  0.00  0.00    +0.385 N 
ATOM     22  H   UNL     1      -2.711  -2.979  -1.046  0.00  0.00    -0.089 HD
ATOM     23  H   UNL     1      -3.439  -2.783  -2.510  0.00  0.00    -0.089 HD
ATOM     24  H   UNL     1      -2.448  -4.073  -2.250  0.00  0.00    -0.089 HD
ENDBRANCH  14  21
ENDBRANCH   9  14
TORSDOF 5
