REMARK  Name = ZINC45875273
REMARK  8 active torsions:
REMARK  status: ('A' for Active; 'I' for Inactive)
REMARK    1  A    between atoms: C_1  and  C_2
REMARK    2  A    between atoms: C_2  and  C_3
REMARK    3  A    between atoms: C_2  and  C_4
REMARK    4  A    between atoms: C_2  and  O_5
REMARK    5  A    between atoms: O_5  and  C_6
REMARK    6  A    between atoms: N_8  and  N_9
REMARK    7  A    between atoms: N_12  and  C_13
REMARK    8  A    between atoms: C_13  and  C_14
REMARK                            x       y       z     vdW  Elec       q    Type
REMARK                         _______ _______ _______ _____ _____    ______ ____
ROOT
ATOM      1  N   UNL     1       1.874  -0.825  -3.685  0.00  0.00    -0.216 N 
ATOM      2  C   UNL     1       2.625  -1.425  -4.630  0.00  0.00    +0.316 C 
ATOM      3  O   UNL     1       2.132  -2.270  -5.352  0.00  0.00    -0.251 OA
ATOM      4  N   UNL     1       3.922  -1.089  -4.774  0.00  0.00    -0.294 N 
ATOM      5  H   UNL     1       0.941  -1.067  -3.582  0.00  0.00    +0.174 HD
ATOM      6  H   UNL     1       4.315  -0.415  -4.198  0.00  0.00    +0.151 HD
ENDROOT
BRANCH   1   9
ATOM      7  C   UNL     1       1.691   0.749  -1.908  0.00  0.00    +0.417 C 
ATOM      8  O   UNL     1       2.184   1.593  -1.187  0.00  0.00    -0.225 OA
ATOM      9  N   UNL     1       2.442   0.149  -2.853  0.00  0.00    -0.198 N 
ATOM     10  H   UNL     1       3.376   0.391  -2.957  0.00  0.00    +0.176 HD
BRANCH   7  11
ATOM     11  O   UNL     1       0.395   0.413  -1.764  0.00  0.00    -0.444 OA
BRANCH  11  13
ATOM     12  C   UNL     1      -0.334   2.594  -1.021  0.00  0.00    +0.055 C 
ATOM     13  C   UNL     1      -0.341   1.089  -0.743  0.00  0.00    +0.107 C 
ATOM     14  C   UNL     1       0.308   0.820   0.616  0.00  0.00    +0.055 C 
ATOM     15  C   UNL     1      -1.783   0.579  -0.731  0.00  0.00    +0.055 C 
ENDBRANCH  11  13
ENDBRANCH   7  11
ENDBRANCH   1   9
BRANCH   4  16
ATOM     16  C   UNL     1       4.738  -1.741  -5.801  0.00  0.00    +0.142 C 
BRANCH  16  17
ATOM     17  C   UNL     1       6.140  -1.190  -5.754  0.00  0.00    -0.014 A 
ATOM     18  C   UNL     1       6.483  -0.079  -6.513  0.00  0.00    +0.010 A 
ATOM     19  C   UNL     1       7.780   0.395  -6.441  0.00  0.00    +0.042 A 
ATOM     20  C   UNL     1       8.693  -0.254  -5.614  0.00  0.00    +0.099 A 
ATOM     21  N   UNL     1       8.327  -1.311  -4.906  0.00  0.00    -0.349 N 
ATOM     22  C   UNL     1       7.095  -1.781  -4.951  0.00  0.00    +0.089 A 
ATOM     23  N   UNL     1      10.000   0.211  -5.533  0.00  0.00    -0.317 N 
ATOM     24  C   UNL     1      10.338   1.449  -6.199  0.00  0.00    +0.106 C 
ATOM     25  C   UNL     1      10.782   1.153  -7.652  0.00  0.00    +0.019 C 
ATOM     26  C   UNL     1      12.100   0.501  -7.661  0.00  0.00    +0.002 C 
ATOM     27  C   UNL     1      12.133  -0.859  -6.971  0.00  0.00    +0.002 C 
ATOM     28  C   UNL     1      12.344  -0.664  -5.490  0.00  0.00    +0.019 C 
ATOM     29  C   UNL     1      10.984  -0.576  -4.765  0.00  0.00    +0.106 C 
ATOM     30  H   UNL     1       8.979  -1.748  -4.337  0.00  0.00    +0.167 HD
ENDBRANCH  16  17
ENDBRANCH   4  16
TORSDOF 5
