REMARK  Name = ZINC20908713
REMARK  10 active torsions:
REMARK  status: ('A' for Active; 'I' for Inactive)
REMARK    1  A    between atoms: C_4  and  C_7
REMARK    2  A    between atoms: C_7  and  C_8
REMARK    3  A    between atoms: C_8  and  C_30
REMARK    4  A    between atoms: N_9  and  N_10
REMARK    5  A    between atoms: C_13  and  S_16
REMARK    6  A    between atoms: S_16  and  C_17
REMARK    7  A    between atoms: C_17  and  C_18
REMARK    8  A    between atoms: N_20  and  C_21
REMARK    9  A    between atoms: C_24  and  N_27
REMARK   10  A    between atoms: C_30  and  C_31
REMARK                            x       y       z     vdW  Elec       q    Type
REMARK                         _______ _______ _______ _____ _____    ______ ____
ROOT
ATOM      1  N   UNL     1      -0.012   0.967  -0.019  0.00  0.00    -0.205 N 
ATOM      2  C   UNL     1       1.181   1.677  -0.023  0.00  0.00    +0.232 A 
ATOM      3  N   UNL     1       2.437   1.138  -0.028  0.00  0.00    -0.186 NA
ATOM      4  C   UNL     1       3.338   2.165  -0.032  0.00  0.00    +0.211 A 
ATOM      5  N   UNL     1       2.667   3.292  -0.029  0.00  0.00    -0.144 NA
ATOM      6  N   UNL     1       1.301   2.982  -0.029  0.00  0.00    -0.245 N 
ATOM      7  H   UNL     1       0.003  -0.133  -0.015  0.00  0.00    +0.177 HD
ATOM      8  H   UNL     1       0.402   3.617  -0.032  0.00  0.00    +0.192 HD
ENDROOT
BRANCH   1  10
ATOM      9  C   UNL     1      -2.334   0.996  -0.021  0.00  0.00    +0.045 C 
ATOM     10  N   UNL     1      -1.234   1.651  -0.020  0.00  0.00    -0.188 NA
BRANCH   9  11
ATOM     11  C   UNL     1      -3.649   1.732  -0.022  0.00  0.00    +0.088 C 
BRANCH  11  15
ATOM     12  C   UNL     1      -5.720   0.944  -3.674  0.00  0.00    +0.000 A 
ATOM     13  C   UNL     1      -5.915   0.124  -2.579  0.00  0.00    +0.000 A 
ATOM     14  C   UNL     1      -5.245   0.379  -1.397  0.00  0.00    +0.004 A 
ATOM     15  C   UNL     1      -4.380   1.454  -1.310  0.00  0.00    -0.042 A 
ATOM     16  C   UNL     1      -4.189   2.277  -2.405  0.00  0.00    +0.004 A 
ATOM     17  C   UNL     1      -4.855   2.019  -3.588  0.00  0.00    +0.000 A 
ENDBRANCH  11  15
ENDBRANCH   9  11
BRANCH   9  18
ATOM     18  C   UNL     1      -2.314  -0.511  -0.022  0.00  0.00    +0.088 C 
BRANCH  18  19
ATOM     19  C   UNL     1      -2.309  -1.014   1.398  0.00  0.00    -0.042 A 
ATOM     20  C   UNL     1      -1.109  -1.234   2.049  0.00  0.00    +0.004 A 
ATOM     21  C   UNL     1      -1.104  -1.691   3.354  0.00  0.00    +0.000 A 
ATOM     22  C   UNL     1      -2.299  -1.938   4.004  0.00  0.00    +0.000 A 
ATOM     23  C   UNL     1      -3.498  -1.723   3.352  0.00  0.00    +0.000 A 
ATOM     24  C   UNL     1      -3.503  -1.261   2.049  0.00  0.00    +0.004 A 
ENDBRANCH  18  19
ENDBRANCH   9  18
ENDBRANCH   1  10
BRANCH   4  25
ATOM     25  S   UNL     1       5.093   2.005  -0.038  0.00  0.00    -0.075 S 
BRANCH  25  26
ATOM     26  C   UNL     1       5.690   3.717  -0.040  0.00  0.00    +0.173 C 
BRANCH  26  27
ATOM     27  C   UNL     1       7.197   3.724  -0.046  0.00  0.00    +0.227 C 
ATOM     28  O   UNL     1       7.808   2.676  -0.048  0.00  0.00    -0.275 OA
ATOM     29  N   UNL     1       7.866   4.894  -0.048  0.00  0.00    -0.285 N 
ATOM     30  H   UNL     1       7.314   5.843  -0.123  0.00  0.00    +0.155 HD
BRANCH  29  31
ATOM     31  C   UNL     1       9.262   4.902   0.044  0.00  0.00    +0.034 A 
ATOM     32  C   UNL     1       9.908   5.919   0.735  0.00  0.00    +0.025 A 
ATOM     33  C   UNL     1      11.286   5.920   0.829  0.00  0.00    +0.034 A 
ATOM     34  C   UNL     1      12.023   4.917   0.227  0.00  0.00    +0.126 A 
ATOM     35  C   UNL     1      11.383   3.906  -0.466  0.00  0.00    +0.034 A 
ATOM     36  C   UNL     1      10.005   3.895  -0.559  0.00  0.00    +0.025 A 
BRANCH  34  37
ATOM     37  N   UNL     1      13.500   4.925   0.325  0.00  0.00    +0.056 N 
ATOM     38  O   UNL     1      14.150   4.042  -0.204  0.00  0.00    -0.126 OA
ATOM     39  O   UNL     1      14.065   5.815   0.935  0.00  0.00    -0.126 OA
ENDBRANCH  34  37
ENDBRANCH  29  31
ENDBRANCH  26  27
ENDBRANCH  25  26
ENDBRANCH   4  25
TORSDOF 10
