REMARK  Name = ZINC13098662
REMARK  8 active torsions:
REMARK  status: ('A' for Active; 'I' for Inactive)
REMARK    1  A    between atoms: C_1  and  C_2
REMARK    2  A    between atoms: C_2  and  O_3
REMARK    3  A    between atoms: O_3  and  C_4
REMARK    4  A    between atoms: C_4  and  C_6
REMARK    5  A    between atoms: C_7  and  C_19
REMARK    6  A    between atoms: C_12  and  C_14
REMARK    7  A    between atoms: C_19  and  N_51
REMARK    8  A    between atoms: C_24  and  C_26
REMARK                            x       y       z     vdW  Elec       q    Type
REMARK                         _______ _______ _______ _____ _____    ______ ____
ROOT
ATOM      1  C   UNL     1      -0.187  -4.692  -2.393  0.00  0.00    +0.077 C 
ATOM      2  C   UNL     1       0.174  -3.940  -1.331  0.00  0.00    +0.008 C 
ATOM      3  N   UNL     1       0.885  -4.477  -0.296  0.00  0.00    -0.274 N 
ATOM      4  C   UNL     1       1.277  -5.757  -0.250  0.00  0.00    +0.304 C 
ATOM      5  O   UNL     1       1.907  -6.144   0.715  0.00  0.00    -0.252 OA
ATOM      6  N   UNL     1       0.997  -6.629  -1.238  0.00  0.00    -0.288 N 
ATOM      7  C   UNL     1       0.233  -6.148  -2.402  0.00  0.00    +0.150 C 
ATOM      8  H   UNL     1       1.119  -3.900   0.447  0.00  0.00    +0.156 HD
ATOM      9  H   UNL     1       1.291  -7.552  -1.184  0.00  0.00    +0.151 HD
ENDROOT
BRANCH   7  10
ATOM     10  C   UNL     1       1.065  -6.389  -3.635  0.00  0.00    +0.015 A 
ATOM     11  C   UNL     1       0.672  -6.819  -4.859  0.00  0.00    +0.013 A 
ATOM     12  C   UNL     1       1.621  -6.969  -5.853  0.00  0.00    +0.008 A 
ATOM     13  C   UNL     1       2.916  -6.681  -5.575  0.00  0.00    +0.045 A 
ATOM     14  S   UNL     1       2.822  -6.175  -3.866  0.00  0.00    -0.099 S 
ENDBRANCH   7  10
BRANCH   1  15
ATOM     15  C   UNL     1      -0.928  -4.139  -3.464  0.00  0.00    +0.339 C 
ATOM     16  O   UNL     1      -2.117  -4.376  -3.568  0.00  0.00    -0.245 OA
BRANCH  15  17
ATOM     17  O   UNL     1      -0.316  -3.347  -4.369  0.00  0.00    -0.462 OA
BRANCH  17  19
ATOM     18  C   UNL     1      -0.265  -1.954  -6.344  0.00  0.00    +0.048 C 
ATOM     19  C   UNL     1      -1.126  -2.822  -5.423  0.00  0.00    +0.229 C 
ENDBRANCH  17  19
ENDBRANCH  15  17
ENDBRANCH   1  15
BRANCH   2  20
ATOM     20  C   UNL     1      -0.218  -2.486  -1.285  0.00  0.00    -0.025 C 
BRANCH  20  26
ATOM     21  C   UNL     1      -2.404  -3.002  -0.381  0.00  0.00    -0.077 C 
ATOM     22  C   UNL     1      -3.289  -2.868   0.860  0.00  0.00    -0.019 C 
ATOM     23  C   UNL     1      -3.582  -1.387   1.114  0.00  0.00    -0.003 C 
ATOM     24  C   UNL     1      -2.259  -0.634   1.281  0.00  0.00    -0.006 C 
ATOM     25  C   UNL     1      -1.403  -0.833   0.028  0.00  0.00    +0.019 C 
ATOM     26  N   UNL     1      -1.137  -2.277  -0.147  0.00  0.00    +0.391 N 
ATOM     27  H   UNL     1      -0.698  -2.640   0.707  0.00  0.00    -0.080 HD
BRANCH  25  28
ATOM     28  C   UNL     1      -0.092  -0.110   0.196  0.00  0.00    +0.197 C 
ATOM     29  O   UNL     1       0.856  -0.682   0.692  0.00  0.00    -0.278 OA
ATOM     30  N   UNL     1       0.028   1.171  -0.206  0.00  0.00    -0.331 N 
ATOM     31  H   UNL     1       0.872   1.636  -0.098  0.00  0.00    +0.145 HD
ATOM     32  H   UNL     1      -0.729   1.626  -0.606  0.00  0.00    +0.145 HD
ENDBRANCH  25  28
ENDBRANCH  20  26
ENDBRANCH   2  20
TORSDOF 7
