REMARK  Name = ZINC27366536
REMARK  11 active torsions:
REMARK  status: ('A' for Active; 'I' for Inactive)
REMARK    1  A    between atoms: C_1  and  C_2
REMARK    2  A    between atoms: C_2  and  C_4
REMARK    3  A    between atoms: C_2  and  N_13
REMARK    4  A    between atoms: N_9  and  C_10
REMARK    5  A    between atoms: N_13  and  C_14
REMARK    6  A    between atoms: N_13  and  C_15
REMARK    7  A    between atoms: C_15  and  C_16
REMARK    8  A    between atoms: N_18  and  C_19
REMARK    9  A    between atoms: C_19  and  C_20
REMARK   10  A    between atoms: C_19  and  C_21
REMARK   11  A    between atoms: C_19  and  C_22
REMARK                            x       y       z     vdW  Elec       q    Type
REMARK                         _______ _______ _______ _____ _____    ______ ____
ROOT
ATOM      1  C   UNL     1       1.712  -4.512  -0.738  0.00  0.00    -0.004 C 
ATOM      2  C   UNL     1       2.408  -3.984   0.517  0.00  0.00    +0.017 C 
ENDROOT
BRANCH   2   3
ATOM      3  C   UNL     1       1.626  -4.397   1.737  0.00  0.00    +0.207 C 
ATOM      4  O   UNL     1       2.037  -5.289   2.448  0.00  0.00    -0.277 OA
ATOM      5  N   UNL     1       0.468  -3.776   2.038  0.00  0.00    -0.242 N 
ATOM      6  C   UNL     1      -0.232  -4.145   3.129  0.00  0.00    +0.306 C 
ATOM      7  O   UNL     1       0.181  -5.039   3.841  0.00  0.00    -0.252 OA
ATOM      8  N   UNL     1      -1.389  -3.524   3.429  0.00  0.00    -0.296 N 
ATOM      9  H   UNL     1       0.095  -2.967   1.393  0.00  0.00    +0.159 HD
ATOM     10  H   UNL     1      -1.763  -2.715   2.784  0.00  0.00    +0.151 HD
BRANCH   8  11
ATOM     11  C   UNL     1      -2.150  -3.926   4.615  0.00  0.00    +0.075 C 
ATOM     12  C   UNL     1      -3.666  -4.070   4.467  0.00  0.00    +0.024 C 
ATOM     13  C   UNL     1      -3.081  -2.887   5.242  0.00  0.00    +0.024 C 
ENDBRANCH   8  11
ENDBRANCH   2   3
BRANCH   2  14
ATOM     14  N   UNL     1       3.766  -4.540   0.595  0.00  0.00    +0.391 N 
ATOM     15  C   UNL     1       4.665  -3.865  -0.350  0.00  0.00    -0.094 C 
ATOM     16  H   UNL     1       4.147  -4.361   1.611  0.00  0.00    -0.080 HD
BRANCH  14  17
ATOM     17  C   UNL     1       3.754  -5.991   0.366  0.00  0.00    +0.019 C 
BRANCH  17  18
ATOM     18  C   UNL     1       5.110  -6.561   0.693  0.00  0.00    +0.197 C 
ATOM     19  O   UNL     1       5.999  -5.831   1.078  0.00  0.00    -0.278 OA
ATOM     20  N   UNL     1       5.336  -7.883   0.557  0.00  0.00    -0.312 N 
ATOM     21  H   UNL     1       4.530  -8.546   0.207  0.00  0.00    +0.149 HD
BRANCH  20  22
ATOM     22  C   UNL     1       6.654  -8.438   0.874  0.00  0.00    +0.026 C 
ATOM     23  C   UNL     1       6.987  -8.155   2.341  0.00  0.00    +0.031 C 
ATOM     24  C   UNL     1       6.642  -9.949   0.636  0.00  0.00    +0.031 C 
ATOM     25  C   UNL     1       7.710  -7.788  -0.023  0.00  0.00    +0.031 C 
ENDBRANCH  20  22
ENDBRANCH  17  18
ENDBRANCH  14  17
ENDBRANCH   2  14
TORSDOF 6
