REMARK  Name = ZINC08752991
REMARK  5 active torsions:
REMARK  status: ('A' for Active; 'I' for Inactive)
REMARK    1  A    between atoms: C_3  and  N_21
REMARK    2  A    between atoms: C_4  and  N_8
REMARK    3  A    between atoms: C_9  and  C_11
REMARK    4  A    between atoms: C_11  and  N_44
REMARK    5  A    between atoms: C_16  and  C_18
REMARK                            x       y       z     vdW  Elec       q    Type
REMARK                         _______ _______ _______ _____ _____    ______ ____
ROOT
ATOM      1  N   UNL     1      -1.521   0.233  -1.707  0.00  0.00    -0.285 N 
ATOM      2  C   UNL     1      -0.321   0.186  -1.094  0.00  0.00    +0.201 C 
ATOM      3  O   UNL     1       0.264  -0.871  -0.988  0.00  0.00    -0.278 OA
ATOM      4  H   UNL     1      -1.955   1.087  -1.857  0.00  0.00    +0.155 HD
ENDROOT
BRANCH   1   8
ATOM      5  C   UNL     1      -3.363  -3.293  -2.961  0.00  0.00    +0.022 A 
ATOM      6  C   UNL     1      -3.562  -2.125  -3.672  0.00  0.00    +0.031 A 
ATOM      7  C   UNL     1      -2.953  -0.949  -3.260  0.00  0.00    +0.088 A 
ATOM      8  C   UNL     1      -2.139  -0.950  -2.127  0.00  0.00    +0.060 A 
ATOM      9  C   UNL     1      -1.939  -2.128  -1.422  0.00  0.00    +0.045 A 
ATOM     10  C   UNL     1      -2.556  -3.294  -1.837  0.00  0.00    +0.043 A 
ATOM     11 CL   UNL     1      -2.310  -4.766  -0.949  0.00  0.00    -0.083 Cl
BRANCH   7  12
ATOM     12  N   UNL     1      -3.155   0.237  -3.980  0.00  0.00    -0.218 N 
ATOM     13  C   UNL     1      -3.982   0.415  -5.028  0.00  0.00    +0.225 A 
ATOM     14  N   UNL     1      -3.884   1.662  -5.415  0.00  0.00    -0.222 NA
ATOM     15  C   UNL     1      -3.003   2.305  -4.649  0.00  0.00    +0.245 A 
ATOM     16  N   UNL     1      -2.529   1.475  -3.756  0.00  0.00    -0.153 NA
ENDBRANCH   7  12
ENDBRANCH   1   8
BRANCH   2  17
ATOM     17  C   UNL     1       0.295   1.447  -0.545  0.00  0.00    +0.020 C 
BRANCH  17  23
ATOM     18  C   UNL     1       1.304   0.165   1.243  0.00  0.00    -0.077 C 
ATOM     19  C   UNL     1       2.596  -0.043   2.037  0.00  0.00    -0.019 C 
ATOM     20  C   UNL     1       3.684  -0.575   1.100  0.00  0.00    -0.003 C 
ATOM     21  C   UNL     1       3.882   0.413  -0.053  0.00  0.00    -0.006 C 
ATOM     22  C   UNL     1       2.553   0.607  -0.786  0.00  0.00    +0.020 C 
ATOM     23  N   UNL     1       1.555   1.144   0.164  0.00  0.00    +0.393 N 
ATOM     24  H   UNL     1       1.921   2.009   0.578  0.00  0.00    -0.080 HD
BRANCH  22  25
ATOM     25  C   UNL     1       2.739   1.594  -1.909  0.00  0.00    +0.197 C 
ATOM     26  O   UNL     1       2.471   2.764  -1.739  0.00  0.00    -0.278 OA
ATOM     27  N   UNL     1       3.202   1.175  -3.104  0.00  0.00    -0.331 N 
ATOM     28  H   UNL     1       3.416   0.239  -3.240  0.00  0.00    +0.145 HD
ATOM     29  H   UNL     1       3.321   1.811  -3.827  0.00  0.00    +0.145 HD
ENDBRANCH  22  25
ENDBRANCH  17  23
ENDBRANCH   2  17
TORSDOF 5
