REMARK  Name = ZINC41732770
REMARK  8 active torsions:
REMARK  status: ('A' for Active; 'I' for Inactive)
REMARK    1  A    between atoms: C_1  and  C_2
REMARK    2  A    between atoms: C_2  and  C_3
REMARK    3  A    between atoms: C_8  and  N_9
REMARK    4  A    between atoms: C_10  and  C_12
REMARK    5  A    between atoms: N_14  and  C_15
REMARK    6  A    between atoms: C_15  and  C_16
REMARK    7  A    between atoms: C_16  and  C_17
REMARK    8  A    between atoms: C_17  and  N_18
REMARK                            x       y       z     vdW  Elec       q    Type
REMARK                         _______ _______ _______ _____ _____    ______ ____
ROOT
ATOM      1  C   UNL     1      -1.459  -0.275  -4.851  0.00  0.00    +0.299 C 
ATOM      2  O   UNL     1      -0.320   0.145  -4.858  0.00  0.00    -0.265 OA
ATOM      3  N   UNL     1      -2.101  -0.502  -6.014  0.00  0.00    -0.308 N 
ATOM      4  H   UNL     1      -3.011  -0.838  -6.009  0.00  0.00    +0.149 HD
ENDROOT
BRANCH   1   6
ATOM      5  N   UNL     1      -1.507  -0.315  -2.390  0.00  0.00    -0.278 N 
ATOM      6  C   UNL     1      -2.149  -0.541  -3.553  0.00  0.00    +0.303 C 
ATOM      7  O   UNL     1      -3.287  -0.962  -3.546  0.00  0.00    -0.265 OA
ATOM      8  H   UNL     1      -0.622   0.082  -2.394  0.00  0.00    +0.155 HD
BRANCH   5  14
ATOM      9  C   UNL     1      -1.349  -1.121  -0.120  0.00  0.00    -0.026 A 
ATOM     10  C   UNL     1      -1.954  -1.448   1.078  0.00  0.00    +0.005 A 
ATOM     11  C   UNL     1      -3.322  -1.314   1.222  0.00  0.00    +0.000 A 
ATOM     12  C   UNL     1      -4.090  -0.853   0.168  0.00  0.00    +0.002 A 
ATOM     13  C   UNL     1      -3.492  -0.525  -1.032  0.00  0.00    +0.023 A 
ATOM     14  C   UNL     1      -2.116  -0.652  -1.179  0.00  0.00    +0.037 A 
BRANCH   9  16
ATOM     15  C   UNL     1       0.821   0.072   0.018  0.00  0.00    +0.009 C 
ATOM     16  C   UNL     1       0.143  -1.267  -0.277  0.00  0.00    +0.033 C 
ENDBRANCH   9  16
ENDBRANCH   5  14
ENDBRANCH   1   6
BRANCH   3  17
ATOM     17  C   UNL     1      -1.424  -0.241  -7.287  0.00  0.00    +0.103 C 
BRANCH  17  18
ATOM     18  C   UNL     1      -2.367  -0.578  -8.444  0.00  0.00    +0.000 C 
BRANCH  18  19
ATOM     19  C   UNL     1      -1.660  -0.305  -9.774  0.00  0.00    -0.077 C 
BRANCH  19  20
ATOM     20  N   UNL     1      -2.565  -0.629 -10.885  0.00  0.00    +0.383 N 
ATOM     21  C   UNL     1      -1.852  -0.471 -12.162  0.00  0.00    -0.074 C 
ATOM     22  C   UNL     1      -2.696  -1.099 -13.272  0.00  0.00    +0.017 C 
ATOM     23  C   UNL     1      -4.105  -0.568 -13.204  0.00  0.00    -0.048 A 
ATOM     24  C   UNL     1      -4.932  -0.733 -14.304  0.00  0.00    +0.004 A 
ATOM     25  C   UNL     1      -6.230  -0.263 -14.277  0.00  0.00    +0.000 A 
ATOM     26  C   UNL     1      -6.707   0.376 -13.147  0.00  0.00    +0.000 A 
ATOM     27  C   UNL     1      -5.883   0.542 -12.051  0.00  0.00    +0.002 A 
ATOM     28  C   UNL     1      -4.579   0.071 -12.078  0.00  0.00    -0.061 A 
ATOM     29  C   UNL     1      -3.713   0.281 -10.863  0.00  0.00    -0.043 C 
ATOM     30  H   UNL     1      -2.887  -1.581 -10.791  0.00  0.00    -0.081 HD
ENDBRANCH  19  20
ENDBRANCH  18  19
ENDBRANCH  17  18
ENDBRANCH   3  17
TORSDOF 7
