REMARK  Name = ZINC09089905
REMARK  12 active torsions:
REMARK  status: ('A' for Active; 'I' for Inactive)
REMARK    1  A    between atoms: C_1  and  C_2
REMARK    2  A    between atoms: C_2  and  N_3
REMARK    3  A    between atoms: N_3  and  C_4
REMARK    4  A    between atoms: N_3  and  C_6
REMARK    5  A    between atoms: C_4  and  C_5
REMARK    6  A    between atoms: C_9  and  C_12
REMARK    7  A    between atoms: C_20  and  O_35
REMARK    8  A    between atoms: C_23  and  C_24
REMARK    9  A    between atoms: C_23  and  N_73
REMARK   10  A    between atoms: N_26  and  C_27
REMARK   11  A    between atoms: C_30  and  O_33
REMARK   12  A    between atoms: O_33  and  C_34
REMARK                            x       y       z     vdW  Elec       q    Type
REMARK                         _______ _______ _______ _____ _____    ______ ____
ROOT
ATOM      1  C   UNL     1       3.635   6.124   3.742  0.00  0.00    -0.031 C 
ATOM      2  C   UNL     1       3.378   6.225   5.246  0.00  0.00    +0.011 C 
ATOM      3  C   UNL     1       2.215   7.179   5.516  0.00  0.00    +0.005 C 
ATOM      4  C   UNL     1       1.979   7.273   7.026  0.00  0.00    +0.000 C 
ATOM      5  C   UNL     1       1.646   5.887   7.581  0.00  0.00    +0.003 C 
ATOM      6  C   UNL     1       2.805   4.928   7.300  0.00  0.00    +0.035 C 
ATOM      7  C   UNL     1       3.030   4.836   5.790  0.00  0.00    +0.066 C 
ATOM      8  C   UNL     1       4.184   3.877   5.491  0.00  0.00    +0.016 C 
ATOM      9  C   UNL     1       4.427   3.843   3.979  0.00  0.00    -0.075 C 
ATOM     10  N   UNL     1       4.771   5.204   3.513  0.00  0.00    +0.390 N 
ATOM     11  H   UNL     1       5.584   5.541   4.042  0.00  0.00    -0.080 HD
ENDROOT
BRANCH   1  15
ATOM     12  C   UNL     1       0.115   4.689   1.788  0.00  0.00    +0.030 A 
ATOM     13  C   UNL     1       1.304   3.977   1.692  0.00  0.00    +0.023 A 
ATOM     14  C   UNL     1       2.441   4.447   2.320  0.00  0.00    +0.004 A 
ATOM     15  C   UNL     1       2.394   5.619   3.053  0.00  0.00    -0.060 A 
ATOM     16  C   UNL     1       1.211   6.327   3.155  0.00  0.00    +0.004 A 
ATOM     17  C   UNL     1       0.072   5.866   2.525  0.00  0.00    +0.023 A 
BRANCH  12  18
ATOM     18  N   UNL     1      -1.035   4.220   1.150  0.00  0.00    -0.330 N 
BRANCH  18  20
ATOM     19  C   UNL     1      -0.623   3.299  -1.078  0.00  0.00    +0.024 C 
ATOM     20  C   UNL     1      -0.987   2.979   0.373  0.00  0.00    +0.102 C 
ENDBRANCH  18  20
BRANCH  18  21
ATOM     21  C   UNL     1      -2.290   4.969   1.258  0.00  0.00    +0.102 C 
ATOM     22  C   UNL     1      -3.074   4.477   2.476  0.00  0.00    +0.024 C 
ENDBRANCH  18  21
ENDBRANCH  12  18
ENDBRANCH   1  15
BRANCH   7  23
ATOM     23  O   UNL     1       1.839   4.361   5.160  0.00  0.00    -0.388 OA
ATOM     24  H   UNL     1       1.563   3.482   5.453  0.00  0.00    +0.210 HD
ENDBRANCH   7  23
BRANCH  10  25
ATOM     25  C   UNL     1       5.113   5.172   2.077  0.00  0.00    +0.020 C 
BRANCH  25  26
ATOM     26  C   UNL     1       6.468   4.533   1.918  0.00  0.00    +0.201 C 
ATOM     27  O   UNL     1       7.069   4.134   2.893  0.00  0.00    -0.278 OA
ATOM     28  N   UNL     1       7.013   4.405   0.692  0.00  0.00    -0.287 N 
ATOM     29  H   UNL     1       6.566   4.786  -0.080  0.00  0.00    +0.155 HD
BRANCH  28  30
ATOM     30  C   UNL     1       8.226   3.721   0.532  0.00  0.00    +0.034 A 
ATOM     31  C   UNL     1       9.209   3.813   1.508  0.00  0.00    +0.027 A 
ATOM     32  C   UNL     1      10.402   3.134   1.352  0.00  0.00    +0.047 A 
ATOM     33  C   UNL     1      10.622   2.370   0.216  0.00  0.00    +0.120 A 
ATOM     34  C   UNL     1       9.642   2.281  -0.762  0.00  0.00    +0.047 A 
ATOM     35  C   UNL     1       8.446   2.955  -0.605  0.00  0.00    +0.027 A 
BRANCH  33  36
ATOM     36  O   UNL     1      11.798   1.706   0.061  0.00  0.00    -0.495 OA
ATOM     37  C   UNL     1      12.762   1.842   1.107  0.00  0.00    +0.277 C 
ENDBRANCH  33  36
ENDBRANCH  28  30
ENDBRANCH  25  26
ENDBRANCH  10  25
TORSDOF 9
