REMARK  Name = ZINC35644679
REMARK  12 active torsions:
REMARK  status: ('A' for Active; 'I' for Inactive)
REMARK    1  A    between atoms: C_1  and  C_2
REMARK    2  A    between atoms: C_1  and  O_36
REMARK    3  A    between atoms: C_4  and  O_14
REMARK    4  A    between atoms: C_6  and  O_13
REMARK    5  A    between atoms: C_8  and  C_11
REMARK    6  A    between atoms: O_14  and  C_15
REMARK    7  A    between atoms: C_17  and  O_31
REMARK    8  A    between atoms: C_19  and  O_30
REMARK    9  A    between atoms: C_21  and  O_29
REMARK   10  A    between atoms: C_23  and  C_26
REMARK   11  A    between atoms: O_31  and  S_32
REMARK   12  A    between atoms: O_36  and  S_37
REMARK                            x       y       z     vdW  Elec       q    Type
REMARK                         _______ _______ _______ _____ _____    ______ ____
ROOT
ATOM      1  C   UNL     1      -3.695   0.269   0.098  0.00  0.00    +0.286 C 
ATOM      2  C   UNL     1      -4.569   1.360   0.722  0.00  0.00    +0.238 C 
ATOM      3  C   UNL     1      -4.079   2.731   0.247  0.00  0.00    +0.182 C 
ATOM      4  C   UNL     1      -4.106   2.768  -1.284  0.00  0.00    +0.186 C 
ATOM      5  C   UNL     1      -3.250   1.623  -1.831  0.00  0.00    +0.265 C 
ATOM      6  O   UNL     1      -3.741   0.380  -1.326  0.00  0.00    -0.331 OA
ENDROOT
BRANCH   5   7
ATOM      7  C   UNL     1      -3.319   1.617  -3.336  0.00  0.00    +0.387 C 
ATOM      8  O   UNL     1      -2.862   2.553  -3.971  0.00  0.00    -0.243 OA
ATOM      9  O   UNL     1      -3.832   0.677  -3.919  0.00  0.00    -0.243 OA
ENDBRANCH   5   7
BRANCH   4  10
ATOM     10  O   UNL     1      -5.452   2.620  -1.741  0.00  0.00    -0.386 OA
ATOM     11  H   UNL     1      -5.544   2.634  -2.704  0.00  0.00    +0.210 HD
ENDBRANCH   4  10
BRANCH   3  12
ATOM     12  O   UNL     1      -4.933   3.751   0.767  0.00  0.00    -0.386 OA
ATOM     13  H   UNL     1      -4.680   4.647   0.505  0.00  0.00    +0.210 HD
ENDBRANCH   3  12
BRANCH   1  14
ATOM     14  O   UNL     1      -2.347   0.426   0.545  0.00  0.00    -0.340 OA
BRANCH  14  16
ATOM     15  C   UNL     1      -0.017  -0.242   0.193  0.00  0.00    +0.179 C 
ATOM     16  C   UNL     1      -1.498  -0.679   0.229  0.00  0.00    +0.184 C 
ATOM     17  C   UNL     1      -1.503  -1.731   1.372  0.00  0.00    +0.182 C 
ATOM     18  C   UNL     1      -0.437  -1.133   2.326  0.00  0.00    +0.212 C 
ATOM     19  O   UNL     1       0.562  -0.563   1.462  0.00  0.00    -0.358 OA
BRANCH  18  20
ATOM     20  C   UNL     1       0.166  -2.217   3.181  0.00  0.00    +0.257 C 
ATOM     21  O   UNL     1       1.353  -2.437   3.130  0.00  0.00    -0.298 OA
ENDBRANCH  18  20
BRANCH  17  22
ATOM     22  O   UNL     1      -1.103  -3.016   0.892  0.00  0.00    -0.386 OA
ATOM     23  H   UNL     1      -1.091  -3.703   1.572  0.00  0.00    +0.210 HD
ENDBRANCH  17  22
BRANCH  15  24
ATOM     24  C   UNL     1       0.073   1.265  -0.053  0.00  0.00    +0.230 C 
BRANCH  24  25
ATOM     25  O   UNL     1       1.445   1.651  -0.151  0.00  0.00    -0.211 OA
BRANCH  25  26
ATOM     26  S   UNL     1       1.654   3.138  -0.397  0.00  0.00    +0.238 S 
ATOM     27  O   UNL     1       3.034   3.306  -0.825  0.00  0.00    -0.116 OA
ATOM     28  O   UNL     1       0.712   3.532  -1.433  0.00  0.00    -0.116 OA
ATOM     29  O   UNL     1       1.391   3.815   0.864  0.00  0.00    -0.022 OA
ENDBRANCH  25  26
ENDBRANCH  24  25
ENDBRANCH  15  24
ENDBRANCH  14  16
ENDBRANCH   1  14
BRANCH   2  30
ATOM     30  O   UNL     1      -5.928   1.171   0.319  0.00  0.00    -0.203 OA
BRANCH  30  31
ATOM     31  S   UNL     1      -6.765   0.382   1.315  0.00  0.00    +0.239 S 
ATOM     32  O   UNL     1      -7.975  -0.027   0.619  0.00  0.00    -0.116 OA
ATOM     33  O   UNL     1      -5.964  -0.760   1.728  0.00  0.00    -0.116 OA
ATOM     34  O   UNL     1      -7.053   1.274   2.427  0.00  0.00    -0.022 OA
ENDBRANCH  30  31
ENDBRANCH   2  30
TORSDOF 12
