REMARK  Name = ZINC66402109
REMARK  8 active torsions:
REMARK  status: ('A' for Active; 'I' for Inactive)
REMARK    1  A    between atoms: C_1  and  C_2
REMARK    2  A    between atoms: N_7  and  C_9
REMARK    3  A    between atoms: C_9  and  C_10
REMARK    4  A    between atoms: C_9  and  C_11
REMARK    5  A    between atoms: C_9  and  C_12
REMARK    6  A    between atoms: C_12  and  N_13
REMARK    7  A    between atoms: N_16  and  C_17
REMARK    8  A    between atoms: C_19  and  C_25
REMARK                            x       y       z     vdW  Elec       q    Type
REMARK                         _______ _______ _______ _____ _____    ______ ____
ROOT
ATOM      1  N   UNL     1      -0.096  -4.395   2.451  0.00  0.00    -0.300 N 
ATOM      2  C   UNL     1      -0.453  -5.690   2.551  0.00  0.00    +0.304 C 
ATOM      3  O   UNL     1       0.332  -6.505   2.995  0.00  0.00    -0.253 OA
ATOM      4  N   UNL     1      -1.681  -6.083   2.157  0.00  0.00    -0.265 N 
ATOM      5  H   UNL     1      -0.722  -3.745   2.096  0.00  0.00    +0.150 HD
ATOM      6  H   UNL     1      -2.332  -5.423   1.871  0.00  0.00    +0.157 HD
ENDROOT
BRANCH   4   7
ATOM      7  C   UNL     1      -2.017  -7.444   2.162  0.00  0.00    +0.100 A 
ATOM      8  C   UNL     1      -3.074  -7.894   2.904  0.00  0.00    +0.042 A 
ATOM      9  C   UNL     1      -3.388  -9.261   2.890  0.00  0.00    +0.073 A 
ATOM     10  C   UNL     1      -2.650 -10.117   2.148  0.00  0.00    +0.098 A 
ATOM     11  N   UNL     1      -1.599  -9.672   1.410  0.00  0.00    -0.327 N 
ATOM     12  H   UNL     1      -1.082 -10.302   0.884  0.00  0.00    +0.168 HD
ATOM     13  C   UNL     1      -1.272  -8.366   1.395  0.00  0.00    +0.270 A 
ATOM     14  O   UNL     1      -0.329  -7.980   0.722  0.00  0.00    -0.266 OA
BRANCH   9  15
ATOM     15  C   UNL     1      -4.548  -9.775   3.703  0.00  0.00    +0.419 C 
ATOM     16  F   UNL     1      -4.663 -11.158   3.529  0.00  0.00    -0.166 F 
ATOM     17  F   UNL     1      -4.332  -9.491   5.056  0.00  0.00    -0.166 F 
ATOM     18  F   UNL     1      -5.727  -9.152   3.278  0.00  0.00    -0.166 F 
ENDBRANCH   9  15
ENDBRANCH   4   7
BRANCH   1  19
ATOM     19  C   UNL     1       1.239  -3.968   2.878  0.00  0.00    +0.093 C 
BRANCH  19  20
ATOM     20  C   UNL     1       1.347  -2.446   2.769  0.00  0.00    -0.055 C 
ATOM     21  C   UNL     1       2.742  -2.001   3.214  0.00  0.00    -0.008 C 
ATOM     22  C   UNL     1       0.293  -1.794   3.666  0.00  0.00    -0.008 C 
BRANCH  20  28
ATOM     23  C   UNL     1       1.042   1.381  -0.269  0.00  0.00    +0.005 C 
ATOM     24  C   UNL     1       0.924  -0.141  -0.162  0.00  0.00    -0.031 C 
ATOM     25  C   UNL     1       1.921  -0.799  -1.119  0.00  0.00    -0.001 C 
ATOM     26  C   UNL     1       1.850  -2.319  -0.948  0.00  0.00    -0.018 C 
ATOM     27  C   UNL     1       2.127  -2.676   0.514  0.00  0.00    -0.078 C 
ATOM     28  N   UNL     1       1.125  -2.038   1.376  0.00  0.00    +0.384 N 
ATOM     29  C   UNL     1       1.234  -0.578   1.271  0.00  0.00    -0.075 C 
ATOM     30  H   UNL     1       0.202  -2.326   1.086  0.00  0.00    -0.081 HD
ENDBRANCH  20  28
ENDBRANCH  19  20
ENDBRANCH   1  19
TORSDOF 5
