REMARK  Name = ZINC40529676
REMARK  9 active torsions:
REMARK  status: ('A' for Active; 'I' for Inactive)
REMARK    1  A    between atoms: C_1  and  C_2
REMARK    2  A    between atoms: C_2  and  C_4
REMARK    3  A    between atoms: C_2  and  O_29
REMARK    4  A    between atoms: C_4  and  O_6
REMARK    5  A    between atoms: O_6  and  C_7
REMARK    6  A    between atoms: C_14  and  N_28
REMARK    7  A    between atoms: C_15  and  C_26
REMARK    8  A    between atoms: C_16  and  C_18
REMARK    9  A    between atoms: O_29  and  C_30
REMARK                            x       y       z     vdW  Elec       q    Type
REMARK                         _______ _______ _______ _____ _____    ______ ____
ROOT
ATOM      1  C   UNL     1       2.074  -1.230  -2.963  0.00  0.00    +0.135 A 
ATOM      2  C   UNL     1       0.971  -1.568  -3.735  0.00  0.00    +0.047 A 
ATOM      3  C   UNL     1       1.147  -2.204  -4.948  0.00  0.00    +0.012 A 
ATOM      4  C   UNL     1       2.420  -2.506  -5.398  0.00  0.00    +0.008 A 
ATOM      5  C   UNL     1       3.525  -2.170  -4.631  0.00  0.00    +0.138 A 
ATOM      6  C   UNL     1       3.350  -1.525  -3.414  0.00  0.00    +0.093 A 
ATOM      7  O   UNL     1       4.780  -2.458  -5.056  0.00  0.00    -0.441 OA
ATOM      8  C   UNL     1       5.006  -2.711  -6.356  0.00  0.00    +0.199 C 
ATOM      9  C   UNL     1       4.010  -3.068  -7.201  0.00  0.00    +0.098 C 
ATOM     10  C   UNL     1       2.591  -3.201  -6.723  0.00  0.00    +0.101 C 
ENDROOT
BRANCH  10  11
ATOM     11  C   UNL     1       2.250  -4.661  -6.569  0.00  0.00    +0.002 A 
ATOM     12  C   UNL     1       2.960  -5.447  -5.679  0.00  0.00    +0.046 A 
ATOM     13  C   UNL     1       2.647  -6.787  -5.538  0.00  0.00    +0.020 A 
ATOM     14  C   UNL     1       1.626  -7.341  -6.287  0.00  0.00    +0.003 A 
ATOM     15  C   UNL     1       0.916  -6.556  -7.177  0.00  0.00    +0.020 A 
ATOM     16  C   UNL     1       1.224  -5.214  -7.314  0.00  0.00    +0.046 A 
ATOM     17 CL   UNL     1       0.328  -4.227  -8.426  0.00  0.00    -0.083 Cl
ATOM     18 CL   UNL     1       4.243  -4.751  -4.739  0.00  0.00    -0.083 Cl
ENDBRANCH  10  11
BRANCH   8  19
ATOM     19  N   UNL     1       6.285  -2.604  -6.843  0.00  0.00    -0.328 N 
ATOM     20  H   UNL     1       7.010  -2.349  -6.250  0.00  0.00    +0.145 HD
ATOM     21  H   UNL     1       6.465  -2.784  -7.779  0.00  0.00    +0.145 HD
ENDBRANCH   8  19
BRANCH   9  22
ATOM     22  C   UNL     1       4.314  -3.324  -8.576  0.00  0.00    +0.101 C 
ATOM     23  N   UNL     1       4.556  -3.527  -9.668  0.00  0.00    -0.191 NA
ENDBRANCH   9  22
BRANCH   1  24
ATOM     24  O   UNL     1       1.902  -0.604  -1.768  0.00  0.00    -0.423 OA
BRANCH  24  25
ATOM     25  C   UNL     1       1.495  -1.342  -0.723  0.00  0.00    +0.353 C 
ATOM     26  O   UNL     1       1.343  -2.534  -0.847  0.00  0.00    -0.246 OA
BRANCH  25  28
ATOM     27  C   UNL     1       0.042   0.276   0.469  0.00  0.00    +0.064 C 
ATOM     28  C   UNL     1       1.227  -0.683   0.606  0.00  0.00    +0.279 C 
BRANCH  28  29
ATOM     29  O   UNL     1       0.922  -1.682   1.580  0.00  0.00    -0.475 OA
BRANCH  29  30
ATOM     30  C   UNL     1       1.128  -1.356   2.884  0.00  0.00    +0.157 A 
ATOM     31  C   UNL     1       1.568  -0.085   3.221  0.00  0.00    +0.048 A 
ATOM     32  C   UNL     1       1.777   0.244   4.547  0.00  0.00    +0.004 A 
ATOM     33  C   UNL     1       1.548  -0.693   5.538  0.00  0.00    +0.003 A 
ATOM     34  C   UNL     1       1.110  -1.961   5.206  0.00  0.00    +0.042 A 
ATOM     35  C   UNL     1       0.892  -2.294   3.881  0.00  0.00    +0.165 A 
ATOM     36  F   UNL     1       0.458  -3.532   3.557  0.00  0.00    -0.202 F 
ENDBRANCH  29  30
ENDBRANCH  28  29
ENDBRANCH  25  28
ENDBRANCH  24  25
ENDBRANCH   1  24
TORSDOF 8
