REMARK  Name = ZINC39895266
REMARK  10 active torsions:
REMARK  status: ('A' for Active; 'I' for Inactive)
REMARK    1  A    between atoms: C_1  and  C_2
REMARK    2  A    between atoms: C_2  and  C_3
REMARK    3  A    between atoms: C_2  and  C_4
REMARK    4  A    between atoms: C_7  and  N_10
REMARK    5  A    between atoms: N_10  and  C_11
REMARK    6  A    between atoms: C_12  and  C_30
REMARK    7  A    between atoms: C_16  and  C_23
REMARK    8  A    between atoms: C_17  and  C_21
REMARK    9  A    between atoms: C_18  and  N_20
REMARK   10  A    between atoms: N_32  and  C_33
REMARK                            x       y       z     vdW  Elec       q    Type
REMARK                         _______ _______ _______ _____ _____    ______ ____
ROOT
ATOM      1  C   UNL     1      -5.798  -2.676  -1.034  0.00  0.00    +0.085 A 
ATOM      2  C   UNL     1      -7.088  -3.146  -1.252  0.00  0.00    +0.091 A 
ATOM      3  C   UNL     1      -7.352  -3.882  -2.488  0.00  0.00    +0.095 A 
ATOM      4  C   UNL     1      -6.239  -4.032  -3.337  0.00  0.00    +0.049 A 
ATOM      5  S   UNL     1      -4.918  -3.207  -2.490  0.00  0.00    -0.071 S 
ATOM      6  C   UNL     1      -6.326  -4.705  -4.546  0.00  0.00    +0.019 A 
ATOM      7  C   UNL     1      -7.581  -5.246  -4.913  0.00  0.00    +0.100 A 
ATOM      8  C   UNL     1      -8.660  -5.066  -4.028  0.00  0.00    +0.135 A 
ATOM      9  N   UNL     1      -8.523  -4.420  -2.893  0.00  0.00    -0.230 NA
ENDROOT
BRANCH   6  10
ATOM     10  C   UNL     1      -5.144  -4.852  -5.425  0.00  0.00    -0.015 A 
ATOM     11  C   UNL     1      -4.556  -3.726  -6.002  0.00  0.00    +0.010 A 
ATOM     12  C   UNL     1      -3.455  -3.869  -6.820  0.00  0.00    +0.020 A 
ATOM     13  C   UNL     1      -2.933  -5.128  -7.069  0.00  0.00    +0.041 A 
ATOM     14  C   UNL     1      -3.513  -6.249  -6.500  0.00  0.00    +0.020 A 
ATOM     15  C   UNL     1      -4.611  -6.117  -5.675  0.00  0.00    +0.010 A 
ATOM     16 CL   UNL     1      -1.547  -5.300  -8.100  0.00  0.00    -0.084 Cl
ENDBRANCH   6  10
BRANCH   2  17
ATOM     17  C   UNL     1      -8.149  -2.913  -0.274  0.00  0.00    +0.248 C 
ATOM     18  O   UNL     1      -8.839  -1.912  -0.351  0.00  0.00    -0.270 OA
ATOM     19  N   UNL     1      -8.364  -3.805   0.713  0.00  0.00    -0.314 N 
ATOM     20  C   UNL     1      -9.428  -3.571   1.693  0.00  0.00    +0.128 C 
ATOM     21  H   UNL     1      -7.815  -4.602   0.775  0.00  0.00    +0.149 HD
ENDBRANCH   2  17
BRANCH   8  22
ATOM     22  N   UNL     1      -9.900  -5.586  -4.363  0.00  0.00    -0.342 N 
ATOM     23  H   UNL     1     -10.016  -6.066  -5.198  0.00  0.00    +0.144 HD
ATOM     24  H   UNL     1     -10.653  -5.470  -3.762  0.00  0.00    +0.144 HD
ENDBRANCH   8  22
BRANCH   1  25
ATOM     25  N   UNL     1      -5.319  -1.967   0.042  0.00  0.00    -0.308 N 
ATOM     26  H   UNL     1      -5.886  -1.814   0.814  0.00  0.00    +0.153 HD
BRANCH  25  30
ATOM     27  C   UNL     1      -1.430  -0.477  -0.010  0.00  0.00    -0.045 A 
ATOM     28  C   UNL     1      -2.160  -0.541  -1.183  0.00  0.00    +0.006 A 
ATOM     29  C   UNL     1      -3.450  -1.035  -1.169  0.00  0.00    +0.023 A 
ATOM     30  C   UNL     1      -4.014  -1.468   0.025  0.00  0.00    +0.032 A 
ATOM     31  C   UNL     1      -3.277  -1.402   1.201  0.00  0.00    +0.023 A 
ATOM     32  C   UNL     1      -1.986  -0.912   1.179  0.00  0.00    +0.006 A 
BRANCH  27  34
ATOM     33  C   UNL     1       0.838  -0.792  -0.962  0.00  0.00    +0.012 C 
ATOM     34  C   UNL     1      -0.023   0.062  -0.029  0.00  0.00    +0.013 C 
ATOM     35  C   UNL     1      -0.038   1.508  -0.530  0.00  0.00    +0.012 C 
ENDBRANCH  27  34
ENDBRANCH  25  30
ENDBRANCH   1  25
BRANCH   7  36
ATOM     36  C   UNL     1      -7.748  -5.953  -6.147  0.00  0.00    +0.103 C 
ATOM     37  N   UNL     1      -7.880  -6.514  -7.126  0.00  0.00    -0.191 NA
ENDBRANCH   7  36
TORSDOF 7
