REMARK  Name = ZINC63271398
REMARK  6 active torsions:
REMARK  status: ('A' for Active; 'I' for Inactive)
REMARK    1  A    between atoms: C_1  and  C_2
REMARK    2  A    between atoms: N_4  and  C_5
REMARK    3  A    between atoms: C_8  and  N_11
REMARK    4  A    between atoms: C_12  and  C_14
REMARK    5  A    between atoms: C_14  and  C_15
REMARK    6  A    between atoms: C_15  and  N_16
REMARK                            x       y       z     vdW  Elec       q    Type
REMARK                         _______ _______ _______ _____ _____    ______ ____
ROOT
ATOM      1  N   UNL     1       0.320 -10.539  -3.137  0.00  0.00    -0.299 N 
ATOM      2  C   UNL     1       0.444 -11.285  -4.253  0.00  0.00    +0.302 C 
ATOM      3  O   UNL     1       0.583 -10.745  -5.333  0.00  0.00    -0.253 OA
ATOM      4  N   UNL     1       0.414 -12.630  -4.170  0.00  0.00    -0.283 N 
ATOM      5  C   UNL     1       0.123 -13.271  -2.885  0.00  0.00    +0.114 C 
ATOM      6  C   UNL     1       1.287 -14.205  -2.502  0.00  0.00    +0.052 C 
ATOM      7  C   UNL     1       1.634 -14.993  -3.741  0.00  0.00    -0.036 C 
ATOM      8  C   UNL     1       1.764 -16.298  -3.944  0.00  0.00    -0.001 A 
ATOM      9  C   UNL     1       1.727 -17.442  -3.018  0.00  0.00    +0.010 A 
ATOM     10  C   UNL     1       1.880 -18.671  -3.577  0.00  0.00    +0.001 A 
ATOM     11  C   UNL     1       2.064 -18.875  -4.948  0.00  0.00    +0.002 A 
ATOM     12  C   UNL     1       2.119 -17.881  -5.871  0.00  0.00    +0.026 A 
ATOM     13  C   UNL     1       1.980 -16.543  -5.402  0.00  0.00    +0.043 A 
ATOM     14  N   UNL     1       2.016 -15.416  -6.051  0.00  0.00    -0.376 N 
ATOM     15  C   UNL     1       1.892 -14.323  -5.086  0.00  0.00    +0.124 C 
ATOM     16  C   UNL     1       0.669 -13.438  -5.373  0.00  0.00    +0.138 C 
ATOM     17  H   UNL     1       0.285 -10.967  -2.268  0.00  0.00    +0.150 HD
ATOM     18  H   UNL     1       2.110 -15.318  -7.012  0.00  0.00    +0.160 HD
ENDROOT
BRANCH   1  19
ATOM     19  C   UNL     1       0.237  -9.079  -3.238  0.00  0.00    +0.115 C 
BRANCH  19  20
ATOM     20  C   UNL     1       0.101  -8.479  -1.837  0.00  0.00    +0.115 C 
BRANCH  20  22
ATOM     21  N   UNL     1      -0.108  -6.231  -0.825  0.00  0.00    -0.285 N 
ATOM     22  C   UNL     1       0.016  -6.978  -1.941  0.00  0.00    +0.219 C 
ATOM     23  O   UNL     1       0.059  -6.441  -3.027  0.00  0.00    -0.275 OA
ATOM     24  H   UNL     1      -0.211  -6.662   0.038  0.00  0.00    +0.155 HD
BRANCH  21  28
ATOM     25  C   UNL     1      -0.052  -2.070  -1.085  0.00  0.00    +0.033 A 
ATOM     26  C   UNL     1       0.513  -2.705   0.014  0.00  0.00    +0.025 A 
ATOM     27  C   UNL     1       0.494  -4.082   0.100  0.00  0.00    +0.025 A 
ATOM     28  C   UNL     1      -0.090  -4.833  -0.912  0.00  0.00    +0.033 A 
ATOM     29  C   UNL     1      -0.654  -4.198  -2.010  0.00  0.00    +0.025 A 
ATOM     30  C   UNL     1      -0.640  -2.820  -2.094  0.00  0.00    +0.025 A 
BRANCH  25  34
ATOM     31  C   UNL     1      -1.100   1.490  -1.727  0.00  0.00    +0.109 C 
ATOM     32  C   UNL     1      -1.072  -0.017  -1.727  0.00  0.00    +0.214 C 
ATOM     33  O   UNL     1      -1.984  -0.641  -2.228  0.00  0.00    -0.276 OA
ATOM     34  N   UNL     1      -0.033  -0.672  -1.172  0.00  0.00    -0.286 N 
ATOM     35  H   UNL     1       0.728  -0.175  -0.832  0.00  0.00    +0.155 HD
ENDBRANCH  25  34
ENDBRANCH  21  28
ENDBRANCH  20  22
ENDBRANCH  19  20
ENDBRANCH   1  19
TORSDOF 5
