REMARK  Name = ZINC12484182
REMARK  7 active torsions:
REMARK  status: ('A' for Active; 'I' for Inactive)
REMARK    1  A    between atoms: C_4  and  N_7
REMARK    2  A    between atoms: N_10  and  C_13
REMARK    3  A    between atoms: C_15  and  O_35
REMARK    4  A    between atoms: C_17  and  N_26
REMARK    5  A    between atoms: N_26  and  C_27
REMARK    6  A    between atoms: C_27  and  C_28
REMARK    7  A    between atoms: C_33  and  O_34
REMARK                            x       y       z     vdW  Elec       q    Type
REMARK                         _______ _______ _______ _____ _____    ______ ____
ROOT
ATOM      1  C   UNL     1      -0.386   7.386   3.943  0.00  0.00    +0.140 C 
ATOM      2  C   UNL     1      -1.052   7.759   2.615  0.00  0.00    +0.125 C 
ATOM      3  C   UNL     1      -0.161   7.300   1.455  0.00  0.00    -0.009 C 
ATOM      4  C   UNL     1       1.260   7.843   1.681  0.00  0.00    +0.136 C 
ATOM      5  C   UNL     1       1.135   9.325   2.106  0.00  0.00    +0.193 C 
ATOM      6  O   UNL     1       1.036   9.293   3.545  0.00  0.00    -0.347 OA
ATOM      7  C   UNL     1       1.059   7.908   3.937  0.00  0.00    +0.270 C 
ATOM      8  O   UNL     1       1.768   7.212   2.887  0.00  0.00    -0.346 OA
ENDROOT
BRANCH   1  12
ATOM      9  N   UNL     1      -0.900   3.473   5.448  0.00  0.00    -0.327 N 
ATOM     10  C   UNL     1       0.470   3.995   5.341  0.00  0.00    +0.120 C 
ATOM     11  C   UNL     1       0.425   5.522   5.260  0.00  0.00    +0.104 C 
ATOM     12  N   UNL     1      -0.382   5.926   4.100  0.00  0.00    -0.290 NA
ATOM     13  C   UNL     1      -1.751   5.403   4.207  0.00  0.00    +0.104 C 
ATOM     14  C   UNL     1      -1.707   3.876   4.288  0.00  0.00    +0.120 C 
BRANCH   9  18
ATOM     15  C   UNL     1      -0.887  -0.668   5.890  0.00  0.00    +0.000 A 
ATOM     16  C   UNL     1      -2.087   0.019   5.862  0.00  0.00    +0.002 A 
ATOM     17  C   UNL     1      -2.095   1.393   5.716  0.00  0.00    +0.023 A 
ATOM     18  C   UNL     1      -0.895   2.084   5.597  0.00  0.00    +0.030 A 
ATOM     19  C   UNL     1       0.308   1.390   5.620  0.00  0.00    +0.023 A 
ATOM     20  C   UNL     1       0.308   0.017   5.772  0.00  0.00    +0.002 A 
ENDBRANCH   9  18
ENDBRANCH   1  12
BRANCH   3  21
ATOM     21  N   UNL     1      -0.126   5.832   1.410  0.00  0.00    +0.387 N 
ATOM     22  H   UNL     1       0.641   5.462   2.105  0.00  0.00    -0.085 HD
ATOM     23  H   UNL     1      -1.109   5.433   1.702  0.00  0.00    -0.085 HD
BRANCH  21  24
ATOM     24  C   UNL     1       0.193   5.354   0.058  0.00  0.00    -0.042 C 
BRANCH  24  25
ATOM     25  C   UNL     1       0.219   3.848   0.051  0.00  0.00    -0.023 A 
ATOM     26  C   UNL     1       1.426   3.177   0.109  0.00  0.00    +0.005 A 
ATOM     27  C   UNL     1       1.450   1.795   0.103  0.00  0.00    +0.000 A 
ATOM     28  C   UNL     1       0.268   1.080   0.038  0.00  0.00    +0.004 A 
ATOM     29  C   UNL     1      -0.940   1.746  -0.026  0.00  0.00    +0.045 A 
ATOM     30  C   UNL     1      -0.968   3.133  -0.014  0.00  0.00    +0.118 A 
BRANCH  30  31
ATOM     31  O   UNL     1      -2.156   3.790  -0.071  0.00  0.00    -0.507 OA
ATOM     32  H   UNL     1      -3.097   3.223  -0.123  0.00  0.00    +0.292 HD
ENDBRANCH  30  31
ENDBRANCH  24  25
ENDBRANCH  21  24
ENDBRANCH   3  21
BRANCH   2  33
ATOM     33  O   UNL     1      -1.228   9.175   2.550  0.00  0.00    -0.392 OA
ATOM     34  H   UNL     1      -1.694   9.632   1.664  0.00  0.00    +0.210 HD
ENDBRANCH   2  33
TORSDOF 7
