REMARK  Name = ZINC38670481
REMARK  8 active torsions:
REMARK  status: ('A' for Active; 'I' for Inactive)
REMARK    1  A    between atoms: C_1  and  N_2
REMARK    2  A    between atoms: C_10  and  C_12
REMARK    3  A    between atoms: C_12  and  C_14
REMARK    4  A    between atoms: C_12  and  N_31
REMARK    5  A    between atoms: C_14  and  N_15
REMARK    6  A    between atoms: C_16  and  C_18
REMARK    7  A    between atoms: C_18  and  C_19
REMARK    8  A    between atoms: C_18  and  C_25
REMARK                            x       y       z     vdW  Elec       q    Type
REMARK                         _______ _______ _______ _____ _____    ______ ____
ROOT
ATOM      1  C   UNL     1       5.771  -3.424  -0.684  0.00  0.00    -0.020 C 
ENDROOT
BRANCH   1  11
ATOM      2  C   UNL     1       2.034   1.706   0.833  0.00  0.00    +0.129 C 
ATOM      3  N   UNL     1       1.686   0.309   0.562  0.00  0.00    -0.333 N 
ATOM      4  C   UNL     1       0.285  -0.133   0.602  0.00  0.00    +0.105 C 
ATOM      5  C   UNL     1       0.235  -1.459   1.373  0.00  0.00    +0.024 C 
ATOM      6  C   UNL     1       1.036  -2.509   0.604  0.00  0.00    +0.038 C 
ATOM      7  C   UNL     1       2.409  -1.986   0.272  0.00  0.00    -0.026 A 
ATOM      8  C   UNL     1       2.682  -0.625   0.254  0.00  0.00    +0.033 A 
ATOM      9  C   UNL     1       3.957  -0.174  -0.066  0.00  0.00    +0.023 A 
ATOM     10  C   UNL     1       4.954  -1.079  -0.370  0.00  0.00    +0.004 A 
ATOM     11  C   UNL     1       4.683  -2.435  -0.355  0.00  0.00    -0.059 A 
ATOM     12  C   UNL     1       3.415  -2.888  -0.026  0.00  0.00    +0.007 A 
ENDBRANCH   1  11
BRANCH   1  13
ATOM     13  N   UNL     1       7.034  -2.981  -0.079  0.00  0.00    +0.385 N 
ATOM     14  C   UNL     1       6.920  -2.981   1.402  0.00  0.00    -0.078 C 
ATOM     15  C   UNL     1       8.394  -3.060   1.872  0.00  0.00    -0.020 C 
ATOM     16  C   UNL     1       9.038  -4.006   0.833  0.00  0.00    -0.020 C 
ATOM     17  C   UNL     1       8.116  -3.937  -0.399  0.00  0.00    -0.078 C 
ATOM     18  H   UNL     1       7.275  -2.059  -0.410  0.00  0.00    -0.081 HD
ENDBRANCH   1  13
BRANCH   1  19
ATOM     19  C   UNL     1       5.937  -3.512  -2.203  0.00  0.00    +0.093 C 
BRANCH  19  20
ATOM     20  N   UNL     1       4.730  -4.095  -2.793  0.00  0.00    -0.316 N 
ATOM     21  C   UNL     1       4.604  -4.171  -4.133  0.00  0.00    +0.225 C 
ATOM     22  O   UNL     1       5.490  -3.757  -4.849  0.00  0.00    -0.275 OA
ATOM     23  H   UNL     1       4.021  -4.426  -2.219  0.00  0.00    +0.149 HD
BRANCH  21  24
ATOM     24  C   UNL     1       3.362  -4.771  -4.740  0.00  0.00    +0.135 C 
BRANCH  24  25
ATOM     25  C   UNL     1       3.470  -4.737  -6.242  0.00  0.00    -0.031 A 
ATOM     26  C   UNL     1       2.533  -4.048  -6.988  0.00  0.00    +0.005 A 
ATOM     27  C   UNL     1       2.633  -4.017  -8.366  0.00  0.00    +0.000 A 
ATOM     28  C   UNL     1       3.670  -4.675  -8.999  0.00  0.00    +0.000 A 
ATOM     29  C   UNL     1       4.609  -5.364  -8.253  0.00  0.00    +0.000 A 
ATOM     30  C   UNL     1       4.511  -5.391  -6.875  0.00  0.00    +0.005 A 
ENDBRANCH  24  25
BRANCH  24  31
ATOM     31  C   UNL     1       3.216  -6.198  -4.278  0.00  0.00    -0.031 A 
ATOM     32  C   UNL     1       4.304  -7.049  -4.309  0.00  0.00    +0.005 A 
ATOM     33  C   UNL     1       4.170  -8.358  -3.886  0.00  0.00    +0.000 A 
ATOM     34  C   UNL     1       2.948  -8.816  -3.432  0.00  0.00    +0.000 A 
ATOM     35  C   UNL     1       1.859  -7.965  -3.400  0.00  0.00    +0.000 A 
ATOM     36  C   UNL     1       1.994  -6.654  -3.819  0.00  0.00    +0.005 A 
ENDBRANCH  24  31
ENDBRANCH  21  24
ENDBRANCH  19  20
ENDBRANCH   1  19
TORSDOF 7
