REMARK  Name = ZINC36122985
REMARK  7 active torsions:
REMARK  status: ('A' for Active; 'I' for Inactive)
REMARK    1  A    between atoms: C_5  and  O_7
REMARK    2  A    between atoms: O_7  and  C_8
REMARK    3  A    between atoms: C_8  and  C_9
REMARK    4  A    between atoms: C_19  and  C_21
REMARK    5  A    between atoms: C_21  and  N_22
REMARK    6  A    between atoms: N_22  and  C_23
REMARK    7  A    between atoms: N_28  and  C_29
REMARK                            x       y       z     vdW  Elec       q    Type
REMARK                         _______ _______ _______ _____ _____    ______ ____
ROOT
ATOM      1  C   UNL     1      -1.503  -3.929  -0.137  0.00  0.00    +0.144 C 
ATOM      2  C   UNL     1      -0.896  -4.186   1.241  0.00  0.00    -0.014 A 
ATOM      3  C   UNL     1      -1.634  -4.133   2.423  0.00  0.00    +0.013 A 
ATOM      4  C   UNL     1      -1.029  -4.368   3.610  0.00  0.00    +0.046 A 
ATOM      5  S   UNL     1       0.656  -4.684   3.107  0.00  0.00    -0.101 S 
ATOM      6  C   UNL     1       0.427  -4.483   1.360  0.00  0.00    -0.004 A 
ATOM      7  C   UNL     1       1.440  -4.613   0.270  0.00  0.00    +0.061 C 
ATOM      8  C   UNL     1       0.877  -3.967  -1.005  0.00  0.00    +0.114 C 
ATOM      9  N   UNL     1      -0.531  -4.371  -1.146  0.00  0.00    -0.289 N 
ATOM     10  C   UNL     1      -0.923  -5.135  -2.184  0.00  0.00    +0.234 C 
ATOM     11  O   UNL     1      -2.086  -5.464  -2.290  0.00  0.00    -0.274 OA
ENDROOT
BRANCH   1  12
ATOM     12  C   UNL     1      -1.785  -2.435  -0.308  0.00  0.00    +0.256 C 
BRANCH  12  13
ATOM     13  O   UNL     1      -0.592  -1.692  -0.052  0.00  0.00    -0.487 OA
BRANCH  13  18
ATOM     14  C   UNL     1      -1.951   1.635  -0.622  0.00  0.00    +0.004 A 
ATOM     15  C   UNL     1      -0.833   2.414  -0.387  0.00  0.00    +0.003 A 
ATOM     16  C   UNL     1       0.366   1.821  -0.040  0.00  0.00    +0.042 A 
ATOM     17  C   UNL     1       0.451   0.445   0.073  0.00  0.00    +0.165 A 
ATOM     18  C   UNL     1      -0.671  -0.339  -0.162  0.00  0.00    +0.156 A 
ATOM     19  C   UNL     1      -1.872   0.260  -0.510  0.00  0.00    +0.048 A 
ATOM     20  F   UNL     1       1.623  -0.135   0.411  0.00  0.00    -0.202 F 
ENDBRANCH  13  18
ENDBRANCH  12  13
ENDBRANCH   1  12
BRANCH  10  21
ATOM     21  C   UNL     1       0.083  -5.582  -3.213  0.00  0.00    +0.205 C 
BRANCH  21  22
ATOM     22  N   UNL     1      -0.588  -6.396  -4.231  0.00  0.00    -0.274 N 
ATOM     23  C   UNL     1      -0.682  -7.731  -4.072  0.00  0.00    +0.307 C 
ATOM     24  O   UNL     1      -0.290  -8.250  -3.044  0.00  0.00    -0.252 OA
ATOM     25  N   UNL     1      -1.210  -8.491  -5.052  0.00  0.00    -0.269 N 
ATOM     26  H   UNL     1      -1.400  -8.100  -5.919  0.00  0.00    +0.156 HD
BRANCH  25  27
ATOM     27  C   UNL     1      -1.484  -9.843  -4.818  0.00  0.00    +0.036 A 
ATOM     28  C   UNL     1      -0.805 -10.528  -3.818  0.00  0.00    +0.023 A 
ATOM     29  C   UNL     1      -1.078 -11.862  -3.588  0.00  0.00    +0.003 A 
ATOM     30  C   UNL     1      -2.026 -12.517  -4.353  0.00  0.00    +0.020 A 
ATOM     31  C   UNL     1      -2.704 -11.838  -5.351  0.00  0.00    +0.043 A 
ATOM     32  C   UNL     1      -2.439 -10.501  -5.580  0.00  0.00    +0.043 A 
ATOM     33 CL   UNL     1      -3.893 -12.664  -6.309  0.00  0.00    -0.083 Cl
ENDBRANCH  25  27
BRANCH  22  34
ATOM     34  C   UNL     1      -1.156  -5.758  -5.421  0.00  0.00    +0.078 C 
ATOM     35  C   UNL     1      -1.022  -4.239  -5.540  0.00  0.00    +0.024 C 
ATOM     36  C   UNL     1      -2.382  -4.864  -5.226  0.00  0.00    +0.024 C 
ENDBRANCH  22  34
ENDBRANCH  21  22
ENDBRANCH  10  21
TORSDOF 7
