REMARK  Name = ZINC65881360
REMARK  12 active torsions:
REMARK  status: ('A' for Active; 'I' for Inactive)
REMARK    1  A    between atoms: C_1  and  C_2
REMARK    2  A    between atoms: C_2  and  N_3
REMARK    3  A    between atoms: N_3  and  C_4
REMARK    4  A    between atoms: N_3  and  C_5
REMARK    5  A    between atoms: C_5  and  C_6
REMARK    6  A    between atoms: C_10  and  C_12
REMARK    7  A    between atoms: C_12  and  N_13
REMARK    8  A    between atoms: C_14  and  C_16
REMARK    9  A    between atoms: C_21  and  N_22
REMARK   10  A    between atoms: N_25  and  C_26
REMARK   11  A    between atoms: C_26  and  C_27
REMARK   12  A    between atoms: C_26  and  C_28
REMARK                            x       y       z     vdW  Elec       q    Type
REMARK                         _______ _______ _______ _____ _____    ______ ____
ROOT
ATOM      1  N   UNL     1      -7.280  -2.713  -1.987  0.00  0.00    -0.307 N 
ATOM      2  C   UNL     1      -7.774  -2.717  -3.241  0.00  0.00    +0.246 C 
ATOM      3  O   UNL     1      -7.906  -3.767  -3.839  0.00  0.00    -0.270 OA
ATOM      4  H   UNL     1      -7.174  -1.875  -1.510  0.00  0.00    +0.149 HD
ENDROOT
BRANCH   2   5
ATOM      5  C   UNL     1      -8.153  -1.447  -3.888  0.00  0.00    +0.058 A 
ATOM      6  C   UNL     1      -8.114  -0.251  -3.166  0.00  0.00    +0.015 A 
ATOM      7  C   UNL     1      -8.469   0.932  -3.777  0.00  0.00    +0.001 A 
ATOM      8  C   UNL     1      -8.866   0.943  -5.104  0.00  0.00    +0.002 A 
ATOM      9  C   UNL     1      -8.911  -0.230  -5.830  0.00  0.00    +0.024 A 
ATOM     10  C   UNL     1      -8.551  -1.431  -5.233  0.00  0.00    +0.047 A 
BRANCH  10  11
ATOM     11  N   UNL     1      -8.590  -2.616  -5.965  0.00  0.00    -0.269 N 
ATOM     12  C   UNL     1      -9.628  -2.866  -6.787  0.00  0.00    +0.304 C 
ATOM     13  O   UNL     1     -10.492  -2.026  -6.948  0.00  0.00    -0.253 OA
ATOM     14  N   UNL     1      -9.708  -4.048  -7.430  0.00  0.00    -0.297 N 
ATOM     15  H   UNL     1      -7.869  -3.260  -5.883  0.00  0.00    +0.156 HD
ATOM     16  H   UNL     1      -9.019  -4.718  -7.302  0.00  0.00    +0.151 HD
BRANCH  14  17
ATOM     17  C   UNL     1     -10.837  -4.320  -8.323  0.00  0.00    +0.068 C 
ATOM     18  C   UNL     1     -10.425  -5.365  -9.363  0.00  0.00    +0.027 C 
ATOM     19  C   UNL     1     -12.017  -4.851  -7.507  0.00  0.00    +0.027 C 
ENDBRANCH  14  17
ENDBRANCH  10  11
ENDBRANCH   2   5
BRANCH   1  20
ATOM     20  C   UNL     1      -6.903  -3.974  -1.344  0.00  0.00    +0.139 C 
BRANCH  20  25
ATOM     21  C   UNL     1      -4.559  -3.206   1.514  0.00  0.00    -0.064 A 
ATOM     22  C   UNL     1      -5.430  -3.186   2.587  0.00  0.00    +0.002 A 
ATOM     23  C   UNL     1      -6.777  -3.422   2.388  0.00  0.00    +0.001 A 
ATOM     24  C   UNL     1      -7.254  -3.677   1.116  0.00  0.00    +0.005 A 
ATOM     25  C   UNL     1      -6.383  -3.696   0.043  0.00  0.00    -0.030 A 
ATOM     26  C   UNL     1      -5.036  -3.456   0.241  0.00  0.00    +0.007 A 
BRANCH  21  27
ATOM     27  C   UNL     1      -3.090  -2.949   1.731  0.00  0.00    -0.043 C 
BRANCH  27  28
ATOM     28  N   UNL     1      -2.822  -1.509   1.614  0.00  0.00    +0.380 N 
ATOM     29  C   UNL     1      -3.094  -1.071   0.238  0.00  0.00    -0.096 C 
ATOM     30  H   UNL     1      -3.418  -1.003   2.252  0.00  0.00    -0.082 HD
BRANCH  28  32
ATOM     31  C   UNL     1      -1.167   0.265   1.942  0.00  0.00    -0.017 C 
ATOM     32  C   UNL     1      -1.415  -1.245   1.943  0.00  0.00    -0.082 C 
ENDBRANCH  28  32
ENDBRANCH  27  28
ENDBRANCH  21  27
ENDBRANCH  20  25
ENDBRANCH   1  20
TORSDOF 8
