REMARK  Name = ZINC02429754
REMARK  16 active torsions:
REMARK  status: ('A' for Active; 'I' for Inactive)
REMARK    1  A    between atoms: C_1  and  C_2
REMARK    2  A    between atoms: C_2  and  C_3
REMARK    3  A    between atoms: C_2  and  C_4
REMARK    4  A    between atoms: C_4  and  N_5
REMARK    5  A    between atoms: N_5  and  C_6
REMARK    6  A    between atoms: N_5  and  C_32
REMARK    7  A    between atoms: C_6  and  C_7
REMARK    8  A    between atoms: C_8  and  O_31
REMARK    9  A    between atoms: C_14  and  C_27
REMARK   10  A    between atoms: C_15  and  O_18
REMARK   11  A    between atoms: O_18  and  C_19
REMARK   12  A    between atoms: C_23  and  O_25
REMARK   13  A    between atoms: O_25  and  C_26
REMARK   14  A    between atoms: C_32  and  C_33
REMARK   15  A    between atoms: C_33  and  C_34
REMARK   16  A    between atoms: C_33  and  C_35
REMARK                            x       y       z     vdW  Elec       q    Type
REMARK                         _______ _______ _______ _____ _____    ______ ____
ROOT
ATOM      1  C   UNL     1       0.562  -1.965  -0.257  0.00  0.00    +0.020 A 
ATOM      2  C   UNL     1       1.289  -2.125  -1.425  0.00  0.00    +0.122 A 
ATOM      3  C   UNL     1       2.517  -1.487  -1.589  0.00  0.00    +0.046 A 
ATOM      4  C   UNL     1       3.021  -0.695  -0.597  0.00  0.00    +0.019 A 
ATOM      5  C   UNL     1       2.301  -0.524   0.586  0.00  0.00    +0.068 A 
ATOM      6  C   UNL     1       1.058  -1.159   0.757  0.00  0.00    +0.144 A 
ATOM      7  O   UNL     1       0.368  -0.982   1.902  0.00  0.00    -0.447 OA
ATOM      8  C   UNL     1       0.819  -0.211   2.900  0.00  0.00    +0.254 A 
ATOM      9  C   UNL     1       1.993   0.448   2.839  0.00  0.00    +0.222 A 
ATOM     10  C   UNL     1       2.810   0.322   1.679  0.00  0.00    +0.235 A 
ATOM     11  O   UNL     1       3.879   0.902   1.589  0.00  0.00    -0.283 OA
ENDROOT
BRANCH   8  12
ATOM     12  C   UNL     1      -0.022  -0.073   4.143  0.00  0.00    +0.454 C 
ATOM     13  F   UNL     1       0.635   0.751   5.062  0.00  0.00    -0.163 F 
ATOM     14  F   UNL     1      -1.258   0.494   3.809  0.00  0.00    -0.163 F 
ATOM     15  F   UNL     1      -0.226  -1.335   4.710  0.00  0.00    -0.163 F 
ENDBRANCH   8  12
BRANCH   2  16
ATOM     16  O   UNL     1       0.801  -2.910  -2.419  0.00  0.00    -0.506 OA
ATOM     17  H   UNL     1       0.249  -2.438  -3.058  0.00  0.00    +0.292 HD
ENDBRANCH   2  16
BRANCH   1  18
ATOM     18  C   UNL     1      -0.765  -2.660  -0.091  0.00  0.00    -0.036 C 
BRANCH  18  19
ATOM     19  N   UNL     1      -1.268  -3.076  -1.407  0.00  0.00    +0.383 N 
ATOM     20  H   UNL     1      -0.583  -3.663  -1.859  0.00  0.00    -0.081 HD
BRANCH  19  21
ATOM     21  C   UNL     1      -1.516  -1.887  -2.235  0.00  0.00    -0.075 C 
BRANCH  21  23
ATOM     22  C   UNL     1      -2.875   0.208  -2.286  0.00  0.00    +0.005 C 
ATOM     23  C   UNL     1      -2.847  -1.251  -1.828  0.00  0.00    -0.034 C 
ATOM     24  C   UNL     1      -3.999  -2.014  -2.484  0.00  0.00    +0.005 C 
ENDBRANCH  21  23
ENDBRANCH  19  21
BRANCH  19  25
ATOM     25  C   UNL     1      -2.521  -3.825  -1.239  0.00  0.00    -0.075 C 
BRANCH  25  26
ATOM     26  C   UNL     1      -2.925  -4.449  -2.576  0.00  0.00    -0.034 C 
ATOM     27  C   UNL     1      -1.883  -5.491  -2.988  0.00  0.00    +0.005 C 
ATOM     28  C   UNL     1      -4.291  -5.124  -2.431  0.00  0.00    +0.005 C 
ENDBRANCH  25  26
ENDBRANCH  19  25
ENDBRANCH  18  19
ENDBRANCH   1  18
BRANCH   9  29
ATOM     29  O   UNL     1       2.402   1.219   3.884  0.00  0.00    -0.448 OA
BRANCH  29  30
ATOM     30  C   UNL     1       2.470   2.562   3.697  0.00  0.00    +0.132 A 
ATOM     31  C   UNL     1       2.016   3.123   2.511  0.00  0.00    +0.046 A 
ATOM     32  C   UNL     1       2.084   4.489   2.320  0.00  0.00    +0.007 A 
ATOM     33  C   UNL     1       2.606   5.302   3.309  0.00  0.00    +0.046 A 
ATOM     34  C   UNL     1       3.062   4.747   4.496  0.00  0.00    +0.124 A 
ATOM     35  C   UNL     1       2.989   3.376   4.692  0.00  0.00    +0.091 A 
BRANCH  34  36
ATOM     36  O   UNL     1       3.575   5.547   5.468  0.00  0.00    -0.495 OA
ATOM     37  C   UNL     1       3.615   6.950   5.199  0.00  0.00    +0.277 C 
ENDBRANCH  34  36
ENDBRANCH  29  30
ENDBRANCH   9  29
TORSDOF 11
