REMARK  Name = ZINC06637326
REMARK  9 active torsions:
REMARK  status: ('A' for Active; 'I' for Inactive)
REMARK    1  A    between atoms: C_1  and  C_2
REMARK    2  A    between atoms: C_2  and  C_4
REMARK    3  A    between atoms: C_2  and  N_43
REMARK    4  A    between atoms: N_6  and  C_7
REMARK    5  A    between atoms: C_10  and  N_14
REMARK    6  A    between atoms: C_17  and  C_18
REMARK    7  A    between atoms: C_17  and  N_43
REMARK    8  A    between atoms: C_21  and  S_24
REMARK    9  A    between atoms: S_24  and  N_27
REMARK                            x       y       z     vdW  Elec       q    Type
REMARK                         _______ _______ _______ _____ _____    ______ ____
ROOT
ATOM      1  C   UNL     1       2.702  -4.633  -1.378  0.00  0.00    -0.004 C 
ATOM      2  C   UNL     1       1.258  -4.135  -1.464  0.00  0.00    +0.014 C 
ENDROOT
BRANCH   2   3
ATOM      3  C   UNL     1       0.640  -4.606  -2.756  0.00  0.00    +0.203 C 
ATOM      4  O   UNL     1       0.228  -3.797  -3.560  0.00  0.00    -0.277 OA
ATOM      5  N   UNL     1       0.546  -5.925  -3.017  0.00  0.00    -0.286 N 
ATOM      6  H   UNL     1       0.933  -6.569  -2.404  0.00  0.00    +0.155 HD
BRANCH   5   7
ATOM      7  C   UNL     1      -0.111  -6.364  -4.172  0.00  0.00    +0.052 A 
ATOM      8  C   UNL     1      -0.036  -5.619  -5.341  0.00  0.00    +0.027 A 
ATOM      9  C   UNL     1      -0.685  -6.056  -6.479  0.00  0.00    +0.034 A 
ATOM     10  C   UNL     1      -1.410  -7.233  -6.456  0.00  0.00    +0.128 A 
ATOM     11  C   UNL     1      -1.487  -7.978  -5.294  0.00  0.00    +0.054 A 
ATOM     12  C   UNL     1      -0.835  -7.550  -4.152  0.00  0.00    +0.064 A 
ATOM     13 CL   UNL     1      -0.926  -8.489  -2.695  0.00  0.00    -0.082 Cl
BRANCH  10  14
ATOM     14  N   UNL     1      -2.104  -7.697  -7.678  0.00  0.00    +0.056 N 
ATOM     15  O   UNL     1      -2.037  -7.042  -8.703  0.00  0.00    -0.126 OA
ATOM     16  O   UNL     1      -2.743  -8.734  -7.659  0.00  0.00    -0.126 OA
ENDBRANCH  10  14
ENDBRANCH   5   7
ENDBRANCH   2   3
BRANCH   2  17
ATOM     17  N   UNL     1       1.242  -2.661  -1.428  0.00  0.00    +0.389 N 
ATOM     18  H   UNL     1       0.392  -2.320  -1.892  0.00  0.00    -0.084 HD
ATOM     19  H   UNL     1       2.069  -2.301  -1.921  0.00  0.00    -0.084 HD
BRANCH  17  20
ATOM     20  C   UNL     1       1.261  -2.182  -0.033  0.00  0.00    -0.046 C 
BRANCH  20  21
ATOM     21  C   UNL     1       1.245  -0.675  -0.028  0.00  0.00    -0.064 A 
ATOM     22  C   UNL     1       0.040   0.003  -0.006  0.00  0.00    +0.003 A 
ATOM     23  C   UNL     1       0.025   1.385  -0.001  0.00  0.00    +0.029 A 
ATOM     24  C   UNL     1       1.215   2.090  -0.018  0.00  0.00    +0.105 A 
ATOM     25  C   UNL     1       2.419   1.411  -0.042  0.00  0.00    +0.029 A 
ATOM     26  C   UNL     1       2.434   0.029  -0.047  0.00  0.00    +0.003 A 
BRANCH  24  27
ATOM     27  S   UNL     1       1.196   3.852  -0.013  0.00  0.00    +0.056 S 
ATOM     28  O   UNL     1       2.427   4.273  -0.583  0.00  0.00    -0.153 OA
ATOM     29  O   UNL     1      -0.063   4.246  -0.541  0.00  0.00    -0.153 OA
BRANCH  27  30
ATOM     30  N   UNL     1       1.217   4.336   1.571  0.00  0.00    -0.204 NA
ATOM     31  H   UNL     1       1.236   3.675   2.280  0.00  0.00    +0.144 HD
ATOM     32  H   UNL     1       1.210   5.281   1.789  0.00  0.00    +0.144 HD
ENDBRANCH  27  30
ENDBRANCH  24  27
ENDBRANCH  20  21
ENDBRANCH  17  20
ENDBRANCH   2  17
TORSDOF 8
