REMARK  Name = ZINC63582108
REMARK  4 active torsions:
REMARK  status: ('A' for Active; 'I' for Inactive)
REMARK    1  A    between atoms: C_7  and  C_10
REMARK    2  A    between atoms: C_10  and  C_11
REMARK    3  A    between atoms: C_11  and  C_13
REMARK    4  A    between atoms: C_11  and  N_21
REMARK                            x       y       z     vdW  Elec       q    Type
REMARK                         _______ _______ _______ _____ _____    ______ ____
ROOT
ATOM      1  C   UNL     1       0.498  -3.749  -1.414  0.00  0.00    +0.147 C 
ENDROOT
BRANCH   1   2
ATOM      2  C   UNL     1      -0.221  -5.073  -1.460  0.00  0.00    +0.233 C 
ATOM      3  O   UNL     1      -1.335  -5.141  -1.935  0.00  0.00    -0.274 OA
ATOM      4  N   UNL     1       0.374  -6.181  -0.976  0.00  0.00    -0.296 N 
ATOM      5  C   UNL     1       1.675  -6.104  -0.292  0.00  0.00    +0.136 C 
ATOM      6  C   UNL     1       1.563  -6.846   1.045  0.00  0.00    +0.179 C 
ATOM      7  O   UNL     1       1.044  -8.158   0.813  0.00  0.00    -0.377 OA
ATOM      8  C   UNL     1      -0.275  -8.176   0.263  0.00  0.00    +0.179 C 
ATOM      9  C   UNL     1      -0.260  -7.502  -1.109  0.00  0.00    +0.136 C 
ENDBRANCH   1   2
BRANCH   1  10
ATOM     10  N   UNL     1       0.020  -2.894  -2.508  0.00  0.00    -0.288 NA
ATOM     11  C   UNL     1       0.696  -1.594  -2.492  0.00  0.00    +0.108 C 
ATOM     12  C   UNL     1      -0.097  -0.585  -3.328  0.00  0.00    +0.181 C 
ATOM     13  S   UNL     1      -0.145  -1.170  -5.050  0.00  0.00    -0.029 S 
ATOM     14  O   UNL     1      -1.135  -0.431  -5.752  0.00  0.00    -0.174 OA
ATOM     15  O   UNL     1       1.183  -1.205  -5.553  0.00  0.00    -0.174 OA
ATOM     16  C   UNL     1      -0.736  -2.878  -4.842  0.00  0.00    +0.181 C 
ATOM     17  C   UNL     1       0.144  -3.575  -3.799  0.00  0.00    +0.108 C 
ENDBRANCH   1  10
BRANCH   1  18
ATOM     18  C   UNL     1       0.220  -3.065  -0.074  0.00  0.00    +0.061 C 
BRANCH  18  25
ATOM     19  C   UNL     1      -3.001  -5.507   2.099  0.00  0.00    +0.001 A 
ATOM     20  C   UNL     1      -4.286  -4.956   2.000  0.00  0.00    +0.002 A 
ATOM     21  C   UNL     1      -4.540  -3.813   1.327  0.00  0.00    +0.026 A 
ATOM     22  C   UNL     1      -3.486  -3.112   0.678  0.00  0.00    +0.043 A 
ATOM     23  N   UNL     1      -3.477  -2.006  -0.025  0.00  0.00    -0.380 N 
ATOM     24  C   UNL     1      -2.102  -1.740  -0.461  0.00  0.00    +0.144 C 
ATOM     25  C   UNL     1      -1.265  -2.871   0.093  0.00  0.00    -0.040 C 
ATOM     26  C   UNL     1      -2.119  -3.674   0.768  0.00  0.00    -0.001 A 
ATOM     27  C   UNL     1      -1.929  -4.920   1.519  0.00  0.00    +0.010 A 
ATOM     28  H   UNL     1      -4.250  -1.455  -0.223  0.00  0.00    +0.160 HD
ENDBRANCH  18  25
ENDBRANCH   1  18
TORSDOF 4
