REMARK  Name = ZINC63399758
REMARK  6 active torsions:
REMARK  status: ('A' for Active; 'I' for Inactive)
REMARK    1  A    between atoms: C_4  and  C_7
REMARK    2  A    between atoms: C_7  and  C_9
REMARK    3  A    between atoms: C_7  and  C_25
REMARK    4  A    between atoms: C_9  and  N_10
REMARK    5  A    between atoms: C_11  and  C_13
REMARK    6  A    between atoms: C_16  and  C_20
REMARK                            x       y       z     vdW  Elec       q    Type
REMARK                         _______ _______ _______ _____ _____    ______ ____
ROOT
ATOM      1  C   UNL     1       3.304  -0.762  -0.074  0.00  0.00    +0.064 C 
ENDROOT
BRANCH   1   2
ATOM      2  C   UNL     1       3.455  -1.604   1.167  0.00  0.00    -0.033 C 
ATOM      3  C   UNL     1       4.268  -1.361   2.220  0.00  0.00    -0.000 A 
ATOM      4  C   UNL     1       5.221  -0.284   2.514  0.00  0.00    +0.010 A 
ATOM      5  C   UNL     1       5.907  -0.314   3.678  0.00  0.00    +0.001 A 
ATOM      6  C   UNL     1       5.733  -1.347   4.610  0.00  0.00    +0.002 A 
ATOM      7  C   UNL     1       4.877  -2.371   4.411  0.00  0.00    +0.026 A 
ATOM      8  C   UNL     1       4.102  -2.440   3.220  0.00  0.00    +0.043 A 
ATOM      9  N   UNL     1       3.220  -3.315   2.802  0.00  0.00    -0.380 N 
ATOM     10  C   UNL     1       2.722  -2.887   1.490  0.00  0.00    +0.145 C 
ATOM     11  H   UNL     1       2.941  -4.111   3.281  0.00  0.00    +0.160 HD
ENDBRANCH   1   2
BRANCH   1  15
ATOM     12  C   UNL     1      -0.740   0.575  -0.407  0.00  0.00    +0.000 A 
ATOM     13  C   UNL     1       0.287   1.495  -0.312  0.00  0.00    +0.000 A 
ATOM     14  C   UNL     1       1.595   1.063  -0.204  0.00  0.00    +0.004 A 
ATOM     15  C   UNL     1       1.877  -0.290  -0.191  0.00  0.00    -0.039 A 
ATOM     16  C   UNL     1       0.851  -1.211  -0.285  0.00  0.00    +0.004 A 
ATOM     17  C   UNL     1      -0.458  -0.779  -0.395  0.00  0.00    +0.000 A 
ENDBRANCH   1  15
BRANCH   1  18
ATOM     18  C   UNL     1       3.668  -1.597  -1.303  0.00  0.00    +0.117 C 
BRANCH  18  19
ATOM     19  N   UNL     1       3.637  -0.747  -2.497  0.00  0.00    -0.311 N 
ATOM     20  C   UNL     1       3.925  -1.271  -3.704  0.00  0.00    +0.238 C 
ATOM     21  O   UNL     1       4.212  -2.450  -3.804  0.00  0.00    -0.271 OA
ATOM     22  H   UNL     1       3.408   0.192  -2.417  0.00  0.00    +0.149 HD
BRANCH  20  23
ATOM     23  C   UNL     1       3.896  -0.451  -4.856  0.00  0.00    +0.086 C 
ATOM     24  C   UNL     1       4.065  -0.998  -6.078  0.00  0.00    +0.020 C 
ATOM     25  N   UNL     1       4.117  -2.332  -6.269  0.00  0.00    -0.331 N 
ATOM     26  C   UNL     1       4.792  -2.845  -7.476  0.00  0.00    +0.166 C 
ATOM     27  S   UNL     1       5.232  -1.292  -8.364  0.00  0.00    -0.127 S 
ATOM     28  C   UNL     1       4.204  -0.150  -7.337  0.00  0.00    +0.121 C 
ATOM     29  H   UNL     1       3.720  -2.941  -5.627  0.00  0.00    +0.147 HD
BRANCH  26  30
ATOM     30  C   UNL     1       6.027  -3.627  -7.109  0.00  0.00    +0.020 A 
ATOM     31  C   UNL     1       6.605  -4.666  -7.761  0.00  0.00    +0.014 A 
ATOM     32  C   UNL     1       7.748  -5.235  -7.233  0.00  0.00    +0.008 A 
ATOM     33  C   UNL     1       8.259  -4.738  -6.080  0.00  0.00    +0.045 A 
ATOM     34  S   UNL     1       7.114  -3.420  -5.707  0.00  0.00    -0.099 S 
ENDBRANCH  26  30
ENDBRANCH  20  23
ENDBRANCH  18  19
ENDBRANCH   1  18
TORSDOF 6
