REMARK  Name = ZINC35706581
REMARK  9 active torsions:
REMARK  status: ('A' for Active; 'I' for Inactive)
REMARK    1  A    between atoms: C_1  and  C_2
REMARK    2  A    between atoms: C_5  and  N_8
REMARK    3  A    between atoms: C_9  and  C_22
REMARK    4  A    between atoms: C_12  and  S_13
REMARK    5  A    between atoms: S_13  and  C_14
REMARK    6  A    between atoms: C_14  and  C_15
REMARK    7  A    between atoms: C_19  and  C_21
REMARK    8  A    between atoms: C_22  and  N_23
REMARK    9  A    between atoms: N_26  and  C_27
REMARK                            x       y       z     vdW  Elec       q    Type
REMARK                         _______ _______ _______ _____ _____    ______ ____
ROOT
ATOM      1  N   UNL     1       0.058  -4.173  -0.021  0.00  0.00    -0.273 N 
ATOM      2  C   UNL     1      -0.920  -5.016   0.436  0.00  0.00    +0.156 A 
ATOM      3  N   UNL     1      -0.502  -6.235   0.242  0.00  0.00    -0.132 NA
ATOM      4  N   UNL     1       0.663  -6.223  -0.301  0.00  0.00    -0.122 NA
ATOM      5  C   UNL     1       1.054  -4.984  -0.491  0.00  0.00    +0.196 A 
ENDROOT
BRANCH   1  10
ATOM      6  C   UNL     1      -0.018   1.503   0.010  0.00  0.00    +0.044 C 
ATOM      7  C   UNL     1       0.002  -0.004   0.002  0.00  0.00    -0.050 A 
ATOM      8  C   UNL     1       0.006  -0.688  -1.200  0.00  0.00    +0.005 A 
ATOM      9  C   UNL     1       0.024  -2.069  -1.211  0.00  0.00    +0.026 A 
ATOM     10  C   UNL     1       0.040  -2.771  -0.013  0.00  0.00    +0.050 A 
ATOM     11  C   UNL     1       0.036  -2.082   1.192  0.00  0.00    +0.026 A 
ATOM     12  C   UNL     1       0.023  -0.700   1.196  0.00  0.00    +0.005 A 
ENDBRANCH   1  10
BRANCH   5  13
ATOM     13  S   UNL     1       2.576  -4.465  -1.212  0.00  0.00    -0.081 S 
BRANCH  13  14
ATOM     14  C   UNL     1       3.425  -6.017  -1.612  0.00  0.00    +0.112 C 
BRANCH  14  15
ATOM     15  C   UNL     1       4.759  -5.712  -2.243  0.00  0.00    -0.037 A 
ATOM     16  C   UNL     1       4.857  -5.568  -3.615  0.00  0.00    +0.004 A 
ATOM     17  C   UNL     1       6.081  -5.288  -4.194  0.00  0.00    +0.001 A 
ATOM     18  C   UNL     1       7.206  -5.153  -3.401  0.00  0.00    +0.003 A 
ATOM     19  C   UNL     1       7.107  -5.296  -2.030  0.00  0.00    -0.050 A 
ATOM     20  C   UNL     1       5.882  -5.571  -1.451  0.00  0.00    +0.007 A 
ATOM     21  C   UNL     1       8.333  -5.149  -1.167  0.00  0.00    +0.044 C 
ENDBRANCH  14  15
ENDBRANCH  13  14
ENDBRANCH   5  13
BRANCH   2  22
ATOM     22  C   UNL     1      -2.235  -4.610   1.049  0.00  0.00    +0.182 C 
BRANCH  22  23
ATOM     23  N   UNL     1      -3.245  -4.478  -0.004  0.00  0.00    -0.292 N 
ATOM     24  C   UNL     1      -4.506  -4.121   0.313  0.00  0.00    +0.300 C 
ATOM     25  O   UNL     1      -4.804  -3.908   1.472  0.00  0.00    -0.253 OA
ATOM     26  N   UNL     1      -5.435  -4.000  -0.656  0.00  0.00    -0.294 N 
ATOM     27  H   UNL     1      -3.007  -4.648  -0.928  0.00  0.00    +0.151 HD
ATOM     28  H   UNL     1      -5.197  -4.170  -1.581  0.00  0.00    +0.151 HD
BRANCH  26  29
ATOM     29  C   UNL     1      -6.805  -3.611  -0.312  0.00  0.00    +0.037 C 
ATOM     30  C   UNL     1      -7.402  -4.643   0.646  0.00  0.00    +0.029 C 
ATOM     31  C   UNL     1      -8.833  -4.238   1.006  0.00  0.00    -0.008 C 
ATOM     32  C   UNL     1      -9.680  -4.174  -0.267  0.00  0.00    +0.007 C 
ATOM     33  C   UNL     1      -9.082  -3.142  -1.226  0.00  0.00    -0.008 C 
ATOM     34  C   UNL     1      -7.652  -3.547  -1.585  0.00  0.00    +0.029 C 
ATOM     35  C   UNL     1      -9.069  -1.768  -0.552  0.00  0.00    +0.007 C 
ATOM     36  C   UNL     1      -8.223  -1.832   0.720  0.00  0.00    -0.008 C 
ATOM     37  C   UNL     1      -8.820  -2.864   1.679  0.00  0.00    +0.007 C 
ATOM     38  C   UNL     1      -6.792  -2.237   0.361  0.00  0.00    +0.029 C 
ENDBRANCH  26  29
ENDBRANCH  22  23
ENDBRANCH   2  22
TORSDOF 7
