REMARK  Name = ZINC40515173
REMARK  5 active torsions:
REMARK  status: ('A' for Active; 'I' for Inactive)
REMARK    1  A    between atoms: C_1  and  C_2
REMARK    2  A    between atoms: C_4  and  C_19
REMARK    3  A    between atoms: C_6  and  O_11
REMARK    4  A    between atoms: C_7  and  C_8
REMARK    5  A    between atoms: O_11  and  C_12
REMARK                            x       y       z     vdW  Elec       q    Type
REMARK                         _______ _______ _______ _____ _____    ______ ____
ROOT
ATOM      1  C   UNL     1       0.591   1.465   0.001  0.00  0.00    +0.045 C 
ATOM      2  C   UNL     1       0.384  -0.028  -0.004  0.00  0.00    -0.033 A 
ATOM      3  C   UNL     1       0.258  -0.723  -1.194  0.00  0.00    +0.027 A 
ATOM      4  C   UNL     1       0.069  -2.092  -1.166  0.00  0.00    +0.042 A 
ATOM      5  N   UNL     1       0.006  -2.749  -0.024  0.00  0.00    -0.217 NA
ATOM      6  C   UNL     1       0.121  -2.134   1.141  0.00  0.00    +0.231 A 
ATOM      7  C   UNL     1       0.321  -0.747   1.195  0.00  0.00    +0.077 A 
ATOM      8  C   UNL     1      -0.069  -2.848  -2.463  0.00  0.00    +0.066 C 
ENDROOT
BRANCH   7   9
ATOM      9  C   UNL     1       0.456  -0.056   2.493  0.00  0.00    +0.100 C 
ATOM     10  N   UNL     1       1.501  -0.315   3.279  0.00  0.00    -0.387 N 
ATOM     11  N   UNL     1      -0.466   0.825   2.878  0.00  0.00    -0.344 N 
ATOM     12  H   UNL     1       1.589   0.139   4.132  0.00  0.00    +0.157 HD
ATOM     13  H   UNL     1      -1.226   1.013   2.306  0.00  0.00    +0.144 HD
ATOM     14  H   UNL     1      -0.377   1.278   3.731  0.00  0.00    +0.144 HD
ATOM     15  H   UNL     1       2.172  -0.956   2.999  0.00  0.00    +0.157 HD
ENDBRANCH   7   9
BRANCH   6  16
ATOM     16  O   UNL     1       0.050  -2.849   2.289  0.00  0.00    -0.436 OA
BRANCH  16  17
ATOM     17  C   UNL     1      -0.038  -4.202   2.195  0.00  0.00    +0.144 A 
ATOM     18  C   UNL     1      -1.280  -4.820   2.207  0.00  0.00    +0.047 A 
ATOM     19  C   UNL     1      -1.366  -6.196   2.111  0.00  0.00    +0.004 A 
ATOM     20  C   UNL     1      -0.216  -6.956   2.002  0.00  0.00    +0.001 A 
ATOM     21  C   UNL     1       1.023  -6.343   1.990  0.00  0.00    +0.019 A 
ATOM     22  C   UNL     1       1.115  -4.967   2.080  0.00  0.00    +0.060 A 
ATOM     23 BR   UNL     1       2.809  -4.127   2.054  0.00  0.00    -0.046 Br
ENDBRANCH  16  17
ENDBRANCH   6  16
TORSDOF 3
