REMARK  Name = ZINC49547261
REMARK  5 active torsions:
REMARK  status: ('A' for Active; 'I' for Inactive)
REMARK    1  A    between atoms: C_1  and  C_2
REMARK    2  A    between atoms: C_2  and  C_4
REMARK    3  A    between atoms: C_2  and  O_19
REMARK    4  A    between atoms: C_9  and  N_10
REMARK    5  A    between atoms: C_11  and  C_13
REMARK                            x       y       z     vdW  Elec       q    Type
REMARK                         _______ _______ _______ _____ _____    ______ ____
ROOT
ATOM      1  N   UNL     1      -1.357  -0.312  -2.479  0.00  0.00    -0.286 N 
ATOM      2  C   UNL     1      -2.145  -0.880  -3.413  0.00  0.00    +0.204 C 
ATOM      3  O   UNL     1      -1.694  -1.730  -4.152  0.00  0.00    -0.277 OA
ATOM      4  H   UNL     1      -1.736   0.308  -1.837  0.00  0.00    +0.155 HD
ENDROOT
BRANCH   2   5
ATOM      5  C   UNL     1      -3.586  -0.458  -3.541  0.00  0.00    +0.027 C 
ATOM      6  C   UNL     1      -3.648   1.063  -3.867  0.00  0.00    +0.060 C 
ATOM      7  S   UNL     1      -5.347   1.116  -4.595  0.00  0.00    -0.181 S 
ATOM      8  C   UNL     1      -5.353  -0.588  -5.297  0.00  0.00    -0.011 C 
ATOM      9  N   UNL     1      -4.226  -1.242  -4.600  0.00  0.00    +0.393 N 
ATOM     10  H   UNL     1      -3.524  -1.475  -5.286  0.00  0.00    -0.084 HD
ATOM     11  H   UNL     1      -4.564  -2.101  -4.194  0.00  0.00    -0.084 HD
ENDBRANCH   2   5
BRANCH   1  17
ATOM     12  C   UNL     1       0.714  -0.480  -1.248  0.00  0.00    +0.002 A 
ATOM     13  C   UNL     1       2.060  -0.788  -1.206  0.00  0.00    +0.008 A 
ATOM     14  C   UNL     1       2.706  -1.227  -2.348  0.00  0.00    +0.000 A 
ATOM     15  C   UNL     1       2.006  -1.360  -3.533  0.00  0.00    +0.002 A 
ATOM     16  C   UNL     1       0.661  -1.054  -3.581  0.00  0.00    +0.023 A 
ATOM     17  C   UNL     1       0.008  -0.618  -2.435  0.00  0.00    +0.039 A 
BRANCH  12  19
ATOM     18  C   UNL     1      -0.019   1.528   0.009  0.00  0.00    +0.043 C 
ATOM     19  C   UNL     1       0.011  -0.002  -0.003  0.00  0.00    +0.143 C 
BRANCH  19  20
ATOM     20  O   UNL     1       0.711  -0.474   1.150  0.00  0.00    -0.387 OA
ATOM     21  H   UNL     1       0.313  -0.203   1.989  0.00  0.00    +0.210 HD
ENDBRANCH  19  20
ENDBRANCH  12  19
ENDBRANCH   1  17
TORSDOF 4
