REMARK  Name = ZINC66577384
REMARK  4 active torsions:
REMARK  status: ('A' for Active; 'I' for Inactive)
REMARK    1  A    between atoms: C_9  and  C_12
REMARK    2  A    between atoms: N_14  and  N_15
REMARK    3  A    between atoms: N_15  and  S_16
REMARK    4  A    between atoms: S_16  and  C_19
REMARK                            x       y       z     vdW  Elec       q    Type
REMARK                         _______ _______ _______ _____ _____    ______ ____
ROOT
ATOM      1  C   UNL     1       4.313  -3.159  -0.568  0.00  0.00    +0.272 C 
ATOM      2  O   UNL     1       4.952  -2.265  -0.054  0.00  0.00    -0.270 OA
ATOM      3  N   UNL     1       4.842  -4.395  -0.667  0.00  0.00    -0.229 N 
ATOM      4  H   UNL     1       4.331  -5.109  -1.079  0.00  0.00    +0.171 HD
ENDROOT
BRANCH   1  13
ATOM      5  C   UNL     1      -1.328  -0.374  -1.420  0.00  0.00    +0.004 A 
ATOM      6  C   UNL     1      -0.321   0.570  -1.505  0.00  0.00    +0.004 A 
ATOM      7  C   UNL     1       0.999   0.191  -1.351  0.00  0.00    +0.049 A 
ATOM      8  C   UNL     1       1.317  -1.138  -1.112  0.00  0.00    +0.163 A 
ATOM      9  C   UNL     1       0.305  -2.087  -1.029  0.00  0.00    +0.162 A 
ATOM     10  C   UNL     1      -1.018  -1.700  -1.183  0.00  0.00    +0.049 A 
ATOM     11  O   UNL     1       0.596  -3.397  -0.803  0.00  0.00    -0.484 OA
ATOM     12  C   UNL     1       1.899  -3.688  -0.285  0.00  0.00    +0.283 C 
ATOM     13  C   UNL     1       2.928  -2.888  -1.096  0.00  0.00    +0.297 C 
ATOM     14  O   UNL     1       2.622  -1.496  -0.959  0.00  0.00    -0.472 OA
ENDBRANCH   1  13
BRANCH   3  15
ATOM     15  N   UNL     1       6.130  -4.647  -0.177  0.00  0.00    -0.112 NA
ATOM     16  H   UNL     1       6.878  -4.108  -0.478  0.00  0.00    +0.171 HD
BRANCH  15  17
ATOM     17  S   UNL     1       6.375  -5.865   0.918  0.00  0.00    +0.047 S 
ATOM     18  O   UNL     1       5.867  -7.030   0.283  0.00  0.00    -0.157 OA
ATOM     19  O   UNL     1       7.749  -5.769   1.265  0.00  0.00    -0.157 OA
BRANCH  17  20
ATOM     20  C   UNL     1       5.339  -5.427   2.342  0.00  0.00    +0.149 C 
ATOM     21  C   UNL     1       5.785  -4.074   2.900  0.00  0.00    +0.028 C 
ATOM     22  C   UNL     1       4.911  -3.705   4.101  0.00  0.00    +0.002 C 
ATOM     23  C   UNL     1       5.054  -4.776   5.184  0.00  0.00    +0.000 C 
ATOM     24  C   UNL     1       4.609  -6.129   4.626  0.00  0.00    +0.002 C 
ATOM     25  C   UNL     1       5.482  -6.498   3.425  0.00  0.00    +0.028 C 
ENDBRANCH  17  20
ENDBRANCH  15  17
ENDBRANCH   3  15
TORSDOF 4
