REMARK  Name = ZINC39605099
REMARK  11 active torsions:
REMARK  status: ('A' for Active; 'I' for Inactive)
REMARK    1  A    between atoms: C_1  and  C_2
REMARK    2  A    between atoms: C_2  and  C_3
REMARK    3  A    between atoms: C_2  and  O_4
REMARK    4  A    between atoms: O_4  and  C_5
REMARK    5  A    between atoms: C_5  and  C_6
REMARK    6  A    between atoms: C_6  and  C_7
REMARK    7  A    between atoms: C_7  and  N_8
REMARK    8  A    between atoms: C_9  and  C_11
REMARK    9  A    between atoms: C_22  and  C_24
REMARK   10  A    between atoms: C_27  and  O_30
REMARK   11  A    between atoms: O_30  and  C_31
REMARK                            x       y       z     vdW  Elec       q    Type
REMARK                         _______ _______ _______ _____ _____    ______ ____
ROOT
ATOM      1  C   UNL     1      -7.036  -5.505  -1.521  0.00  0.00    +0.100 C 
ATOM      2  C   UNL     1      -7.639  -4.330  -2.322  0.00  0.00    +0.121 C 
ATOM      3  N   UNL     1      -7.750  -4.841  -3.709  0.00  0.00    -0.296 N 
ATOM      4  C   UNL     1      -8.188  -6.248  -3.550  0.00  0.00    +0.115 C 
ATOM      5  C   UNL     1      -7.401  -6.763  -2.328  0.00  0.00    -0.004 C 
ATOM      6  C   UNL     1      -8.274  -7.693  -1.491  0.00  0.00    -0.010 C 
ATOM      7  C   UNL     1      -8.576  -8.962  -2.293  0.00  0.00    -0.082 C 
ATOM      8  N   UNL     1      -7.318  -9.628  -2.649  0.00  0.00    +0.379 N 
ATOM      9  C   UNL     1      -6.525  -8.763  -3.531  0.00  0.00    -0.082 C 
ATOM     10  C   UNL     1      -6.136  -7.486  -2.781  0.00  0.00    -0.010 C 
ATOM     11  C   UNL     1      -7.508  -4.176  -4.856  0.00  0.00    +0.247 C 
ATOM     12  O   UNL     1      -7.033  -3.057  -4.822  0.00  0.00    -0.270 OA
ATOM     13  H   UNL     1      -6.792  -9.823  -1.810  0.00  0.00    -0.086 HD
ATOM     14  H   UNL     1      -7.521 -10.495  -3.124  0.00  0.00    -0.086 HD
ENDROOT
BRANCH  11  15
ATOM     15  C   UNL     1      -7.821  -4.805  -6.154  0.00  0.00    +0.037 A 
ATOM     16  C   UNL     1      -8.741  -5.855  -6.220  0.00  0.00    +0.016 A 
ATOM     17  C   UNL     1      -9.030  -6.439  -7.433  0.00  0.00    +0.047 A 
ATOM     18  C   UNL     1      -8.409  -5.986  -8.591  0.00  0.00    +0.130 A 
ATOM     19  C   UNL     1      -7.494  -4.942  -8.529  0.00  0.00    +0.047 A 
ATOM     20  C   UNL     1      -7.203  -4.348  -7.321  0.00  0.00    +0.016 A 
BRANCH  18  21
ATOM     21  O   UNL     1      -8.696  -6.565  -9.784  0.00  0.00    -0.406 OA
BRANCH  21  22
ATOM     22  C   UNL     1      -8.022  -6.050 -10.934  0.00  0.00    +0.575 C 
ATOM     23  F   UNL     1      -6.640  -6.196 -10.768  0.00  0.00    -0.133 F 
ATOM     24  F   UNL     1      -8.432  -6.755 -12.070  0.00  0.00    -0.133 F 
ATOM     25  F   UNL     1      -8.332  -4.695 -11.089  0.00  0.00    -0.133 F 
ENDBRANCH  21  22
ENDBRANCH  18  21
ENDBRANCH  11  15
BRANCH   1  27
ATOM     26  N   UNL     1      -4.868  -5.956  -0.418  0.00  0.00    -0.315 N 
ATOM     27  C   UNL     1      -5.539  -5.361  -1.424  0.00  0.00    +0.218 C 
ATOM     28  O   UNL     1      -4.938  -4.709  -2.252  0.00  0.00    -0.275 OA
ATOM     29  H   UNL     1      -5.349  -6.477   0.244  0.00  0.00    +0.149 HD
BRANCH  26  30
ATOM     30  C   UNL     1      -3.413  -5.815  -0.324  0.00  0.00    +0.106 C 
BRANCH  30  31
ATOM     31  C   UNL     1      -2.904  -6.581   0.899  0.00  0.00    +0.047 C 
BRANCH  31  32
ATOM     32  C   UNL     1      -1.385  -6.434   0.997  0.00  0.00    +0.161 C 
BRANCH  32  33
ATOM     33  O   UNL     1      -0.910  -7.150   2.139  0.00  0.00    -0.377 OA
BRANCH  33  35
ATOM     34  C   UNL     1       0.831  -7.173   3.816  0.00  0.00    +0.037 C 
ATOM     35  C   UNL     1       0.505  -7.077   2.324  0.00  0.00    +0.112 C 
ATOM     36  C   UNL     1       1.177  -8.233   1.580  0.00  0.00    +0.037 C 
ENDBRANCH  33  35
ENDBRANCH  32  33
ENDBRANCH  31  32
ENDBRANCH  30  31
ENDBRANCH  26  30
ENDBRANCH   1  27
TORSDOF 9
