REMARK  Name = ZINC30197359
REMARK  6 active torsions:
REMARK  status: ('A' for Active; 'I' for Inactive)
REMARK    1  A    between atoms: C_1  and  C_2
REMARK    2  A    between atoms: C_9  and  C_16
REMARK    3  A    between atoms: C_11  and  O_12
REMARK    4  A    between atoms: C_16  and  N_17
REMARK    5  A    between atoms: C_23  and  C_25
REMARK    6  A    between atoms: C_25  and  C_26
REMARK                            x       y       z     vdW  Elec       q    Type
REMARK                         _______ _______ _______ _____ _____    ______ ____
ROOT
ATOM      1  C   UNL     1      -3.267  -9.709  -7.803  0.00  0.00    +0.109 C 
ATOM      2  C   UNL     1      -2.596  -9.654  -6.455  0.00  0.00    +0.214 C 
ATOM      3  O   UNL     1      -2.377 -10.678  -5.844  0.00  0.00    -0.276 OA
ATOM      4  N   UNL     1      -2.237  -8.466  -5.929  0.00  0.00    -0.286 N 
ATOM      5  C   UNL     1      -1.707  -8.405  -4.640  0.00  0.00    +0.037 A 
ATOM      6  C   UNL     1      -2.024  -7.329  -3.811  0.00  0.00    +0.024 A 
ATOM      7  C   UNL     1      -1.518  -7.260  -2.546  0.00  0.00    +0.014 A 
ATOM      8  C   UNL     1      -0.664  -8.267  -2.081  0.00  0.00    +0.022 A 
ATOM      9  C   UNL     1      -0.102  -8.214  -0.730  0.00  0.00    -0.016 A 
ATOM     10  C   UNL     1       0.719  -9.223  -0.337  0.00  0.00    +0.093 A 
ATOM     11  C   UNL     1       1.006 -10.280  -1.225  0.00  0.00    +0.285 A 
ATOM     12  O   UNL     1       0.488 -10.322  -2.462  0.00  0.00    -0.425 OA
ATOM     13  C   UNL     1      -0.335  -9.352  -2.915  0.00  0.00    +0.141 A 
ATOM     14  C   UNL     1      -0.863  -9.412  -4.196  0.00  0.00    +0.070 A 
ATOM     15  H   UNL     1      -2.364  -7.544  -6.516  0.00  0.00    +0.155 HD
ENDROOT
BRANCH  11  16
ATOM     16  O   UNL     1       1.744 -11.177  -0.860  0.00  0.00    -0.480 OA
ATOM     17  H   UNL     1       1.978 -12.008  -1.541  0.00  0.00    +0.295 HD
ENDBRANCH  11  16
BRANCH   9  18
ATOM     18  C   UNL     1      -0.426  -7.073   0.199  0.00  0.00    +0.120 C 
BRANCH  18  19
ATOM     19  N   UNL     1      -1.766  -7.268   0.766  0.00  0.00    -0.295 NA
ATOM     20  C   UNL     1      -2.313  -6.002   1.273  0.00  0.00    +0.103 C 
ATOM     21  C   UNL     1      -3.774  -6.210   1.688  0.00  0.00    +0.123 C 
ATOM     22  N   UNL     1      -3.835  -7.336   2.633  0.00  0.00    -0.299 N 
ATOM     23  C   UNL     1      -3.187  -8.600   2.251  0.00  0.00    +0.123 C 
ATOM     24  C   UNL     1      -1.750  -8.298   1.814  0.00  0.00    +0.103 C 
ATOM     25  C   UNL     1      -4.468  -7.213   3.816  0.00  0.00    +0.220 C 
ATOM     26  O   UNL     1      -4.509  -8.152   4.582  0.00  0.00    -0.275 OA
BRANCH  25  27
ATOM     27  C   UNL     1      -5.125  -5.908   4.186  0.00  0.00    +0.131 C 
BRANCH  27  28
ATOM     28  C   UNL     1      -5.758  -6.033   5.549  0.00  0.00    -0.038 A 
ATOM     29  C   UNL     1      -7.069  -6.455   5.665  0.00  0.00    +0.007 A 
ATOM     30  C   UNL     1      -7.648  -6.574   6.914  0.00  0.00    +0.038 A 
ATOM     31  C   UNL     1      -6.918  -6.262   8.048  0.00  0.00    +0.123 A 
ATOM     32  C   UNL     1      -5.606  -5.835   7.930  0.00  0.00    +0.038 A 
ATOM     33  C   UNL     1      -5.027  -5.721   6.680  0.00  0.00    +0.007 A 
ATOM     34  F   UNL     1      -7.485  -6.374   9.270  0.00  0.00    -0.205 F 
ENDBRANCH  27  28
ENDBRANCH  25  27
ENDBRANCH  18  19
ENDBRANCH   9  18
TORSDOF 5
