REMARK  Name = ZINC65420482
REMARK  7 active torsions:
REMARK  status: ('A' for Active; 'I' for Inactive)
REMARK    1  A    between atoms: C_7  and  N_14
REMARK    2  A    between atoms: C_9  and  C_11
REMARK    3  A    between atoms: C_11  and  C_12
REMARK    4  A    between atoms: C_12  and  N_13
REMARK    5  A    between atoms: N_14  and  C_15
REMARK    6  A    between atoms: C_15  and  C_16
REMARK    7  A    between atoms: C_20  and  C_22
REMARK                            x       y       z     vdW  Elec       q    Type
REMARK                         _______ _______ _______ _____ _____    ______ ____
ROOT
ATOM      1  C   UNL     1      -0.016   1.360   0.009  0.00  0.00    +0.001 A 
ATOM      2  C   UNL     1       1.168   2.091   0.002  0.00  0.00    +0.002 A 
ATOM      3  C   UNL     1       2.380   1.466  -0.013  0.00  0.00    +0.028 A 
ATOM      4  C   UNL     1       2.436   0.065  -0.021  0.00  0.00    +0.076 A 
ATOM      5  C   UNL     1       1.229  -0.676  -0.013  0.00  0.00    +0.040 A 
ATOM      6  C   UNL     1       0.002  -0.004   0.002  0.00  0.00    +0.013 A 
ATOM      7  C   UNL     1       1.313  -2.090  -0.021  0.00  0.00    +0.130 A 
ATOM      8  N   UNL     1       2.518  -2.646  -0.035  0.00  0.00    -0.217 NA
ATOM      9  C   UNL     1       3.618  -1.911  -0.042  0.00  0.00    +0.130 A 
ATOM     10  N   UNL     1       3.600  -0.599  -0.035  0.00  0.00    -0.232 NA
ENDROOT
BRANCH   7  11
ATOM     11  N   UNL     1       0.175  -2.867  -0.014  0.00  0.00    -0.325 N 
ATOM     12  H   UNL     1      -0.699  -2.447  -0.003  0.00  0.00    +0.148 HD
BRANCH  11  13
ATOM     13  C   UNL     1       0.285  -4.328  -0.022  0.00  0.00    +0.138 C 
BRANCH  13  14
ATOM     14  C   UNL     1      -1.094  -4.936  -0.012  0.00  0.00    -0.002 C 
ATOM     15  C   UNL     1      -1.817  -5.352  -1.054  0.00  0.00    +0.138 C 
ATOM     16  N   UNL     1      -3.010  -5.840  -0.646  0.00  0.00    -0.161 NA
ATOM     17  N   UNL     1      -3.187  -5.806   0.574  0.00  0.00    -0.174 NA
ATOM     18  C   UNL     1      -1.981  -5.224   1.187  0.00  0.00    +0.194 C 
BRANCH  18  19
ATOM     19  C   UNL     1      -2.319  -3.950   1.918  0.00  0.00    +0.020 A 
ATOM     20  C   UNL     1      -1.764  -3.439   3.044  0.00  0.00    +0.014 A 
ATOM     21  C   UNL     1      -2.239  -2.240   3.541  0.00  0.00    +0.008 A 
ATOM     22  C   UNL     1      -3.247  -1.611   2.888  0.00  0.00    +0.045 A 
ATOM     23  S   UNL     1      -3.549  -2.719   1.521  0.00  0.00    -0.099 S 
ENDBRANCH  18  19
ENDBRANCH  13  14
ENDBRANCH  11  13
ENDBRANCH   7  11
BRANCH   9  24
ATOM     24  C   UNL     1       4.952  -2.612  -0.057  0.00  0.00    +0.057 C 
BRANCH  24  25
ATOM     25  C   UNL     1       5.390  -2.843  -1.505  0.00  0.00    -0.079 C 
BRANCH  25  26
ATOM     26  N   UNL     1       6.690  -3.527  -1.520  0.00  0.00    +0.378 N 
ATOM     27  H   UNL     1       7.375  -2.957  -1.048  0.00  0.00    -0.090 HD
ATOM     28  H   UNL     1       6.608  -4.415  -1.047  0.00  0.00    -0.090 HD
ATOM     29  H   UNL     1       6.979  -3.679  -2.474  0.00  0.00    -0.090 HD
ENDBRANCH  25  26
ENDBRANCH  24  25
ENDBRANCH   9  24
TORSDOF 7
