REMARK  Name = ZINC42138639
REMARK  3 active torsions:
REMARK  status: ('A' for Active; 'I' for Inactive)
REMARK    1  A    between atoms: C_2  and  N_21
REMARK    2  A    between atoms: C_6  and  C_7
REMARK    3  A    between atoms: N_10  and  C_11
REMARK                            x       y       z     vdW  Elec       q    Type
REMARK                         _______ _______ _______ _____ _____    ______ ____
ROOT
ATOM      1  C   UNL     1      -0.050   1.330   0.023  0.00  0.00    +0.040 A 
ATOM      2  C   UNL     1       1.127   2.068   0.019  0.00  0.00    +0.044 A 
ATOM      3  C   UNL     1       2.347   1.405  -0.010  0.00  0.00    +0.135 A 
ATOM      4  N   UNL     1       2.406   0.088  -0.034  0.00  0.00    -0.238 NA
ATOM      5  C   UNL     1       1.315  -0.661  -0.032  0.00  0.00    +0.131 A 
ATOM      6  C   UNL     1       0.042  -0.066  -0.003  0.00  0.00    +0.078 A 
ATOM      7  N   UNL     1       1.428  -2.041  -0.059  0.00  0.00    -0.323 N 
ATOM      8  H   UNL     1       0.635  -2.595   0.020  0.00  0.00    +0.148 HD
ENDROOT
BRANCH   7   9
ATOM      9  C   UNL     1       2.745  -2.666  -0.205  0.00  0.00    +0.034 C 
ATOM     10  C   UNL     1       3.642  -2.244   0.960  0.00  0.00    +0.029 C 
ATOM     11  C   UNL     1       5.018  -2.895   0.807  0.00  0.00    -0.008 C 
ATOM     12  C   UNL     1       4.864  -4.418   0.807  0.00  0.00    +0.007 C 
ATOM     13  C   UNL     1       3.967  -4.840  -0.358  0.00  0.00    -0.008 C 
ATOM     14  C   UNL     1       2.591  -4.188  -0.205  0.00  0.00    +0.029 C 
ATOM     15  C   UNL     1       4.600  -4.391  -1.677  0.00  0.00    +0.007 C 
ATOM     16  C   UNL     1       4.754  -2.869  -1.677  0.00  0.00    -0.008 C 
ATOM     17  C   UNL     1       5.651  -2.447  -0.511  0.00  0.00    +0.007 C 
ATOM     18  C   UNL     1       3.378  -2.217  -1.524  0.00  0.00    +0.029 C 
ENDBRANCH   7   9
BRANCH   6  19
ATOM     19  C   UNL     1      -1.175  -0.899  -0.001  0.00  0.00    +0.245 C 
ATOM     20  O   UNL     1      -1.083  -2.108   0.083  0.00  0.00    -0.270 OA
ATOM     21  N   UNL     1      -2.388  -0.319  -0.091  0.00  0.00    -0.325 N 
ATOM     22  H   UNL     1      -2.461   0.646  -0.158  0.00  0.00    +0.145 HD
ATOM     23  H   UNL     1      -3.188  -0.867  -0.090  0.00  0.00    +0.145 HD
ENDBRANCH   6  19
BRANCH   2  24
ATOM     24  N   UNL     1       1.083   3.468   0.045  0.00  0.00    -0.357 N 
ATOM     25  H   UNL     1       0.228   3.926   0.065  0.00  0.00    +0.142 HD
ATOM     26  H   UNL     1       1.907   3.979   0.042  0.00  0.00    +0.142 HD
ENDBRANCH   2  24
TORSDOF 3
