REMARK  Name = ZINC01159790
REMARK  6 active torsions:
REMARK  status: ('A' for Active; 'I' for Inactive)
REMARK    1  A    between atoms: C_1  and  C_2
REMARK    2  A    between atoms: C_8  and  C_13
REMARK    3  A    between atoms: C_9  and  O_12
REMARK    4  A    between atoms: C_13  and  C_15
REMARK    5  A    between atoms: C_13  and  N_22
REMARK    6  A    between atoms: N_22  and  C_23
REMARK                            x       y       z     vdW  Elec       q    Type
REMARK                         _______ _______ _______ _____ _____    ______ ____
ROOT
ATOM      1  C   UNL     1       0.345   3.139   7.005  0.00  0.00    +0.137 C 
ENDROOT
BRANCH   1   9
ATOM      2  C   UNL     1      -1.966   4.343   0.185  0.00  0.00    +0.065 C 
ATOM      3  C   UNL     1      -1.919   3.441   1.391  0.00  0.00    +0.039 A 
ATOM      4  C   UNL     1      -2.586   2.218   1.350  0.00  0.00    +0.023 A 
ATOM      5  C   UNL     1      -2.549   1.385   2.432  0.00  0.00    +0.012 A 
ATOM      6  C   UNL     1      -1.836   1.807   3.571  0.00  0.00    +0.004 A 
ATOM      7  C   UNL     1      -1.759   1.007   4.722  0.00  0.00    +0.010 A 
ATOM      8  C   UNL     1      -1.061   1.448   5.805  0.00  0.00    +0.010 A 
ATOM      9  C   UNL     1      -0.419   2.683   5.789  0.00  0.00    +0.021 A 
ATOM     10  C   UNL     1      -0.471   3.488   4.687  0.00  0.00    +0.148 A 
ATOM     11  C   UNL     1      -1.186   3.065   3.546  0.00  0.00    +0.113 A 
ATOM     12  N   UNL     1      -1.256   3.829   2.453  0.00  0.00    -0.248 NA
BRANCH  10  13
ATOM     13  O   UNL     1       0.162   4.690   4.689  0.00  0.00    -0.504 OA
ATOM     14  H   UNL     1      -0.386   5.423   5.004  0.00  0.00    +0.292 HD
ENDBRANCH  10  13
ENDBRANCH   1   9
BRANCH   1  15
ATOM     15  C   UNL     1       0.603   1.960   7.907  0.00  0.00    -0.004 A 
ATOM     16  C   UNL     1      -0.257   1.690   8.955  0.00  0.00    +0.007 A 
ATOM     17  C   UNL     1      -0.020   0.608   9.783  0.00  0.00    +0.000 A 
ATOM     18  C   UNL     1       1.076  -0.205   9.562  0.00  0.00    +0.001 A 
ATOM     19  C   UNL     1       1.937   0.064   8.515  0.00  0.00    +0.020 A 
ATOM     20  C   UNL     1       1.697   1.144   7.683  0.00  0.00    +0.046 A 
ATOM     21 CL   UNL     1       2.773   1.478   6.362  0.00  0.00    -0.083 Cl
ENDBRANCH   1  15
BRANCH   1  22
ATOM     22  N   UNL     1      -0.441   4.143   7.727  0.00  0.00    -0.320 N 
ATOM     23  H   UNL     1      -1.405   4.170   7.624  0.00  0.00    +0.148 HD
BRANCH  22  24
ATOM     24  C   UNL     1       0.196   5.057   8.559  0.00  0.00    +0.097 A 
ATOM     25  C   UNL     1       1.578   5.009   8.706  0.00  0.00    +0.041 A 
ATOM     26  C   UNL     1       2.199   5.928   9.532  0.00  0.00    +0.005 A 
ATOM     27  C   UNL     1       1.412   6.861  10.195  0.00  0.00    +0.018 A 
ATOM     28  C   UNL     1       0.045   6.847  10.008  0.00  0.00    +0.084 A 
ATOM     29  N   UNL     1      -0.599   5.963   9.199  0.00  0.00    -0.350 N 
ATOM     30  H   UNL     1      -1.618   5.976   9.078  0.00  0.00    +0.166 HD
ENDBRANCH  22  24
ENDBRANCH   1  22
TORSDOF 5
