REMARK  Name = ZINC63279948
REMARK  6 active torsions:
REMARK  status: ('A' for Active; 'I' for Inactive)
REMARK    1  A    between atoms: C_1  and  C_2
REMARK    2  A    between atoms: N_4  and  C_5
REMARK    3  A    between atoms: C_11  and  C_15
REMARK    4  A    between atoms: N_17  and  C_18
REMARK    5  A    between atoms: C_18  and  C_19
REMARK    6  A    between atoms: C_19  and  C_20
REMARK                            x       y       z     vdW  Elec       q    Type
REMARK                         _______ _______ _______ _____ _____    ______ ____
ROOT
ATOM      1  C   UNL     1      -4.708  -5.833  -3.900  0.00  0.00    +0.244 C 
ATOM      2  O   UNL     1      -4.074  -5.992  -4.925  0.00  0.00    -0.270 OA
ATOM      3  N   UNL     1      -5.926  -6.394  -3.766  0.00  0.00    -0.311 N 
ATOM      4  H   UNL     1      -6.431  -6.267  -2.948  0.00  0.00    +0.149 HD
ENDROOT
BRANCH   1  10
ATOM      5  C   UNL     1      -1.136  -2.159   0.001  0.00  0.00    +0.224 C 
ATOM      6  N   UNL     1      -2.469  -2.707   0.287  0.00  0.00    -0.316 N 
ATOM      7  C   UNL     1      -3.072  -3.479  -0.696  0.00  0.00    +0.043 A 
ATOM      8  C   UNL     1      -4.343  -4.083  -0.594  0.00  0.00    +0.025 A 
ATOM      9  C   UNL     1      -4.861  -4.832  -1.618  0.00  0.00    +0.015 A 
ATOM     10  C   UNL     1      -4.144  -5.024  -2.802  0.00  0.00    +0.038 A 
ATOM     11  C   UNL     1      -2.880  -4.434  -2.926  0.00  0.00    +0.029 A 
ATOM     12  C   UNL     1      -2.374  -3.687  -1.893  0.00  0.00    +0.033 A 
ATOM     13  S   UNL     1      -0.840  -2.807  -1.693  0.00  0.00    -0.082 S 
ATOM     14  H   UNL     1      -2.911  -2.535   1.133  0.00  0.00    +0.149 HD
BRANCH   5  18
ATOM     15  C   UNL     1      -0.018   1.503   0.010  0.00  0.00    +0.109 C 
ATOM     16  C   UNL     1       0.002  -0.004   0.002  0.00  0.00    +0.212 C 
ATOM     17  O   UNL     1       1.060  -0.596  -0.011  0.00  0.00    -0.276 OA
ATOM     18  N   UNL     1      -1.156  -0.694   0.009  0.00  0.00    -0.288 N 
ATOM     19  H   UNL     1      -2.002  -0.220   0.020  0.00  0.00    +0.151 HD
ENDBRANCH   5  18
ENDBRANCH   1  10
BRANCH   3  20
ATOM     20  C   UNL     1      -6.486  -7.197  -4.856  0.00  0.00    +0.109 C 
BRANCH  20  21
ATOM     21  C   UNL     1      -7.867  -7.715  -4.451  0.00  0.00    +0.052 C 
BRANCH  21  22
ATOM     22  C   UNL     1      -8.443  -8.541  -5.572  0.00  0.00    -0.040 C 
ATOM     23  C   UNL     1      -8.383  -9.885  -5.706  0.00  0.00    +0.000 A 
ATOM     24  C   UNL     1      -7.785 -10.941  -4.879  0.00  0.00    +0.030 A 
ATOM     25  C   UNL     1      -7.889 -12.228  -5.282  0.00  0.00    +0.042 A 
ATOM     26  C   UNL     1      -8.552 -12.578  -6.468  0.00  0.00    +0.022 A 
ATOM     27  C   UNL     1      -9.126 -11.665  -7.279  0.00  0.00    +0.027 A 
ATOM     28  C   UNL     1      -9.077 -10.281  -6.952  0.00  0.00    +0.043 A 
ATOM     29  N   UNL     1      -9.548  -9.222  -7.565  0.00  0.00    -0.380 N 
ATOM     30  C   UNL     1      -9.211  -8.034  -6.772  0.00  0.00    +0.144 C 
ATOM     31 CL   UNL     1      -7.183 -13.479  -4.307  0.00  0.00    -0.084 Cl
ATOM     32  H   UNL     1     -10.041  -9.225  -8.400  0.00  0.00    +0.160 HD
ENDBRANCH  21  22
ENDBRANCH  20  21
ENDBRANCH   3  20
TORSDOF 5
