REMARK  Name = ZINC32088883
REMARK  13 active torsions:
REMARK  status: ('A' for Active; 'I' for Inactive)
REMARK    1  A    between atoms: C_1  and  C_2
REMARK    2  A    between atoms: C_2  and  C_3
REMARK    3  A    between atoms: C_3  and  C_4
REMARK    4  A    between atoms: C_7  and  O_10
REMARK    5  A    between atoms: O_10  and  C_11
REMARK    6  A    between atoms: C_14  and  C_17
REMARK    7  A    between atoms: C_17  and  C_19
REMARK    8  A    between atoms: C_17  and  N_21
REMARK    9  A    between atoms: C_19  and  N_20
REMARK   10  A    between atoms: N_21  and  C_22
REMARK   11  A    between atoms: N_21  and  C_23
REMARK   12  A    between atoms: C_23  and  C_24
REMARK   13  A    between atoms: C_24  and  O_25
REMARK                            x       y       z     vdW  Elec       q    Type
REMARK                         _______ _______ _______ _____ _____    ______ ____
ROOT
ATOM      1  C   UNL     1      -1.263  -3.018   2.555  0.00  0.00    +0.128 A 
ATOM      2  C   UNL     1      -1.020  -2.365   3.754  0.00  0.00    +0.046 A 
ATOM      3  C   UNL     1      -0.750  -1.010   3.759  0.00  0.00    +0.009 A 
ATOM      4  C   UNL     1      -0.722  -0.305   2.570  0.00  0.00    -0.032 A 
ATOM      5  C   UNL     1      -0.970  -0.953   1.374  0.00  0.00    +0.009 A 
ATOM      6  C   UNL     1      -1.235  -2.308   1.363  0.00  0.00    +0.046 A 
ENDROOT
BRANCH   1   7
ATOM      7  O   UNL     1      -1.529  -4.351   2.547  0.00  0.00    -0.456 OA
BRANCH   7  11
ATOM      8  C   UNL     1       1.508  -6.924   1.464  0.00  0.00    -0.047 A 
ATOM      9  C   UNL     1       0.236  -7.416   1.695  0.00  0.00    +0.007 A 
ATOM     10  C   UNL     1      -0.782  -6.556   2.058  0.00  0.00    +0.046 A 
ATOM     11  C   UNL     1      -0.529  -5.198   2.191  0.00  0.00    +0.128 A 
ATOM     12  C   UNL     1       0.747  -4.707   1.952  0.00  0.00    +0.046 A 
ATOM     13  C   UNL     1       1.763  -5.572   1.595  0.00  0.00    +0.007 A 
BRANCH   8  14
ATOM     14  C   UNL     1       2.617  -7.865   1.069  0.00  0.00    +0.035 C 
BRANCH  14  16
ATOM     15  C   UNL     1       3.790  -8.941  -0.857  0.00  0.00    +0.004 C 
ATOM     16  C   UNL     1       2.664  -7.987  -0.455  0.00  0.00    +0.001 C 
ENDBRANCH  14  16
ENDBRANCH   8  14
ENDBRANCH   7  11
ENDBRANCH   1   7
BRANCH   4  17
ATOM     17  C   UNL     1      -0.428   1.173   2.578  0.00  0.00    +0.069 C 
BRANCH  17  18
ATOM     18  N   UNL     1      -0.938   1.781   1.342  0.00  0.00    -0.298 NA
ATOM     19  C   UNL     1       0.029   1.633   0.246  0.00  0.00    +0.105 C 
BRANCH  18  20
ATOM     20  C   UNL     1      -1.283   3.193   1.553  0.00  0.00    +0.112 C 
BRANCH  20  21
ATOM     21  C   UNL     1      -2.267   3.644   0.471  0.00  0.00    +0.171 C 
BRANCH  21  22
ATOM     22  O   UNL     1      -3.495   2.929   0.617  0.00  0.00    -0.394 OA
ATOM     23  H   UNL     1      -4.328   3.121  -0.076  0.00  0.00    +0.209 HD
ENDBRANCH  21  22
ENDBRANCH  20  21
ENDBRANCH  18  20
ENDBRANCH  17  18
BRANCH  17  24
ATOM     24  C   UNL     1       1.083   1.392   2.669  0.00  0.00    -0.063 C 
BRANCH  24  25
ATOM     25  N   UNL     1       1.368   2.832   2.705  0.00  0.00    +0.379 N 
ATOM     26  H   UNL     1       2.455   2.990   2.770  0.00  0.00    -0.090 HD
ATOM     27  H   UNL     1       0.880   3.281   3.583  0.00  0.00    -0.090 HD
ATOM     28  H   UNL     1       0.983   3.306   1.790  0.00  0.00    -0.090 HD
ENDBRANCH  24  25
ENDBRANCH  17  24
ENDBRANCH   4  17
TORSDOF 11
