REMARK  Name = ZINC01152893
REMARK  5 active torsions:
REMARK  status: ('A' for Active; 'I' for Inactive)
REMARK    1  A    between atoms: C_1  and  C_2
REMARK    2  A    between atoms: C_5  and  N_9
REMARK    3  A    between atoms: C_6  and  C_8
REMARK    4  A    between atoms: C_14  and  C_22
REMARK    5  A    between atoms: C_16  and  C_18
REMARK                            x       y       z     vdW  Elec       q    Type
REMARK                         _______ _______ _______ _____ _____    ______ ____
ROOT
ATOM      1  N   UNL     1       1.739   1.354  -0.103  0.00  0.00    -0.327 N 
ATOM      2  C   UNL     1       2.183   0.055   0.002  0.00  0.00    +0.180 C 
ATOM      3  N   UNL     1       3.534  -0.208   0.066  0.00  0.00    -0.297 N 
ATOM      4  C   UNL     1       4.450   0.818  -0.115  0.00  0.00    +0.231 A 
ATOM      5  N   UNL     1       4.011   2.061  -0.241  0.00  0.00    -0.208 NA
ATOM      6  C   UNL     1       4.858   3.064  -0.409  0.00  0.00    +0.149 A 
ATOM      7  C   UNL     1       6.218   2.798  -0.463  0.00  0.00    +0.064 A 
ATOM      8  C   UNL     1       6.642   1.485  -0.333  0.00  0.00    +0.149 A 
ATOM      9  N   UNL     1       5.742   0.530  -0.162  0.00  0.00    -0.208 NA
ATOM     10  H   UNL     1       2.368   2.089  -0.032  0.00  0.00    +0.169 HD
ATOM     11  H   UNL     1       1.535  -1.867   0.183  0.00  0.00    +0.159 HD
ATOM     12  H   UNL     1       3.845  -1.111   0.237  0.00  0.00    +0.172 HD
ATOM     13  N   UNL     1       1.261  -0.896   0.031  0.00  0.00    -0.371 N 
ATOM     14  H   UNL     1       0.272  -0.657  -0.099  0.00  0.00    +0.159 HD
ENDROOT
BRANCH   1  19
ATOM     15  C   UNL     1      -3.769   2.409  -0.958  0.00  0.00    +0.044 C 
ATOM     16  C   UNL     1      -2.306   2.129  -0.731  0.00  0.00    -0.050 A 
ATOM     17  C   UNL     1      -1.692   1.085  -1.399  0.00  0.00    +0.005 A 
ATOM     18  C   UNL     1      -0.352   0.822  -1.188  0.00  0.00    +0.026 A 
ATOM     19  C   UNL     1       0.381   1.614  -0.314  0.00  0.00    +0.045 A 
ATOM     20  C   UNL     1      -0.238   2.664   0.351  0.00  0.00    -0.027 A 
ATOM     21  C   UNL     1      -1.579   2.919   0.141  0.00  0.00    +0.008 A 
ATOM     22  C   UNL     1       0.553   3.526   1.301  0.00  0.00    +0.046 C 
ENDBRANCH   1  19
BRANCH   8  23
ATOM     23  C   UNL     1       8.110   1.149  -0.384  0.00  0.00    +0.434 C 
ATOM     24  F   UNL     1       8.272  -0.240  -0.344  0.00  0.00    -0.164 F 
ATOM     25  F   UNL     1       8.661   1.648  -1.569  0.00  0.00    -0.164 F 
ATOM     26  F   UNL     1       8.759   1.727   0.712  0.00  0.00    -0.164 F 
ENDBRANCH   8  23
BRANCH   6  27
ATOM     27  C   UNL     1       4.351   4.476  -0.546  0.00  0.00    +0.434 C 
ATOM     28  F   UNL     1       4.112   4.757  -1.896  0.00  0.00    -0.164 F 
ATOM     29  F   UNL     1       3.162   4.616   0.177  0.00  0.00    -0.164 F 
ATOM     30  F   UNL     1       5.308   5.366  -0.047  0.00  0.00    -0.164 F 
ENDBRANCH   6  27
TORSDOF 3
