REMARK  Name = ZINC66109680
REMARK  13 active torsions:
REMARK  status: ('A' for Active; 'I' for Inactive)
REMARK    1  A    between atoms: C_1  and  C_2
REMARK    2  A    between atoms: C_2  and  C_3
REMARK    3  A    between atoms: C_2  and  C_4
REMARK    4  A    between atoms: N_6  and  C_7
REMARK    5  A    between atoms: C_10  and  N_13
REMARK    6  A    between atoms: C_14  and  C_16
REMARK    7  A    between atoms: C_16  and  N_17
REMARK    8  A    between atoms: N_17  and  C_18
REMARK    9  A    between atoms: C_18  and  C_19
REMARK   10  A    between atoms: C_22  and  O_25
REMARK   11  A    between atoms: O_25  and  C_26
REMARK   12  A    between atoms: C_26  and  C_27
REMARK   13  A    between atoms: C_26  and  C_28
REMARK                            x       y       z     vdW  Elec       q    Type
REMARK                         _______ _______ _______ _____ _____    ______ ____
ROOT
ATOM      1  N   UNL     1      -6.368  -2.142  -1.920  0.00  0.00    -0.287 N 
ATOM      2  C   UNL     1      -7.396  -2.022  -2.783  0.00  0.00    +0.200 C 
ATOM      3  O   UNL     1      -7.197  -1.621  -3.911  0.00  0.00    -0.278 OA
ATOM      4  H   UNL     1      -6.534  -2.405  -1.002  0.00  0.00    +0.155 HD
ENDROOT
BRANCH   1   8
ATOM      5  C   UNL     1      -2.472  -1.383  -3.200  0.00  0.00    +0.034 A 
ATOM      6  C   UNL     1      -2.715  -2.385  -2.269  0.00  0.00    +0.025 A 
ATOM      7  C   UNL     1      -4.004  -2.636  -1.845  0.00  0.00    +0.025 A 
ATOM      8  C   UNL     1      -5.059  -1.887  -2.350  0.00  0.00    +0.033 A 
ATOM      9  C   UNL     1      -4.817  -0.885  -3.281  0.00  0.00    +0.025 A 
ATOM     10  C   UNL     1      -3.526  -0.630  -3.700  0.00  0.00    +0.025 A 
BRANCH   5  13
ATOM     11  C   UNL     1      -0.776   0.135  -3.896  0.00  0.00    +0.220 C 
ATOM     12  O   UNL     1      -1.579   1.042  -3.834  0.00  0.00    -0.275 OA
ATOM     13  N   UNL     1      -1.164  -1.128  -3.630  0.00  0.00    -0.285 N 
ATOM     14  H   UNL     1      -0.537  -1.861  -3.737  0.00  0.00    +0.155 HD
BRANCH  11  16
ATOM     15  C   UNL     1       1.015  -0.352  -5.541  0.00  0.00    +0.017 C 
ATOM     16  C   UNL     1       0.656   0.420  -4.270  0.00  0.00    +0.069 C 
ATOM     17  C   UNL     1       0.829   1.920  -4.518  0.00  0.00    +0.017 C 
ENDBRANCH  11  16
ENDBRANCH   5  13
ENDBRANCH   1   8
BRANCH   2  18
ATOM     18  C   UNL     1      -8.792  -2.385  -2.347  0.00  0.00    +0.016 C 
BRANCH  18  19
ATOM     19  N   UNL     1      -9.725  -2.167  -3.461  0.00  0.00    +0.387 N 
ATOM     20  H   UNL     1      -9.700  -1.197  -3.736  0.00  0.00    -0.085 HD
ATOM     21  H   UNL     1      -9.456  -2.745  -4.243  0.00  0.00    -0.085 HD
BRANCH  19  22
ATOM     22  C   UNL     1     -11.086  -2.521  -3.036  0.00  0.00    -0.046 C 
BRANCH  22  23
ATOM     23  C   UNL     1     -12.043  -2.298  -4.179  0.00  0.00    -0.064 A 
ATOM     24  C   UNL     1     -12.654  -1.068  -4.337  0.00  0.00    +0.005 A 
ATOM     25  C   UNL     1     -13.532  -0.861  -5.383  0.00  0.00    +0.046 A 
ATOM     26  C   UNL     1     -13.800  -1.889  -6.276  0.00  0.00    +0.121 A 
ATOM     27  C   UNL     1     -13.185  -3.122  -6.115  0.00  0.00    +0.046 A 
ATOM     28  C   UNL     1     -12.303  -3.322  -5.071  0.00  0.00    +0.005 A 
BRANCH  26  29
ATOM     29  O   UNL     1     -14.664  -1.688  -7.306  0.00  0.00    -0.489 OA
BRANCH  29  30
ATOM     30  C   UNL     1     -15.350  -0.435  -7.341  0.00  0.00    +0.167 C 
ATOM     31  C   UNL     1     -14.468   0.611  -8.027  0.00  0.00    +0.051 C 
ATOM     32  C   UNL     1     -16.657  -0.592  -8.123  0.00  0.00    +0.051 C 
ENDBRANCH  29  30
ENDBRANCH  26  29
ENDBRANCH  22  23
ENDBRANCH  19  22
ENDBRANCH  18  19
ENDBRANCH   2  18
TORSDOF 9
