REMARK  Name = ZINC27833111
REMARK  10 active torsions:
REMARK  status: ('A' for Active; 'I' for Inactive)
REMARK    1  A    between atoms: C_1  and  C_2
REMARK    2  A    between atoms: C_2  and  C_3
REMARK    3  A    between atoms: C_2  and  C_4
REMARK    4  A    between atoms: C_2  and  C_5
REMARK    5  A    between atoms: C_12  and  N_16
REMARK    6  A    between atoms: C_13  and  C_14
REMARK    7  A    between atoms: C_17  and  C_18
REMARK    8  A    between atoms: C_21  and  N_27
REMARK    9  A    between atoms: C_22  and  N_24
REMARK   10  A    between atoms: N_30  and  C_33
REMARK                            x       y       z     vdW  Elec       q    Type
REMARK                         _______ _______ _______ _____ _____    ______ ____
ROOT
ATOM      1  N   UNL     1      -2.207  -5.872   0.684  0.00  0.00    -0.247 NA
ATOM      2  C   UNL     1      -3.457  -6.167   0.320  0.00  0.00    +0.120 C 
ENDROOT
BRANCH   1   9
ATOM      3  C   UNL     1       0.002  -0.004   0.002  0.00  0.00    -0.000 C 
ATOM      4  C   UNL     1       0.742  -0.513   1.241  0.00  0.00    +0.009 C 
ATOM      5  C   UNL     1       1.031  -2.008   1.104  0.00  0.00    +0.037 C 
ATOM      6  C   UNL     1      -0.279  -2.730   0.789  0.00  0.00    -0.018 A 
ATOM      7  C   UNL     1      -1.387  -2.013   0.297  0.00  0.00    -0.003 A 
ATOM      8  S   UNL     1      -2.645  -3.166   0.076  0.00  0.00    -0.073 S 
ATOM      9  C   UNL     1      -1.777  -4.629   0.615  0.00  0.00    +0.119 A 
ATOM     10  C   UNL     1      -0.439  -4.078   0.966  0.00  0.00    +0.088 A 
ATOM     11  C   UNL     1      -1.437  -0.537   0.025  0.00  0.00    +0.047 C 
BRANCH   3  13
ATOM     12  C   UNL     1       1.417   2.055  -0.000  0.00  0.00    +0.011 C 
ATOM     13  C   UNL     1      -0.019   1.526   0.010  0.00  0.00    -0.035 C 
ATOM     14  C   UNL     1      -0.759   2.033  -1.229  0.00  0.00    +0.011 C 
ATOM     15  C   UNL     1      -0.735   2.019   1.269  0.00  0.00    +0.011 C 
ENDBRANCH   3  13
BRANCH  10  16
ATOM     16  C   UNL     1       0.618  -4.909   1.459  0.00  0.00    +0.102 C 
ATOM     17  N   UNL     1       1.456  -5.569   1.850  0.00  0.00    -0.191 NA
ENDBRANCH  10  16
ENDBRANCH   1   9
BRANCH   2  18
ATOM     18  C   UNL     1      -3.916  -7.491   0.393  0.00  0.00    -0.005 A 
ATOM     19  C   UNL     1      -3.053  -8.518   0.849  0.00  0.00    +0.011 A 
ATOM     20  C   UNL     1      -3.505  -9.796   0.922  0.00  0.00    +0.026 A 
ATOM     21  C   UNL     1      -4.820 -10.103   0.538  0.00  0.00    +0.060 A 
ATOM     22  C   UNL     1      -5.678  -9.091   0.081  0.00  0.00    +0.148 A 
ATOM     23  C   UNL     1      -5.240  -7.807   0.007  0.00  0.00    +0.044 A 
BRANCH  21  24
ATOM     24  N   UNL     1      -5.269 -11.400   0.610  0.00  0.00    -0.332 N 
ATOM     25  C   UNL     1      -5.284 -11.877   2.000  0.00  0.00    +0.086 C 
ATOM     26  C   UNL     1      -5.863 -13.293   2.045  0.00  0.00    -0.060 C 
ATOM     27  N   UNL     1      -5.053 -14.178   1.196  0.00  0.00    +0.380 N 
ATOM     28  C   UNL     1      -5.038 -13.702  -0.194  0.00  0.00    -0.060 C 
ATOM     29  C   UNL     1      -4.459 -12.286  -0.239  0.00  0.00    +0.086 C 
ATOM     30  C   UNL     1      -5.532 -15.564   1.272  0.00  0.00    -0.096 C 
ATOM     31  H   UNL     1      -4.019 -14.158   1.573  0.00  0.00    -0.082 HD
ENDBRANCH  21  24
BRANCH  22  32
ATOM     32  N   UNL     1      -7.062  -9.424  -0.322  0.00  0.00    +0.058 N 
ATOM     33  O   UNL     1      -7.869  -8.476  -0.752  0.00  0.00    -0.126 OA
ATOM     34  O   UNL     1      -7.488 -10.668  -0.251  0.00  0.00    -0.126 OA
ENDBRANCH  22  32
ENDBRANCH   2  18
TORSDOF 6
