REMARK  Name = ZINC10129724
REMARK  10 active torsions:
REMARK  status: ('A' for Active; 'I' for Inactive)
REMARK    1  A    between atoms: C_1  and  C_2
REMARK    2  A    between atoms: C_7  and  N_8
REMARK    3  A    between atoms: C_9  and  C_11
REMARK    4  A    between atoms: N_13  and  C_14
REMARK    5  A    between atoms: C_14  and  C_15
REMARK    6  A    between atoms: C_15  and  C_17
REMARK    7  A    between atoms: C_15  and  N_66
REMARK    8  A    between atoms: C_20  and  N_23
REMARK    9  A    between atoms: N_23  and  C_24
REMARK   10  A    between atoms: N_23  and  C_25
REMARK                            x       y       z     vdW  Elec       q    Type
REMARK                         _______ _______ _______ _____ _____    ______ ____
ROOT
ATOM      1  C   UNL     1       2.300   0.719   0.231  0.00  0.00    -0.020 C 
ENDROOT
BRANCH   1  11
ATOM      2  C   UNL     1       1.941  -0.287   2.407  0.00  0.00    -0.073 C 
ATOM      3  C   UNL     1       1.795  -1.651   3.082  0.00  0.00    +0.017 C 
ATOM      4  C   UNL     1       3.075  -2.435   2.941  0.00  0.00    -0.048 A 
ATOM      5  C   UNL     1       3.276  -3.528   3.771  0.00  0.00    +0.004 A 
ATOM      6  C   UNL     1       4.433  -4.275   3.672  0.00  0.00    +0.000 A 
ATOM      7  C   UNL     1       5.395  -3.932   2.741  0.00  0.00    +0.000 A 
ATOM      8  C   UNL     1       5.196  -2.843   1.915  0.00  0.00    +0.002 A 
ATOM      9  C   UNL     1       4.036  -2.090   2.015  0.00  0.00    -0.061 A 
ATOM     10  C   UNL     1       3.868  -0.907   1.098  0.00  0.00    -0.042 C 
ATOM     11  N   UNL     1       2.450  -0.513   1.039  0.00  0.00    +0.388 N 
ATOM     12  H   UNL     1       1.910  -1.268   0.601  0.00  0.00    -0.080 HD
ENDBRANCH   1  11
BRANCH   1  13
ATOM     13  C   UNL     1       3.441   1.665   0.505  0.00  0.00    -0.059 A 
ATOM     14  C   UNL     1       3.644   2.148   1.785  0.00  0.00    +0.004 A 
ATOM     15  C   UNL     1       4.692   3.010   2.041  0.00  0.00    +0.023 A 
ATOM     16  C   UNL     1       5.535   3.401   1.008  0.00  0.00    +0.029 A 
ATOM     17  C   UNL     1       5.325   2.919  -0.277  0.00  0.00    +0.023 A 
ATOM     18  C   UNL     1       4.278   2.052  -0.525  0.00  0.00    +0.004 A 
BRANCH  16  19
ATOM     19  N   UNL     1       6.592   4.278   1.262  0.00  0.00    -0.336 N 
ATOM     20  C   UNL     1       7.480   4.690   0.172  0.00  0.00    +0.129 C 
ATOM     21  C   UNL     1       6.813   4.787   2.618  0.00  0.00    +0.129 C 
ENDBRANCH  16  19
ENDBRANCH   1  13
BRANCH   1  22
ATOM     22  C   UNL     1       0.977   1.399   0.587  0.00  0.00    +0.094 C 
BRANCH  22  25
ATOM     23  C   UNL     1      -1.405   0.901   0.462  0.00  0.00    +0.299 C 
ATOM     24  O   UNL     1      -1.621   1.922   1.082  0.00  0.00    -0.265 OA
ATOM     25  N   UNL     1      -0.139   0.548   0.166  0.00  0.00    -0.309 N 
ATOM     26  H   UNL     1       0.034  -0.268  -0.330  0.00  0.00    +0.149 HD
BRANCH  23  28
ATOM     27  N   UNL     1      -3.809   0.390   0.323  0.00  0.00    -0.278 N 
ATOM     28  C   UNL     1      -2.543   0.037   0.027  0.00  0.00    +0.303 C 
ATOM     29  O   UNL     1      -2.327  -0.984  -0.593  0.00  0.00    -0.265 OA
ATOM     30  H   UNL     1      -3.985   1.227   0.781  0.00  0.00    +0.155 HD
BRANCH  27  37
ATOM     31  C   UNL     1      -6.178   0.483   1.897  0.00  0.00    +0.045 C 
ATOM     32  C   UNL     1      -6.044  -0.436   0.710  0.00  0.00    -0.029 A 
ATOM     33  C   UNL     1      -7.090  -1.266   0.357  0.00  0.00    +0.005 A 
ATOM     34  C   UNL     1      -6.969  -2.109  -0.732  0.00  0.00    +0.000 A 
ATOM     35  C   UNL     1      -5.801  -2.124  -1.472  0.00  0.00    +0.002 A 
ATOM     36  C   UNL     1      -4.753  -1.293  -1.128  0.00  0.00    +0.023 A 
ATOM     37  C   UNL     1      -4.869  -0.449  -0.031  0.00  0.00    +0.037 A 
ENDBRANCH  27  37
ENDBRANCH  23  28
ENDBRANCH  22  25
ENDBRANCH   1  22
TORSDOF 7
