REMARK  Name = ZINC16789574
REMARK  9 active torsions:
REMARK  status: ('A' for Active; 'I' for Inactive)
REMARK    1  A    between atoms: C_1  and  C_2
REMARK    2  A    between atoms: C_5  and  N_8
REMARK    3  A    between atoms: C_9  and  C_28
REMARK    4  A    between atoms: C_12  and  S_13
REMARK    5  A    between atoms: S_13  and  C_14
REMARK    6  A    between atoms: C_14  and  C_15
REMARK    7  A    between atoms: N_17  and  C_18
REMARK    8  A    between atoms: C_21  and  S_24
REMARK    9  A    between atoms: S_24  and  N_27
REMARK                            x       y       z     vdW  Elec       q    Type
REMARK                         _______ _______ _______ _____ _____    ______ ____
ROOT
ATOM      1  S   UNL     1       1.570  -3.568   0.376  0.00  0.00    -0.076 S 
ENDROOT
BRANCH   1   6
ATOM      2  N   UNL     1       1.084  -0.812   0.283  0.00  0.00    -0.268 N 
ATOM      3  C   UNL     1      -0.005  -0.004   0.026  0.00  0.00    +0.205 A 
ATOM      4  N   UNL     1      -1.019  -0.799  -0.239  0.00  0.00    -0.125 NA
ATOM      5  N   UNL     1      -0.647  -2.027  -0.161  0.00  0.00    -0.122 NA
ATOM      6  C   UNL     1       0.626  -2.096   0.158  0.00  0.00    +0.197 A 
BRANCH   2  11
ATOM      7  C   UNL     1       6.352   0.842   1.597  0.00  0.00    +0.044 C 
ATOM      8  C   UNL     1       4.953   0.403   1.248  0.00  0.00    -0.050 A 
ATOM      9  C   UNL     1       4.198  -0.295   2.172  0.00  0.00    +0.005 A 
ATOM     10  C   UNL     1       2.916  -0.699   1.856  0.00  0.00    +0.026 A 
ATOM     11  C   UNL     1       2.385  -0.403   0.608  0.00  0.00    +0.051 A 
ATOM     12  C   UNL     1       3.147   0.293  -0.321  0.00  0.00    +0.026 A 
ATOM     13  C   UNL     1       4.427   0.699   0.004  0.00  0.00    +0.005 A 
ENDBRANCH   2  11
BRANCH   3  14
ATOM     14  C   UNL     1      -0.026   1.466   0.038  0.00  0.00    +0.172 A 
ATOM     15  C   UNL     1      -1.141   2.250   0.057  0.00  0.00    +0.053 A 
ATOM     16  C   UNL     1      -0.696   3.587   0.066  0.00  0.00    +0.042 A 
ATOM     17  C   UNL     1       0.651   3.555   0.044  0.00  0.00    +0.196 A 
ATOM     18  O   UNL     1       1.053   2.273   0.028  0.00  0.00    -0.460 OA
ENDBRANCH   3  14
ENDBRANCH   1   6
BRANCH   1  19
ATOM     19  C   UNL     1       0.297  -4.810   0.041  0.00  0.00    +0.173 C 
BRANCH  19  20
ATOM     20  C   UNL     1       0.893  -6.188   0.174  0.00  0.00    +0.227 C 
ATOM     21  O   UNL     1       2.063  -6.317   0.466  0.00  0.00    -0.275 OA
ATOM     22  N   UNL     1       0.126  -7.277  -0.032  0.00  0.00    -0.285 N 
ATOM     23  H   UNL     1      -0.824  -7.176  -0.200  0.00  0.00    +0.155 HD
BRANCH  22  24
ATOM     24  C   UNL     1       0.700  -8.553  -0.005  0.00  0.00    +0.034 A 
ATOM     25  C   UNL     1       0.226  -9.547  -0.850  0.00  0.00    +0.025 A 
ATOM     26  C   UNL     1       0.799 -10.804  -0.826  0.00  0.00    +0.030 A 
ATOM     27  C   UNL     1       1.835 -11.075   0.049  0.00  0.00    +0.105 A 
ATOM     28  C   UNL     1       2.305 -10.089   0.896  0.00  0.00    +0.030 A 
ATOM     29  C   UNL     1       1.740  -8.829   0.872  0.00  0.00    +0.025 A 
BRANCH  27  30
ATOM     30  S   UNL     1       2.558 -12.682   0.083  0.00  0.00    +0.056 S 
ATOM     31  O   UNL     1       2.306 -13.268  -1.187  0.00  0.00    -0.153 OA
ATOM     32  O   UNL     1       3.871 -12.525   0.603  0.00  0.00    -0.153 OA
BRANCH  30  33
ATOM     33  N   UNL     1       1.714 -13.575   1.193  0.00  0.00    -0.204 NA
ATOM     34  H   UNL     1       0.973 -13.176   1.675  0.00  0.00    +0.144 HD
ATOM     35  H   UNL     1       1.960 -14.498   1.361  0.00  0.00    +0.144 HD
ENDBRANCH  30  33
ENDBRANCH  27  30
ENDBRANCH  22  24
ENDBRANCH  19  20
ENDBRANCH   1  19
TORSDOF 8
