REMARK  Name = ZINC64220232
REMARK  11 active torsions:
REMARK  status: ('A' for Active; 'I' for Inactive)
REMARK    1  A    between atoms: C_1  and  C_2
REMARK    2  A    between atoms: C_2  and  O_3
REMARK    3  A    between atoms: O_3  and  C_4
REMARK    4  A    between atoms: C_4  and  C_6
REMARK    5  A    between atoms: C_4  and  O_24
REMARK    6  A    between atoms: C_6  and  N_7
REMARK    7  A    between atoms: N_7  and  C_8
REMARK    8  A    between atoms: C_8  and  N_10
REMARK    9  A    between atoms: C_8  and  S_23
REMARK   10  A    between atoms: N_10  and  N_22
REMARK   11  A    between atoms: C_14  and  C_17
REMARK                            x       y       z     vdW  Elec       q    Type
REMARK                         _______ _______ _______ _____ _____    ______ ____
ROOT
ATOM      1  N   UNL     1      -5.747  -1.931  -2.167  0.00  0.00    -0.226 N 
ATOM      2  C   UNL     1      -6.463  -2.954  -2.779  0.00  0.00    +0.155 A 
ATOM      3  C   UNL     1      -5.894  -3.658  -3.837  0.00  0.00    +0.083 A 
ATOM      4  C   UNL     1      -6.618  -4.673  -4.436  0.00  0.00    +0.037 A 
ATOM      5  C   UNL     1      -7.891  -4.952  -3.956  0.00  0.00    +0.074 A 
ATOM      6  C   UNL     1      -8.393  -4.213  -2.904  0.00  0.00    +0.125 A 
ATOM      7  N   UNL     1      -7.678  -3.253  -2.348  0.00  0.00    -0.237 NA
ATOM      8 CL   UNL     1      -4.298  -3.267  -4.397  0.00  0.00    -0.080 Cl
ENDROOT
BRANCH   5   9
ATOM      9  C   UNL     1      -8.716  -6.048  -4.579  0.00  0.00    +0.419 C 
ATOM     10  F   UNL     1      -8.460  -7.256  -3.919  0.00  0.00    -0.166 F 
ATOM     11  F   UNL     1     -10.074  -5.733  -4.463  0.00  0.00    -0.166 F 
ATOM     12  F   UNL     1      -8.380  -6.175  -5.931  0.00  0.00    -0.166 F 
ENDBRANCH   5   9
BRANCH   1  13
ATOM     13  N   UNL     1      -5.753  -0.676  -2.705  0.00  0.00    -0.250 NA
ATOM     14  H   UNL     1      -6.292  -0.651  -3.558  0.00  0.00    +0.141 HD
ATOM     15  H   UNL     1      -6.096   0.001  -2.041  0.00  0.00    +0.141 HD
ENDBRANCH   1  13
BRANCH   1  16
ATOM     16  C   UNL     1      -4.985  -2.200  -0.945  0.00  0.00    +0.215 C 
BRANCH  16  17
ATOM     17  N   UNL     1      -3.565  -1.907  -1.178  0.00  0.00    -0.284 NA
ATOM     18  H   UNL     1      -3.409  -0.913  -1.258  0.00  0.00    +0.125 HD
BRANCH  17  19
ATOM     19  C   UNL     1      -2.727  -2.488  -0.121  0.00  0.00    +0.144 C 
BRANCH  19  20
ATOM     20  C   UNL     1      -1.258  -2.163  -0.398  0.00  0.00    +0.261 C 
BRANCH  20  21
ATOM     21  O   UNL     1      -0.878  -2.711  -1.662  0.00  0.00    -0.366 OA
ATOM     22  H   UNL     1      -1.391  -2.371  -2.408  0.00  0.00    +0.213 HD
ENDBRANCH  20  21
BRANCH  20  23
ATOM     23  O   UNL     1      -1.080  -0.745  -0.421  0.00  0.00    -0.350 OA
BRANCH  23  25
ATOM     24  C   UNL     1       0.351   1.197  -0.573  0.00  0.00    +0.034 C 
ATOM     25  C   UNL     1       0.281  -0.331  -0.561  0.00  0.00    +0.159 C 
ENDBRANCH  23  25
ENDBRANCH  20  23
ENDBRANCH  19  20
ENDBRANCH  17  19
ENDBRANCH  16  17
BRANCH  16  26
ATOM     26  S   UNL     1      -5.607  -1.151   0.398  0.00  0.00    -0.139 S 
ATOM     27  H   UNL     1      -5.415   0.102  -0.053  0.00  0.00    +0.105 HD
ENDBRANCH  16  26
ENDBRANCH   1  16
TORSDOF 10
