REMARK  Name = ZINC64372971
REMARK  5 active torsions:
REMARK  status: ('A' for Active; 'I' for Inactive)
REMARK    1  A    between atoms: C_6  and  C_10
REMARK    2  A    between atoms: C_10  and  N_11
REMARK    3  A    between atoms: C_12  and  C_14
REMARK    4  A    between atoms: C_14  and  C_15
REMARK    5  A    between atoms: C_21  and  C_23
REMARK                            x       y       z     vdW  Elec       q    Type
REMARK                         _______ _______ _______ _____ _____    ______ ____
ROOT
ATOM      1  N   UNL     1       3.030  -2.089  -2.484  0.00  0.00    -0.311 N 
ATOM      2  C   UNL     1       3.319  -2.551  -3.717  0.00  0.00    +0.219 C 
ATOM      3  O   UNL     1       4.003  -3.545  -3.847  0.00  0.00    -0.275 OA
ATOM      4  H   UNL     1       2.483  -1.295  -2.380  0.00  0.00    +0.149 HD
ENDROOT
BRANCH   1   5
ATOM      5  C   UNL     1       3.542  -2.787  -1.302  0.00  0.00    +0.150 C 
BRANCH   5  11
ATOM      6  C   UNL     1      -0.016   1.344   0.009  0.00  0.00    +0.002 A 
ATOM      7  C   UNL     1       1.158   2.118   0.002  0.00  0.00    +0.002 A 
ATOM      8  C   UNL     1       2.389   1.570  -0.013  0.00  0.00    +0.027 A 
ATOM      9  C   UNL     1       2.533   0.108  -0.022  0.00  0.00    +0.060 A 
ATOM     10  N   UNL     1       3.569  -0.680  -0.036  0.00  0.00    -0.362 N 
ATOM     11  C   UNL     1       3.071  -2.062  -0.039  0.00  0.00    +0.191 C 
ATOM     12  N   UNL     1       1.606  -1.974  -0.024  0.00  0.00    -0.362 N 
ATOM     13  C   UNL     1       1.290  -0.712  -0.014  0.00  0.00    +0.060 A 
ATOM     14  C   UNL     1       0.002  -0.004   0.002  0.00  0.00    +0.027 A 
ATOM     15  H   UNL     1       4.499  -0.405  -0.045  0.00  0.00    +0.162 HD
ATOM     16  H   UNL     1       0.987  -2.721  -0.022  0.00  0.00    +0.162 HD
ENDBRANCH   5  11
ENDBRANCH   1   5
BRANCH   2  17
ATOM     17  C   UNL     1       2.793  -1.834  -4.933  0.00  0.00    +0.151 C 
BRANCH  17  18
ATOM     18  C   UNL     1       3.256  -2.548  -6.177  0.00  0.00    +0.059 A 
ATOM     19  C   UNL     1       2.377  -2.971  -7.119  0.00  0.00    +0.072 A 
ATOM     20  S   UNL     1       3.490  -3.714  -8.301  0.00  0.00    -0.060 S 
ATOM     21  C   UNL     1       4.931  -3.412  -7.487  0.00  0.00    +0.165 A 
ATOM     22  N   UNL     1       4.535  -2.784  -6.401  0.00  0.00    -0.229 NA
ATOM     23  N   UNL     1       6.225  -3.742  -7.870  0.00  0.00    -0.261 N 
ATOM     24  C   UNL     1       6.439  -4.389  -9.033  0.00  0.00    +0.250 C 
ATOM     25  O   UNL     1       5.499  -4.684  -9.747  0.00  0.00    -0.270 OA
ATOM     26  H   UNL     1       6.974  -3.507  -7.301  0.00  0.00    +0.157 HD
BRANCH  24  27
ATOM     27  C   UNL     1       7.809  -4.739  -9.439  0.00  0.00    +0.044 A 
ATOM     28  C   UNL     1       8.077  -5.426 -10.680  0.00  0.00    +0.020 A 
ATOM     29  C   UNL     1       9.375  -5.688 -10.935  0.00  0.00    +0.046 A 
ATOM     30  S   UNL     1      10.210  -5.013  -9.516  0.00  0.00    -0.104 S 
ATOM     31  C   UNL     1       8.896  -4.420  -8.656  0.00  0.00    +0.058 A 
ENDBRANCH  24  27
ENDBRANCH  17  18
ENDBRANCH   2  17
TORSDOF 5
