REMARK  Name = ZINC11864937
REMARK  11 active torsions:
REMARK  status: ('A' for Active; 'I' for Inactive)
REMARK    1  A    between atoms: C_1  and  N_47
REMARK    2  A    between atoms: C_2  and  N_47
REMARK    3  A    between atoms: C_3  and  C_4
REMARK    4  A    between atoms: C_3  and  N_47
REMARK    5  A    between atoms: C_4  and  O_5
REMARK    6  A    between atoms: O_5  and  C_6
REMARK    7  A    between atoms: C_11  and  C_12
REMARK    8  A    between atoms: C_12  and  N_13
REMARK    9  A    between atoms: N_13  and  S_14
REMARK   10  A    between atoms: S_14  and  C_17
REMARK   11  A    between atoms: C_20  and  N_23
REMARK                            x       y       z     vdW  Elec       q    Type
REMARK                         _______ _______ _______ _____ _____    ______ ____
ROOT
ATOM      1  C   UNL     1       2.311   4.048   2.442  0.00  0.00    +0.144 C 
ENDROOT
BRANCH   1   7
ATOM      2  C   UNL     1       1.417   4.497   4.741  0.00  0.00    +0.125 A 
ATOM      3  C   UNL     1       1.355   5.266   5.893  0.00  0.00    +0.047 A 
ATOM      4  C   UNL     1       2.101   6.425   5.990  0.00  0.00    +0.023 A 
ATOM      5  C   UNL     1       2.914   6.815   4.940  0.00  0.00    +0.042 A 
ATOM      6  C   UNL     1       2.982   6.045   3.793  0.00  0.00    +0.028 A 
ATOM      7  C   UNL     1       2.237   4.886   3.692  0.00  0.00    +0.011 A 
ATOM      8 CL   UNL     1       3.850   8.271   5.064  0.00  0.00    -0.084 Cl
BRANCH   2   9
ATOM      9  O   UNL     1       0.679   3.359   4.641  0.00  0.00    -0.493 OA
BRANCH   9  10
ATOM     10  C   UNL     1      -0.143   3.020   5.760  0.00  0.00    +0.210 C 
BRANCH  10  11
ATOM     11  C   UNL     1      -0.892   1.718   5.466  0.00  0.00    -0.038 C 
BRANCH  11  14
ATOM     12  C   UNL     1       0.737   0.353   6.625  0.00  0.00    -0.096 C 
ATOM     13  C   UNL     1      -0.580  -0.597   4.829  0.00  0.00    -0.096 C 
ATOM     14  N   UNL     1       0.091   0.624   5.324  0.00  0.00    +0.378 N 
ATOM     15  H   UNL     1       0.809   0.907   4.647  0.00  0.00    -0.082 HD
ENDBRANCH  11  14
ENDBRANCH  10  11
ENDBRANCH   9  10
ENDBRANCH   2   9
ENDBRANCH   1   7
BRANCH   1  16
ATOM     16  N   UNL     1       1.149   4.329   1.596  0.00  0.00    -0.186 NA
ATOM     17  H   UNL     1       0.383   4.798   1.964  0.00  0.00    +0.148 HD
BRANCH  16  18
ATOM     18  S   UNL     1       1.142   3.848   0.011  0.00  0.00    +0.059 S 
ATOM     19  O   UNL     1       2.375   4.277  -0.549  0.00  0.00    -0.153 OA
ATOM     20  O   UNL     1      -0.115   4.236  -0.526  0.00  0.00    -0.153 OA
BRANCH  18  21
ATOM     21  C   UNL     1       1.171   2.086   0.002  0.00  0.00    +0.105 A 
ATOM     22  C   UNL     1      -0.017   1.377   0.010  0.00  0.00    +0.030 A 
ATOM     23  C   UNL     1       0.002  -0.004   0.002  0.00  0.00    +0.024 A 
ATOM     24  C   UNL     1       1.215  -0.681  -0.013  0.00  0.00    +0.025 A 
ATOM     25  C   UNL     1       2.406   0.035  -0.021  0.00  0.00    +0.024 A 
ATOM     26  C   UNL     1       2.380   1.416  -0.013  0.00  0.00    +0.030 A 
BRANCH  24  27
ATOM     27  N   UNL     1       1.238  -2.077  -0.021  0.00  0.00    -0.358 N 
ATOM     28  H   UNL     1       0.406  -2.576  -0.015  0.00  0.00    +0.142 HD
ATOM     29  H   UNL     1       2.086  -2.548  -0.031  0.00  0.00    +0.142 HD
ENDBRANCH  24  27
ENDBRANCH  18  21
ENDBRANCH  16  18
ENDBRANCH   1  16
TORSDOF 9
