REMARK  Name = ZINC35047417
REMARK  8 active torsions:
REMARK  status: ('A' for Active; 'I' for Inactive)
REMARK    1  A    between atoms: C_1  and  C_2
REMARK    2  A    between atoms: C_2  and  O_3
REMARK    3  A    between atoms: O_3  and  C_4
REMARK    4  A    between atoms: C_5  and  C_12
REMARK    5  A    between atoms: C_12  and  N_13
REMARK    6  A    between atoms: N_13  and  C_14
REMARK    7  A    between atoms: C_14  and  C_16
REMARK    8  A    between atoms: C_14  and  C_17
REMARK                            x       y       z     vdW  Elec       q    Type
REMARK                         _______ _______ _______ _____ _____    ______ ____
ROOT
ATOM      1  C   UNL     1       0.606  -1.846  -1.256  0.00  0.00    +0.136 A 
ATOM      2  C   UNL     1       1.710  -2.588  -0.862  0.00  0.00    -0.021 A 
ATOM      3  C   UNL     1       1.802  -3.923  -1.206  0.00  0.00    +0.020 A 
ATOM      4  C   UNL     1       0.794  -4.520  -1.942  0.00  0.00    +0.019 A 
ATOM      5  C   UNL     1      -0.307  -3.783  -2.337  0.00  0.00    +0.034 A 
ATOM      6  C   UNL     1      -0.407  -2.448  -1.990  0.00  0.00    +0.061 A 
ATOM      7 BR   UNL     1      -1.917  -1.442  -2.522  0.00  0.00    -0.046 Br
ATOM      8 BR   UNL     1       0.924  -6.348  -2.412  0.00  0.00    -0.050 Br
ENDROOT
BRANCH   1   9
ATOM      9  O   UNL     1       0.513  -0.533  -0.918  0.00  0.00    -0.491 OA
BRANCH   9  11
ATOM     10  C   UNL     1       0.673   1.834  -1.380  0.00  0.00    +0.048 C 
ATOM     11  C   UNL     1       0.969   0.419  -1.881  0.00  0.00    +0.226 C 
ENDBRANCH   9  11
ENDBRANCH   1   9
BRANCH   2  12
ATOM     12  C   UNL     1       2.808  -1.939  -0.060  0.00  0.00    -0.042 C 
BRANCH  12  13
ATOM     13  N   UNL     1       2.381  -1.810   1.340  0.00  0.00    +0.389 N 
ATOM     14  H   UNL     1       1.601  -1.173   1.396  0.00  0.00    -0.084 HD
ATOM     15  H   UNL     1       2.103  -2.714   1.691  0.00  0.00    -0.084 HD
BRANCH  13  16
ATOM     16  C   UNL     1       3.495  -1.292   2.145  0.00  0.00    +0.013 C 
ATOM     17  C   UNL     1       3.835   0.129   1.693  0.00  0.00    -0.004 C 
BRANCH  16  18
ATOM     18  C   UNL     1       3.099  -1.276   3.599  0.00  0.00    +0.196 C 
ATOM     19  O   UNL     1       1.996  -1.657   3.931  0.00  0.00    -0.278 OA
ATOM     20  N   UNL     1       3.969  -0.837   4.530  0.00  0.00    -0.331 N 
ATOM     21  H   UNL     1       4.850  -0.531   4.264  0.00  0.00    +0.145 HD
ATOM     22  H   UNL     1       3.713  -0.826   5.466  0.00  0.00    +0.145 HD
ENDBRANCH  16  18
ENDBRANCH  13  16
ENDBRANCH  12  13
ENDBRANCH   2  12
TORSDOF 6
