REMARK  Name = ZINC10341217
REMARK  5 active torsions:
REMARK  status: ('A' for Active; 'I' for Inactive)
REMARK    1  A    between atoms: C_3  and  S_19
REMARK    2  A    between atoms: C_6  and  N_7
REMARK    3  A    between atoms: C_8  and  C_10
REMARK    4  A    between atoms: C_10  and  N_40
REMARK    5  A    between atoms: S_19  and  N_22
REMARK                            x       y       z     vdW  Elec       q    Type
REMARK                         _______ _______ _______ _____ _____    ______ ____
ROOT
ATOM      1  N   UNL     1       1.158   3.485   0.033  0.00  0.00    -0.287 N 
ATOM      2  C   UNL     1       2.315   4.176   0.054  0.00  0.00    +0.201 C 
ATOM      3  O   UNL     1       3.372   3.594  -0.065  0.00  0.00    -0.278 OA
ATOM      4  H   UNL     1       0.311   3.957   0.048  0.00  0.00    +0.155 HD
ENDROOT
BRANCH   1  10
ATOM      5  C   UNL     1       0.214   1.354   0.667  0.00  0.00    +0.025 A 
ATOM      6  C   UNL     1       0.237  -0.026   0.621  0.00  0.00    +0.030 A 
ATOM      7  C   UNL     1       1.222  -0.679  -0.098  0.00  0.00    +0.105 A 
ATOM      8  C   UNL     1       2.185   0.048  -0.773  0.00  0.00    +0.030 A 
ATOM      9  C   UNL     1       2.167   1.428  -0.732  0.00  0.00    +0.025 A 
ATOM     10  C   UNL     1       1.180   2.087  -0.011  0.00  0.00    +0.033 A 
BRANCH   7  11
ATOM     11  S   UNL     1       1.249  -2.440  -0.153  0.00  0.00    +0.056 S 
ATOM     12  O   UNL     1       2.588  -2.816  -0.443  0.00  0.00    -0.153 OA
ATOM     13  O   UNL     1       0.564  -2.893   1.007  0.00  0.00    -0.153 OA
BRANCH  11  14
ATOM     14  N   UNL     1       0.335  -2.903  -1.454  0.00  0.00    -0.204 NA
ATOM     15  H   UNL     1      -0.090  -2.232  -2.011  0.00  0.00    +0.144 HD
ATOM     16  H   UNL     1       0.224  -3.845  -1.658  0.00  0.00    +0.144 HD
ENDBRANCH  11  14
ENDBRANCH   7  11
ENDBRANCH   1  10
BRANCH   2  17
ATOM     17  C   UNL     1       2.295   5.673   0.225  0.00  0.00    +0.019 C 
BRANCH  17  26
ATOM     18  C   UNL     1       4.432   5.733   1.363  0.00  0.00    -0.073 C 
ATOM     19  C   UNL     1       5.932   5.936   1.089  0.00  0.00    +0.024 C 
ATOM     20  C   UNL     1       6.110   7.311   0.531  0.00  0.00    -0.011 A 
ATOM     21  C   UNL     1       5.130   8.129   0.055  0.00  0.00    -0.054 A 
ATOM     22  C   UNL     1       5.535   9.376  -0.416  0.00  0.00    +0.009 A 
ATOM     23  C   UNL     1       6.845   9.717  -0.387  0.00  0.00    +0.045 A 
ATOM     24  S   UNL     1       7.591   8.259   0.327  0.00  0.00    -0.101 S 
ATOM     25  C   UNL     1       3.681   7.651   0.061  0.00  0.00    -0.042 C 
ATOM     26  N   UNL     1       3.682   6.173   0.162  0.00  0.00    +0.388 N 
ATOM     27  H   UNL     1       4.138   5.785  -0.673  0.00  0.00    -0.081 HD
ENDBRANCH  17  26
ENDBRANCH   2  17
TORSDOF 5
