REMARK  Name = ZINC43199470
REMARK  11 active torsions:
REMARK  status: ('A' for Active; 'I' for Inactive)
REMARK    1  A    between atoms: C_1  and  N_2
REMARK    2  A    between atoms: N_2  and  C_3
REMARK    3  A    between atoms: N_2  and  C_4
REMARK    4  A    between atoms: C_7  and  N_10
REMARK    5  A    between atoms: N_10  and  C_11
REMARK    6  A    between atoms: C_16  and  N_17
REMARK    7  A    between atoms: N_17  and  C_18
REMARK    8  A    between atoms: N_24  and  C_35
REMARK    9  A    between atoms: C_27  and  N_32
REMARK   10  A    between atoms: N_32  and  C_33
REMARK   11  A    between atoms: N_32  and  C_34
REMARK                            x       y       z     vdW  Elec       q    Type
REMARK                         _______ _______ _______ _____ _____    ______ ____
ROOT
ATOM      1  C   UNL     1      -1.050  -2.369  -5.918  0.00  0.00    +0.055 A 
ATOM      2  C   UNL     1      -1.654  -1.148  -5.857  0.00  0.00    +0.055 A 
ATOM      3  C   UNL     1      -2.073  -0.517  -7.046  0.00  0.00    +0.090 A 
ATOM      4  C   UNL     1      -1.845  -1.196  -8.327  0.00  0.00    +0.074 A 
ATOM      5  C   UNL     1      -1.217  -2.454  -8.330  0.00  0.00    +0.053 A 
ATOM      6  C   UNL     1      -0.827  -3.017  -7.150  0.00  0.00    +0.055 A 
ATOM      7  N   UNL     1      -2.234  -0.619  -9.470  0.00  0.00    -0.306 N 
ATOM      8  C   UNL     1      -2.830   0.580  -9.433  0.00  0.00    +0.074 A 
ATOM      9  C   UNL     1      -3.251   1.215 -10.612  0.00  0.00    +0.051 A 
ATOM     10  C   UNL     1      -3.862   2.447 -10.538  0.00  0.00    +0.031 A 
ATOM     11  C   UNL     1      -4.072   3.083  -9.307  0.00  0.00    +0.025 A 
ATOM     12  C   UNL     1      -3.684   2.513  -8.139  0.00  0.00    +0.031 A 
ATOM     13  C   UNL     1      -3.054   1.250  -8.149  0.00  0.00    +0.088 A 
ATOM     14  N   UNL     1      -2.666   0.673  -7.014  0.00  0.00    -0.244 NA
ENDROOT
BRANCH   7  15
ATOM     15  C   UNL     1      -2.022  -1.250 -10.671  0.00  0.00    +0.047 A 
ATOM     16  C   UNL     1      -0.721  -1.480 -11.122  0.00  0.00    +0.026 A 
ATOM     17  C   UNL     1      -0.516  -2.115 -12.329  0.00  0.00    +0.002 A 
ATOM     18  C   UNL     1      -1.596  -2.522 -13.093  0.00  0.00    +0.000 A 
ATOM     19  C   UNL     1      -2.888  -2.296 -12.652  0.00  0.00    +0.002 A 
ATOM     20  C   UNL     1      -3.107  -1.669 -11.443  0.00  0.00    +0.026 A 
ENDBRANCH   7  15
BRANCH  10  21
ATOM     21  N   UNL     1      -4.279   3.074 -11.711  0.00  0.00    -0.336 N 
ATOM     22  C   UNL     1      -4.066   2.422 -13.006  0.00  0.00    +0.129 C 
ATOM     23  C   UNL     1      -4.929   4.385 -11.649  0.00  0.00    +0.129 C 
ENDBRANCH  10  21
BRANCH   1  24
ATOM     24  N   UNL     1      -0.638  -2.986  -4.738  0.00  0.00    -0.313 N 
ATOM     25  H   UNL     1      -0.106  -3.796  -4.774  0.00  0.00    +0.152 HD
BRANCH  24  29
ATOM     26  C   UNL     1      -1.695  -1.350  -1.051  0.00  0.00    +0.029 A 
ATOM     27  C   UNL     1      -2.623  -1.395  -2.083  0.00  0.00    +0.025 A 
ATOM     28  C   UNL     1      -2.273  -1.936  -3.304  0.00  0.00    +0.025 A 
ATOM     29  C   UNL     1      -0.993  -2.437  -3.500  0.00  0.00    +0.031 A 
ATOM     30  C   UNL     1      -0.064  -2.392  -2.468  0.00  0.00    +0.025 A 
ATOM     31  C   UNL     1      -0.413  -1.846  -1.249  0.00  0.00    +0.025 A 
BRANCH  26  33
ATOM     32  C   UNL     1      -1.068  -0.749   1.273  0.00  0.00    +0.129 C 
ATOM     33  N   UNL     1      -2.050  -0.801   0.186  0.00  0.00    -0.336 N 
ATOM     34  C   UNL     1      -3.402  -0.278   0.395  0.00  0.00    +0.129 C 
ENDBRANCH  26  33
ENDBRANCH  24  29
ENDBRANCH   1  24
BRANCH   6  35
ATOM     35  N   UNL     1      -0.200  -4.261  -7.162  0.00  0.00    -0.313 N 
ATOM     36  H   UNL     1       0.234  -4.594  -6.361  0.00  0.00    +0.152 HD
BRANCH  35  37
ATOM     37  C   UNL     1      -0.196  -5.030  -8.328  0.00  0.00    +0.031 A 
ATOM     38  C   UNL     1       0.896  -5.834  -8.629  0.00  0.00    +0.023 A 
ATOM     39  C   UNL     1       0.897  -6.592  -9.783  0.00  0.00    +0.002 A 
ATOM     40  C   UNL     1      -0.189  -6.552 -10.639  0.00  0.00    +0.000 A 
ATOM     41  C   UNL     1      -1.278  -5.753 -10.343  0.00  0.00    +0.002 A 
ATOM     42  C   UNL     1      -1.288  -4.997  -9.187  0.00  0.00    +0.023 A 
ENDBRANCH  35  37
ENDBRANCH   6  35
TORSDOF 7
