REMARK  Name = ZINC66243481
REMARK  7 active torsions:
REMARK  status: ('A' for Active; 'I' for Inactive)
REMARK    1  A    between atoms: C_1  and  O_2
REMARK    2  A    between atoms: O_2  and  C_3
REMARK    3  A    between atoms: C_6  and  C_9
REMARK    4  A    between atoms: C_9  and  C_10
REMARK    5  A    between atoms: C_10  and  N_11
REMARK    6  A    between atoms: N_14  and  C_15
REMARK    7  A    between atoms: C_15  and  C_16
REMARK                            x       y       z     vdW  Elec       q    Type
REMARK                         _______ _______ _______ _____ _____    ______ ____
ROOT
ATOM      1  N   UNL     1       2.124  -4.004   6.347  0.00  0.00    -0.357 N 
ATOM      2  C   UNL     1       1.479  -4.100   7.557  0.00  0.00    +0.169 C 
ATOM      3  N   UNL     1       0.264  -3.646   7.686  0.00  0.00    -0.371 N 
ATOM      4  N   UNL     1       2.114  -4.676   8.632  0.00  0.00    -0.354 N 
ATOM      5  H   UNL     1       3.029  -4.342   6.252  0.00  0.00    +0.162 HD
ATOM      6  H   UNL     1      -0.192  -3.714   8.539  0.00  0.00    +0.159 HD
ATOM      7  H   UNL     1       3.018  -5.014   8.536  0.00  0.00    +0.163 HD
ATOM      8  H   UNL     1      -0.185  -3.239   6.928  0.00  0.00    +0.159 HD
ENDROOT
BRANCH   1   9
ATOM      9  C   UNL     1       1.447  -3.390   5.202  0.00  0.00    +0.120 C 
BRANCH   9  10
ATOM     10  C   UNL     1       2.379  -3.408   3.989  0.00  0.00    +0.056 C 
BRANCH  10  14
ATOM     11  C   UNL     1       0.403  -1.619   0.649  0.00  0.00    +0.120 A 
ATOM     12  C   UNL     1       1.160  -0.837   1.510  0.00  0.00    +0.046 A 
ATOM     13  C   UNL     1       1.797  -1.417   2.589  0.00  0.00    +0.007 A 
ATOM     14  C   UNL     1       1.682  -2.777   2.811  0.00  0.00    -0.045 A 
ATOM     15  C   UNL     1       0.929  -3.559   1.954  0.00  0.00    +0.007 A 
ATOM     16  C   UNL     1       0.285  -2.982   0.877  0.00  0.00    +0.046 A 
BRANCH  11  18
ATOM     17  C   UNL     1      -0.059   0.359  -0.587  0.00  0.00    +0.277 C 
ATOM     18  O   UNL     1      -0.225  -1.050  -0.413  0.00  0.00    -0.495 OA
ENDBRANCH  11  18
ENDBRANCH  10  14
ENDBRANCH   9  10
ENDBRANCH   1   9
BRANCH   4  19
ATOM     19  C   UNL     1       1.426  -4.779   9.921  0.00  0.00    +0.152 C 
BRANCH  19  20
ATOM     20  C   UNL     1       2.334  -5.444  10.923  0.00  0.00    -0.012 A 
ATOM     21  C   UNL     1       2.326  -6.825  11.069  0.00  0.00    +0.010 A 
ATOM     22  C   UNL     1       3.175  -7.395  12.000  0.00  0.00    +0.042 A 
ATOM     23  C   UNL     1       4.003  -6.571  12.755  0.00  0.00    +0.099 A 
ATOM     24  N   UNL     1       3.981  -5.257  12.587  0.00  0.00    -0.349 N 
ATOM     25  C   UNL     1       3.186  -4.686  11.702  0.00  0.00    +0.089 A 
ATOM     26  N   UNL     1       4.860  -7.130  13.695  0.00  0.00    -0.317 N 
ATOM     27  C   UNL     1       4.974  -8.570  13.759  0.00  0.00    +0.106 C 
ATOM     28  C   UNL     1       3.913  -9.132  14.737  0.00  0.00    +0.019 C 
ATOM     29  C   UNL     1       4.267  -8.796  16.124  0.00  0.00    +0.002 C 
ATOM     30  C   UNL     1       4.298  -7.300  16.420  0.00  0.00    +0.002 C 
ATOM     31  C   UNL     1       5.647  -6.742  16.039  0.00  0.00    +0.019 C 
ATOM     32  C   UNL     1       5.622  -6.230  14.583  0.00  0.00    +0.106 C 
ATOM     33  H   UNL     1       4.566  -4.702  13.125  0.00  0.00    +0.167 HD
ENDBRANCH  19  20
ENDBRANCH   4  19
TORSDOF 6
