REMARK  Name = ZINC20873890
REMARK  15 active torsions:
REMARK  status: ('A' for Active; 'I' for Inactive)
REMARK    1  A    between atoms: C_1  and  C_2
REMARK    2  A    between atoms: C_5  and  C_8
REMARK    3  A    between atoms: C_8  and  O_9
REMARK    4  A    between atoms: O_9  and  C_10
REMARK    5  A    between atoms: C_11  and  O_27
REMARK    6  A    between atoms: C_13  and  C_17
REMARK    7  A    between atoms: C_17  and  N_18
REMARK    8  A    between atoms: N_18  and  C_19
REMARK    9  A    between atoms: C_19  and  C_20
REMARK   10  A    between atoms: C_20  and  N_21
REMARK   11  A    between atoms: N_21  and  C_22
REMARK   12  A    between atoms: C_22  and  C_23
REMARK   13  A    between atoms: C_23  and  C_25
REMARK   14  A    between atoms: C_23  and  O_26
REMARK   15  A    between atoms: O_27  and  C_28
REMARK                            x       y       z     vdW  Elec       q    Type
REMARK                         _______ _______ _______ _____ _____    ______ ____
ROOT
ATOM      1  C   UNL     1       1.608  -6.080  -0.040  0.00  0.00    +0.176 A 
ATOM      2  C   UNL     1       1.710  -6.778   1.160  0.00  0.00    +0.163 A 
ATOM      3  C   UNL     1       1.909  -8.149   1.146  0.00  0.00    +0.051 A 
ATOM      4  C   UNL     1       2.007  -8.821  -0.058  0.00  0.00    -0.060 A 
ATOM      5  C   UNL     1       1.907  -8.129  -1.250  0.00  0.00    +0.021 A 
ATOM      6  C   UNL     1       1.702  -6.761  -1.244  0.00  0.00    +0.063 A 
ATOM      7 BR   UNL     1       1.557  -5.819  -2.877  0.00  0.00    -0.046 Br
ENDROOT
BRANCH   2   8
ATOM      8  O   UNL     1       1.614  -6.115   2.344  0.00  0.00    -0.491 OA
ATOM      9  C   UNL     1       1.727  -6.895   3.535  0.00  0.00    +0.277 C 
ENDBRANCH   2   8
BRANCH   1  10
ATOM     10  O   UNL     1       1.413  -4.734  -0.032  0.00  0.00    -0.483 OA
BRANCH  10  11
ATOM     11  C   UNL     1       0.059  -4.275  -0.021  0.00  0.00    +0.264 C 
BRANCH  11  16
ATOM     12  C   UNL     1      -0.018   1.503   0.010  0.00  0.00    +0.044 C 
ATOM     13  C   UNL     1       0.002  -0.004   0.002  0.00  0.00    -0.050 A 
ATOM     14  C   UNL     1       0.006  -0.689  -1.199  0.00  0.00    +0.004 A 
ATOM     15  C   UNL     1       0.025  -2.071  -1.206  0.00  0.00    +0.007 A 
ATOM     16  C   UNL     1       0.040  -2.768  -0.013  0.00  0.00    -0.010 A 
ATOM     17  C   UNL     1       0.037  -2.084   1.188  0.00  0.00    +0.007 A 
ATOM     18  C   UNL     1       0.023  -0.702   1.195  0.00  0.00    +0.004 A 
ENDBRANCH  11  16
ENDBRANCH  10  11
ENDBRANCH   1  10
BRANCH   4  19
ATOM     19  C   UNL     1       2.224 -10.313  -0.070  0.00  0.00    -0.047 C 
BRANCH  19  20
ATOM     20  N   UNL     1       0.923 -10.996  -0.074  0.00  0.00    +0.381 N 
ATOM     21  H   UNL     1       0.405 -10.739   0.752  0.00  0.00    -0.086 HD
ATOM     22  H   UNL     1       0.403 -10.725  -0.895  0.00  0.00    -0.086 HD
BRANCH  20  23
ATOM     23  C   UNL     1       1.135 -12.450  -0.086  0.00  0.00    -0.102 C 
BRANCH  23  24
ATOM     24  C   UNL     1      -0.220 -13.162  -0.091  0.00  0.00    -0.102 C 
BRANCH  24  25
ATOM     25  N   UNL     1      -0.008 -14.616  -0.103  0.00  0.00    +0.379 N 
ATOM     26  H   UNL     1       0.510 -14.874  -0.929  0.00  0.00    -0.086 HD
ATOM     27  H   UNL     1       0.512 -14.887   0.718  0.00  0.00    -0.086 HD
BRANCH  25  28
ATOM     28  C   UNL     1      -1.308 -15.300  -0.107  0.00  0.00    -0.051 C 
BRANCH  28  29
ATOM     29  C   UNL     1      -1.088 -16.814  -0.120  0.00  0.00    +0.095 C 
ATOM     30  C   UNL     1      -2.437 -17.524  -0.250  0.00  0.00    +0.035 C 
BRANCH  29  31
ATOM     31  O   UNL     1      -0.455 -17.213   1.097  0.00  0.00    -0.394 OA
ATOM     32  H   UNL     1      -0.965 -17.006   1.893  0.00  0.00    +0.210 HD
ENDBRANCH  29  31
ENDBRANCH  28  29
ENDBRANCH  25  28
ENDBRANCH  24  25
ENDBRANCH  23  24
ENDBRANCH  20  23
ENDBRANCH  19  20
ENDBRANCH   4  19
TORSDOF 12
