REMARK  Name = ZINC20572202
REMARK  10 active torsions:
REMARK  status: ('A' for Active; 'I' for Inactive)
REMARK    1  A    between atoms: C_1  and  C_2
REMARK    2  A    between atoms: C_9  and  N_14
REMARK    3  A    between atoms: C_10  and  C_11
REMARK    4  A    between atoms: C_15  and  C_17
REMARK    5  A    between atoms: C_17  and  C_18
REMARK    6  A    between atoms: C_18  and  C_19
REMARK    7  A    between atoms: C_19  and  C_20
REMARK    8  A    between atoms: N_22  and  C_23
REMARK    9  A    between atoms: C_24  and  C_34
REMARK   10  A    between atoms: C_29  and  C_33
REMARK                            x       y       z     vdW  Elec       q    Type
REMARK                         _______ _______ _______ _____ _____    ______ ____
ROOT
ATOM      1  C   UNL     1       3.064  -7.504   4.821  0.00  0.00    +0.018 C 
ENDROOT
BRANCH   1   2
ATOM      2  C   UNL     1       1.898  -7.498   3.830  0.00  0.00    +0.096 C 
BRANCH   2   4
ATOM      3  N   UNL     1       0.696  -5.847   2.434  0.00  0.00    -0.279 N 
ATOM      4  C   UNL     1       1.677  -6.096   3.324  0.00  0.00    +0.218 C 
ATOM      5  O   UNL     1       2.383  -5.191   3.716  0.00  0.00    -0.275 OA
ATOM      6  H   UNL     1       0.131  -6.571   2.120  0.00  0.00    +0.155 HD
BRANCH   3  14
ATOM      7  C   UNL     1      -0.019   1.526   0.010  0.00  0.00    +0.008 C 
ATOM      8  C   UNL     1       0.002  -0.004   0.002  0.00  0.00    -0.009 C 
ATOM      9  C   UNL     1      -1.434  -0.537   0.019  0.00  0.00    +0.008 C 
ATOM     10  C   UNL     1      -1.433  -2.045  -0.237  0.00  0.00    +0.037 C 
ATOM     11  C   UNL     1      -0.464  -2.704   0.734  0.00  0.00    -0.023 A 
ATOM     12  C   UNL     1       0.485  -1.986   1.374  0.00  0.00    -0.004 A 
ATOM     13  S   UNL     1       1.343  -3.167   2.373  0.00  0.00    -0.077 S 
ATOM     14  C   UNL     1       0.492  -4.557   1.968  0.00  0.00    +0.084 A 
ATOM     15  C   UNL     1      -0.459  -4.119   1.061  0.00  0.00    +0.068 A 
ATOM     16  C   UNL     1       0.739  -0.515   1.248  0.00  0.00    +0.046 C 
BRANCH  15  17
ATOM     17  C   UNL     1      -1.422  -5.045   0.456  0.00  0.00    +0.244 C 
ATOM     18  O   UNL     1      -1.150  -5.611  -0.587  0.00  0.00    -0.270 OA
ATOM     19  N   UNL     1      -2.608  -5.271   1.056  0.00  0.00    -0.325 N 
ATOM     20  H   UNL     1      -2.824  -4.821   1.887  0.00  0.00    +0.145 HD
ATOM     21  H   UNL     1      -3.244  -5.884   0.656  0.00  0.00    +0.145 HD
ENDBRANCH  15  17
ENDBRANCH   3  14
ENDBRANCH   2   4
ENDBRANCH   1   2
BRANCH   1  22
ATOM     22  C   UNL     1       3.289  -8.928   5.335  0.00  0.00    +0.096 C 
BRANCH  22  23
ATOM     23  C   UNL     1       4.437  -8.934   6.311  0.00  0.00    +0.218 C 
ATOM     24  O   UNL     1       5.019  -7.902   6.570  0.00  0.00    -0.275 OA
ATOM     25  N   UNL     1       4.817 -10.087   6.896  0.00  0.00    -0.279 N 
ATOM     26  H   UNL     1       4.352 -10.912   6.689  0.00  0.00    +0.155 HD
BRANCH  25  27
ATOM     27  C   UNL     1       5.874 -10.093   7.794  0.00  0.00    +0.084 A 
ATOM     28  C   UNL     1       6.403 -11.174   8.481  0.00  0.00    +0.068 A 
ATOM     29  C   UNL     1       7.521 -10.914   9.371  0.00  0.00    -0.023 A 
ATOM     30  C   UNL     1       7.905  -9.620   9.410  0.00  0.00    -0.004 A 
ATOM     31  S   UNL     1       6.812  -8.792   8.293  0.00  0.00    -0.077 S 
ATOM     32  C   UNL     1       9.020  -9.037  10.223  0.00  0.00    +0.046 C 
ATOM     33  C   UNL     1       9.906 -10.189  10.721  0.00  0.00    -0.009 C 
ATOM     34  C   UNL     1       9.013 -11.280  11.317  0.00  0.00    +0.008 C 
ATOM     35  C   UNL     1       8.225 -11.974  10.204  0.00  0.00    +0.037 C 
ATOM     36  C   UNL     1      10.868  -9.669  11.792  0.00  0.00    +0.008 C 
BRANCH  28  37
ATOM     37  C   UNL     1       5.856 -12.525   8.317  0.00  0.00    +0.244 C 
ATOM     38  O   UNL     1       6.301 -13.261   7.456  0.00  0.00    -0.270 OA
ATOM     39  N   UNL     1       4.860 -12.951   9.119  0.00  0.00    -0.325 N 
ATOM     40  H   UNL     1       4.505 -12.364   9.805  0.00  0.00    +0.145 HD
ATOM     41  H   UNL     1       4.498 -13.844   9.010  0.00  0.00    +0.145 HD
ENDBRANCH  28  37
ENDBRANCH  25  27
ENDBRANCH  22  23
ENDBRANCH   1  22
TORSDOF 8
