REMARK  Name = ZINC09666416
REMARK  7 active torsions:
REMARK  status: ('A' for Active; 'I' for Inactive)
REMARK    1  A    between atoms: C_1  and  C_2
REMARK    2  A    between atoms: C_5  and  S_8
REMARK    3  A    between atoms: S_8  and  N_11
REMARK    4  A    between atoms: C_17  and  N_18
REMARK    5  A    between atoms: C_17  and  N_67
REMARK    6  A    between atoms: C_21  and  C_25
REMARK    7  A    between atoms: C_21  and  C_26
REMARK                            x       y       z     vdW  Elec       q    Type
REMARK                         _______ _______ _______ _____ _____    ______ ____
ROOT
ATOM      1  C   UNL     1       1.054   2.304   5.207  0.00  0.00    +0.043 C 
ENDROOT
BRANCH   1   2
ATOM      2  N   UNL     1       1.492   1.025   5.769  0.00  0.00    -0.241 N 
ATOM      3  C   UNL     1       0.767   0.291   6.636  0.00  0.00    +0.249 C 
ATOM      4  O   UNL     1      -0.329   0.555   7.081  0.00  0.00    -0.272 OA
ATOM      5  C   UNL     1       1.607  -0.934   6.939  0.00  0.00    +0.135 C 
ATOM      6  N   UNL     1       2.825  -0.725   6.137  0.00  0.00    -0.281 N 
ATOM      7  C   UNL     1       2.664   0.443   5.490  0.00  0.00    +0.308 C 
ATOM      8  O   UNL     1       3.491   0.918   4.736  0.00  0.00    -0.252 OA
ATOM      9  C   UNL     1       1.948  -0.994   8.429  0.00  0.00    +0.047 C 
ATOM     10  H   UNL     1       3.594  -1.315   6.085  0.00  0.00    +0.152 HD
BRANCH   5  11
ATOM     11  C   UNL     1       0.898  -2.192   6.507  0.00  0.00    -0.015 A 
ATOM     12  C   UNL     1      -0.479  -2.275   6.597  0.00  0.00    +0.006 A 
ATOM     13  C   UNL     1      -1.127  -3.429   6.201  0.00  0.00    +0.004 A 
ATOM     14  C   UNL     1      -0.402  -4.503   5.714  0.00  0.00    -0.044 A 
ATOM     15  C   UNL     1       0.975  -4.420   5.625  0.00  0.00    -0.044 A 
ATOM     16  C   UNL     1       1.622  -3.261   6.017  0.00  0.00    +0.010 A 
ATOM     17  C   UNL     1       1.530  -5.713   5.067  0.00  0.00    +0.036 C 
ATOM     18  C   UNL     1       0.396  -6.746   5.236  0.00  0.00    +0.009 C 
ATOM     19  C   UNL     1      -0.866  -5.858   5.223  0.00  0.00    +0.036 C 
ENDBRANCH   5  11
ENDBRANCH   1   2
BRANCH   1  26
ATOM     20  N   UNL     1      -0.872   1.871   1.353  0.00  0.00    -0.178 NA
ATOM     21  C   UNL     1      -1.874   0.939   1.973  0.00  0.00    +0.107 C 
ATOM     22  C   UNL     1      -1.331   0.527   3.271  0.00  0.00    -0.001 C 
ATOM     23  C   UNL     1      -1.041   1.685   4.220  0.00  0.00    -0.075 C 
ATOM     24  C   UNL     1       0.408   3.244   3.053  0.00  0.00    -0.059 C 
ATOM     25  C   UNL     1      -0.664   3.161   1.950  0.00  0.00    +0.091 C 
ATOM     26  N   UNL     1       0.338   2.040   3.934  0.00  0.00    +0.391 N 
ATOM     27  H   UNL     1       0.789   1.253   3.454  0.00  0.00    -0.079 HD
BRANCH  20  28
ATOM     28  S   UNL     1      -0.017   1.417   0.010  0.00  0.00    +0.061 S 
ATOM     29  O   UNL     1       0.002  -0.004   0.002  0.00  0.00    -0.153 OA
ATOM     30  O   UNL     1       1.172   2.195   0.003  0.00  0.00    -0.153 OA
BRANCH  28  35
ATOM     31  C   UNL     1      -3.224   3.124  -4.808  0.00  0.00    +0.044 C 
ATOM     32  C   UNL     1      -2.423   2.698  -3.604  0.00  0.00    -0.050 A 
ATOM     33  C   UNL     1      -1.494   3.559  -3.052  0.00  0.00    +0.005 A 
ATOM     34  C   UNL     1      -0.759   3.168  -1.948  0.00  0.00    +0.029 A 
ATOM     35  C   UNL     1      -0.954   1.915  -1.397  0.00  0.00    +0.105 A 
ATOM     36  C   UNL     1      -1.879   1.052  -1.952  0.00  0.00    +0.029 A 
ATOM     37  C   UNL     1      -2.617   1.445  -3.053  0.00  0.00    +0.005 A 
ENDBRANCH  28  35
ENDBRANCH  20  28
ENDBRANCH   1  26
TORSDOF 5
