REMARK  Name = ZINC12661006
REMARK  10 active torsions:
REMARK  status: ('A' for Active; 'I' for Inactive)
REMARK    1  A    between atoms: C_1  and  N_60
REMARK    2  A    between atoms: C_8  and  O_32
REMARK    3  A    between atoms: C_10  and  C_12
REMARK    4  A    between atoms: N_19  and  C_22
REMARK    5  A    between atoms: C_20  and  O_21
REMARK    6  A    between atoms: C_24  and  O_30
REMARK    7  A    between atoms: C_27  and  O_28
REMARK    8  A    between atoms: O_28  and  C_29
REMARK    9  A    between atoms: O_30  and  C_31
REMARK   10  A    between atoms: O_32  and  C_33
REMARK                            x       y       z     vdW  Elec       q    Type
REMARK                         _______ _______ _______ _____ _____    ______ ____
ROOT
ATOM      1  C   UNL     1      -5.510   1.370   5.571  0.00  0.00    +0.068 A 
ATOM      2  C   UNL     1      -6.373   2.478   5.491  0.00  0.00    +0.258 A 
ATOM      3  O   UNL     1      -7.008   2.832   6.469  0.00  0.00    -0.267 OA
ATOM      4  N   UNL     1      -6.493   3.144   4.326  0.00  0.00    -0.302 N 
ATOM      5  H   UNL     1      -7.088   3.908   4.268  0.00  0.00    +0.171 HD
ATOM      6  C   UNL     1      -5.795   2.757   3.243  0.00  0.00    +0.168 A 
ATOM      7  S   UNL     1      -5.967   3.622   1.776  0.00  0.00    -0.012 S 
ATOM      8  N   UNL     1      -4.962   1.701   3.296  0.00  0.00    -0.257 N 
ATOM      9  C   UNL     1      -4.814   0.991   4.462  0.00  0.00    +0.207 A 
ENDROOT
BRANCH   1  19
ATOM     10  C   UNL     1      -3.575   2.064   7.611  0.00  0.00    -0.095 C 
ATOM     11  C   UNL     1      -4.919   0.850   9.221  0.00  0.00    -0.073 C 
ATOM     12  C   UNL     1      -6.373   0.645   9.649  0.00  0.00    +0.017 C 
ATOM     13  C   UNL     1      -7.154   0.005   8.530  0.00  0.00    -0.040 A 
ATOM     14  C   UNL     1      -8.376  -0.579   8.828  0.00  0.00    +0.053 A 
ATOM     15  C   UNL     1      -9.131  -1.176   7.833  0.00  0.00    +0.170 A 
ATOM     16  C   UNL     1      -8.660  -1.189   6.524  0.00  0.00    +0.208 A 
ATOM     17  C   UNL     1      -7.436  -0.606   6.229  0.00  0.00    +0.167 A 
ATOM     18  C   UNL     1      -6.682  -0.007   7.234  0.00  0.00    -0.008 A 
ATOM     19  C   UNL     1      -5.359   0.610   6.864  0.00  0.00    +0.007 C 
ATOM     20  O   UNL     1      -9.575  -1.828   5.737  0.00  0.00    -0.449 OA
ATOM     21  C   UNL     1     -10.795  -1.844   6.501  0.00  0.00    +0.467 C 
ATOM     22  O   UNL     1     -10.342  -1.806   7.868  0.00  0.00    -0.452 OA
ATOM     23  N   UNL     1      -4.927   1.544   7.918  0.00  0.00    +0.386 N 
ATOM     24  H   UNL     1      -5.586   2.330   7.960  0.00  0.00    -0.081 HD
BRANCH  17  25
ATOM     25  O   UNL     1      -6.972  -0.617   4.951  0.00  0.00    -0.491 OA
ATOM     26  C   UNL     1      -6.284  -1.793   4.521  0.00  0.00    +0.277 C 
ENDBRANCH  17  25
ENDBRANCH   1  19
BRANCH   8  27
ATOM     27  C   UNL     1      -4.246   1.321   2.152  0.00  0.00    +0.097 A 
ATOM     28  C   UNL     1      -2.960   1.799   1.947  0.00  0.00    +0.075 A 
ATOM     29  C   UNL     1      -2.256   1.425   0.813  0.00  0.00    +0.122 A 
ATOM     30  C   UNL     1      -2.833   0.565  -0.111  0.00  0.00    +0.049 A 
ATOM     31  C   UNL     1      -4.112   0.083   0.094  0.00  0.00    +0.051 A 
ATOM     32  C   UNL     1      -4.822   0.458   1.224  0.00  0.00    +0.144 A 
BRANCH  32  33
ATOM     33  O   UNL     1      -6.081  -0.017   1.425  0.00  0.00    -0.493 OA
ATOM     34  C   UNL     1      -6.609  -0.898   0.431  0.00  0.00    +0.277 C 
ENDBRANCH  32  33
BRANCH  29  35
ATOM     35  O   UNL     1      -0.998   1.896   0.608  0.00  0.00    -0.495 OA
ATOM     36  C   UNL     1      -0.328   1.465  -0.578  0.00  0.00    +0.277 C 
ENDBRANCH  29  35
ENDBRANCH   8  27
BRANCH   9  37
ATOM     37  O   UNL     1      -3.983  -0.072   4.510  0.00  0.00    -0.493 OA
ATOM     38  H   UNL     1      -3.533  -0.258   3.674  0.00  0.00    +0.294 HD
ENDBRANCH   9  37
TORSDOF 6
