REMARK  Name = ZINC43424054
REMARK  5 active torsions:
REMARK  status: ('A' for Active; 'I' for Inactive)
REMARK    1  A    between atoms: C_1  and  C_2
REMARK    2  A    between atoms: C_2  and  C_4
REMARK    3  A    between atoms: C_2  and  N_24
REMARK    4  A    between atoms: C_4  and  C_6
REMARK    5  A    between atoms: C_4  and  N_12
REMARK                            x       y       z     vdW  Elec       q    Type
REMARK                         _______ _______ _______ _____ _____    ______ ____
ROOT
ATOM      1  C   UNL     1       0.742  -0.511   1.242  0.00  0.00    +0.079 C 
ENDROOT
BRANCH   1   2
ATOM      2  N   UNL     1       0.028   0.160   2.336  0.00  0.00    -0.289 NA
ATOM      3  C   UNL     1      -1.370  -0.290   2.408  0.00  0.00    +0.113 C 
ATOM      4  C   UNL     1      -2.092   0.464   3.527  0.00  0.00    +0.175 C 
ATOM      5  O   UNL     1      -1.393   0.273   4.761  0.00  0.00    -0.374 OA
ATOM      6  C   UNL     1      -0.034   0.710   4.717  0.00  0.00    +0.135 C 
ATOM      7  C   UNL     1       0.706  -0.061   3.620  0.00  0.00    +0.086 C 
ATOM      8  C   UNL     1       2.151   0.433   3.544  0.00  0.00    +0.021 C 
ATOM      9  C   UNL     1       2.840   0.183   4.888  0.00  0.00    +0.002 C 
ATOM     10  C   UNL     1       2.097   0.934   5.995  0.00  0.00    +0.003 C 
ATOM     11  C   UNL     1       0.647   0.448   6.061  0.00  0.00    +0.033 C 
ENDBRANCH   1   2
BRANCH   1  12
ATOM     12  C   UNL     1       1.975   0.280   0.886  0.00  0.00    +0.006 A 
ATOM     13  C   UNL     1       3.201  -0.169   0.521  0.00  0.00    +0.028 A 
ATOM     14  C   UNL     1       4.194   0.751   0.238  0.00  0.00    +0.025 A 
ATOM     15  C   UNL     1       3.912   2.074   0.333  0.00  0.00    +0.060 A 
ATOM     16  S   UNL     1       2.197   2.050   0.829  0.00  0.00    -0.099 S 
ATOM     17 BR   UNL     1       5.920   0.172  -0.274  0.00  0.00    -0.050 Br
ENDBRANCH   1  12
BRANCH   1  19
ATOM     18  C   UNL     1      -0.679   0.790  -0.349  0.00  0.00    -0.012 C 
ATOM     19  C   UNL     1      -0.173  -0.606   0.019  0.00  0.00    -0.056 C 
BRANCH  19  20
ATOM     20  N   UNL     1       0.578  -1.168  -1.112  0.00  0.00    +0.381 N 
ATOM     21  H   UNL     1       0.912  -2.089  -0.869  0.00  0.00    -0.090 HD
ATOM     22  H   UNL     1      -0.025  -1.231  -1.918  0.00  0.00    -0.090 HD
ATOM     23  H   UNL     1       1.363  -0.571  -1.325  0.00  0.00    -0.090 HD
ENDBRANCH  19  20
ENDBRANCH   1  19
TORSDOF 4
