REMARK  Name = ZINC09159343
REMARK  4 active torsions:
REMARK  status: ('A' for Active; 'I' for Inactive)
REMARK    1  A    between atoms: C_15  and  C_17
REMARK    2  A    between atoms: N_19  and  C_20
REMARK    3  A    between atoms: C_24  and  C_26
REMARK    4  A    between atoms: N_32  and  C_35
REMARK                            x       y       z     vdW  Elec       q    Type
REMARK                         _______ _______ _______ _____ _____    ______ ____
ROOT
ATOM      1  C   UNL     1       1.970   5.856  -0.160  0.00  0.00    +0.001 A 
ATOM      2  C   UNL     1       0.731   6.408   0.113  0.00  0.00    +0.000 A 
ATOM      3  C   UNL     1      -0.345   5.591   0.417  0.00  0.00    +0.006 A 
ATOM      4  C   UNL     1      -0.184   4.225   0.449  0.00  0.00    -0.021 A 
ATOM      5  C   UNL     1       1.067   3.657   0.176  0.00  0.00    -0.019 A 
ATOM      6  C   UNL     1       2.145   4.488  -0.130  0.00  0.00    +0.008 A 
ATOM      7  C   UNL     1       1.244   2.191   0.215  0.00  0.00    +0.022 C 
ATOM      8  C   UNL     1       0.160   1.392   0.160  0.00  0.00    +0.054 C 
ATOM      9  C   UNL     1      -1.335   3.310   0.773  0.00  0.00    +0.100 C 
ATOM     10  C   UNL     1      -2.660   3.851   0.243  0.00  0.00    +0.113 C 
ATOM     11  C   UNL     1      -3.398   2.589  -0.303  0.00  0.00    +0.117 C 
ATOM     12  C   UNL     1      -2.249   1.628  -0.670  0.00  0.00    +0.156 C 
ATOM     13  C   UNL     1      -3.995   3.126  -1.594  0.00  0.00    +0.228 C 
ATOM     14  O   UNL     1      -4.924   2.639  -2.202  0.00  0.00    -0.275 OA
ATOM     15  N   UNL     1      -3.317   4.229  -1.947  0.00  0.00    -0.238 N 
ATOM     16  C   UNL     1      -2.448   4.660  -1.018  0.00  0.00    +0.228 C 
ATOM     17  O   UNL     1      -1.633   5.545  -1.166  0.00  0.00    -0.275 OA
ATOM     18  N   UNL     1      -1.235   1.923   0.387  0.00  0.00    -0.383 NA
ATOM     19  H   UNL     1      -1.558   1.403   1.211  0.00  0.00    +0.127 HD
ENDROOT
BRANCH  15  20
ATOM     20  C   UNL     1      -3.510   4.905  -3.232  0.00  0.00    +0.084 C 
ATOM     21  C   UNL     1      -4.932   5.465  -3.307  0.00  0.00    +0.023 C 
ATOM     22  C   UNL     1      -5.133   6.170  -4.649  0.00  0.00    +0.002 C 
ATOM     23  C   UNL     1      -4.918   5.171  -5.788  0.00  0.00    +0.000 C 
ATOM     24  C   UNL     1      -3.496   4.611  -5.713  0.00  0.00    +0.002 C 
ATOM     25  C   UNL     1      -3.295   3.905  -4.371  0.00  0.00    +0.023 C 
ENDBRANCH  15  20
BRANCH  12  26
ATOM     26  C   UNL     1      -1.960   1.719  -2.146  0.00  0.00    +0.237 C 
ATOM     27  O   UNL     1      -1.116   2.491  -2.552  0.00  0.00    -0.273 OA
ATOM     28  N   UNL     1      -2.638   0.944  -3.015  0.00  0.00    -0.284 N 
ATOM     29  H   UNL     1      -3.358   0.376  -2.699  0.00  0.00    +0.155 HD
BRANCH  28  30
ATOM     30  C   UNL     1      -2.302   0.957  -4.374  0.00  0.00    +0.034 A 
ATOM     31  C   UNL     1      -3.286   0.764  -5.335  0.00  0.00    +0.023 A 
ATOM     32  C   UNL     1      -2.952   0.784  -6.675  0.00  0.00    +0.002 A 
ATOM     33  C   UNL     1      -1.639   0.985  -7.060  0.00  0.00    +0.012 A 
ATOM     34  C   UNL     1      -0.657   1.171  -6.105  0.00  0.00    +0.057 A 
ATOM     35  C   UNL     1      -0.985   1.158  -4.763  0.00  0.00    +0.035 A 
BRANCH  34  36
ATOM     36  C   UNL     1       0.773   1.389  -6.529  0.00  0.00    +0.417 C 
ATOM     37  F   UNL     1       1.425   0.155  -6.621  0.00  0.00    -0.166 F 
ATOM     38  F   UNL     1       0.798   2.025  -7.775  0.00  0.00    -0.166 F 
ATOM     39  F   UNL     1       1.422   2.191  -5.583  0.00  0.00    -0.166 F 
ENDBRANCH  34  36
ENDBRANCH  28  30
ENDBRANCH  12  26
TORSDOF 4
