REMARK  Name = ZINC40777767
REMARK  6 active torsions:
REMARK  status: ('A' for Active; 'I' for Inactive)
REMARK    1  A    between atoms: C_4  and  N_7
REMARK    2  A    between atoms: N_7  and  C_8
REMARK    3  A    between atoms: N_7  and  N_14
REMARK    4  A    between atoms: C_16  and  N_29
REMARK    5  A    between atoms: C_17  and  N_21
REMARK    6  A    between atoms: N_21  and  C_22
REMARK                            x       y       z     vdW  Elec       q    Type
REMARK                         _______ _______ _______ _____ _____    ______ ____
ROOT
ATOM      1  N   UNL     1       5.299  -0.565  -0.583  0.00  0.00    -0.242 N 
ATOM      2  C   UNL     1       6.119   0.018   0.377  0.00  0.00    +0.161 A 
ATOM      3  C   UNL     1       7.133   0.901   0.001  0.00  0.00    +0.105 A 
ATOM      4  C   UNL     1       7.927   1.458   1.005  0.00  0.00    +0.126 A 
ATOM      5  N   UNL     1       7.688   1.129   2.272  0.00  0.00    -0.333 N 
ATOM      6  C   UNL     1       6.721   0.292   2.584  0.00  0.00    +0.200 A 
ATOM      7  N   UNL     1       5.944  -0.252   1.668  0.00  0.00    -0.219 NA
ATOM      8  H   UNL     1       5.433  -0.363  -1.522  0.00  0.00    +0.172 HD
ATOM      9  H   UNL     1       8.235   1.512   2.977  0.00  0.00    +0.168 HD
ENDROOT
BRANCH   3  10
ATOM     10  N   UNL     1       7.350   1.218  -1.349  0.00  0.00    -0.353 N 
ATOM     11  H   UNL     1       6.790   0.823  -2.036  0.00  0.00    +0.143 HD
ATOM     12  H   UNL     1       8.058   1.833  -1.596  0.00  0.00    +0.143 HD
ENDBRANCH   3  10
BRANCH   4  13
ATOM     13  N   UNL     1       8.952   2.342   0.685  0.00  0.00    -0.299 N 
ATOM     14  H   UNL     1       9.060   2.649  -0.228  0.00  0.00    +0.154 HD
BRANCH  13  15
ATOM     15  C   UNL     1       9.825   2.788   1.681  0.00  0.00    +0.032 A 
ATOM     16  C   UNL     1      10.277   1.908   2.657  0.00  0.00    +0.024 A 
ATOM     17  C   UNL     1      11.140   2.352   3.639  0.00  0.00    +0.017 A 
ATOM     18  C   UNL     1      11.555   3.672   3.653  0.00  0.00    +0.018 A 
ATOM     19  C   UNL     1      11.107   4.551   2.683  0.00  0.00    +0.017 A 
ATOM     20  C   UNL     1      10.248   4.111   1.694  0.00  0.00    +0.024 A 
ATOM     21 BR   UNL     1      12.737   4.276   5.000  0.00  0.00    -0.050 Br
ENDBRANCH  13  15
ENDBRANCH   4  13
BRANCH   1  22
ATOM     22  N   UNL     1       4.281  -1.444  -0.193  0.00  0.00    -0.221 N 
BRANCH  22  26
ATOM     23  C   UNL     1       0.799   0.041   1.542  0.00  0.00    +0.000 A 
ATOM     24  C   UNL     1       1.024  -1.324   1.505  0.00  0.00    +0.002 A 
ATOM     25  C   UNL     1       2.177  -1.819   0.930  0.00  0.00    +0.025 A 
ATOM     26  C   UNL     1       3.112  -0.946   0.389  0.00  0.00    +0.053 A 
ATOM     27  C   UNL     1       2.883   0.423   0.428  0.00  0.00    +0.025 A 
ATOM     28  C   UNL     1       1.728   0.912   1.004  0.00  0.00    +0.002 A 
ENDBRANCH  22  26
BRANCH  22  29
ATOM     29  C   UNL     1       4.433  -2.820  -0.387  0.00  0.00    +0.053 A 
ATOM     30  C   UNL     1       3.437  -3.548  -1.024  0.00  0.00    +0.025 A 
ATOM     31  C   UNL     1       3.591  -4.907  -1.214  0.00  0.00    +0.002 A 
ATOM     32  C   UNL     1       4.735  -5.543  -0.770  0.00  0.00    +0.000 A 
ATOM     33  C   UNL     1       5.729  -4.822  -0.135  0.00  0.00    +0.002 A 
ATOM     34  C   UNL     1       5.585  -3.461   0.053  0.00  0.00    +0.025 A 
ENDBRANCH  22  29
ENDBRANCH   1  22
TORSDOF 6
