REMARK  Name = ZINC38035749
REMARK  13 active torsions:
REMARK  status: ('A' for Active; 'I' for Inactive)
REMARK    1  A    between atoms: C_1  and  C_2
REMARK    2  A    between atoms: C_2  and  N_3
REMARK    3  A    between atoms: C_7  and  C_9
REMARK    4  A    between atoms: C_9  and  C_11
REMARK    5  A    between atoms: C_9  and  N_12
REMARK    6  A    between atoms: N_12  and  C_13
REMARK    7  A    between atoms: C_13  and  C_14
REMARK    8  A    between atoms: C_14  and  C_15
REMARK    9  A    between atoms: C_15  and  N_16
REMARK   10  A    between atoms: N_16  and  C_17
REMARK   11  A    between atoms: N_16  and  S_19
REMARK   12  A    between atoms: C_17  and  C_18
REMARK   13  A    between atoms: S_19  and  C_22
REMARK                            x       y       z     vdW  Elec       q    Type
REMARK                         _______ _______ _______ _____ _____    ______ ____
ROOT
ATOM      1  N   UNL     1       2.397  -5.553   3.903  0.00  0.00    +0.386 N 
ATOM      2  H   UNL     1       1.455  -5.902   3.993  0.00  0.00    -0.085 HD
ATOM      3  H   UNL     1       2.796  -5.879   3.035  0.00  0.00    -0.085 HD
ENDROOT
BRANCH   1   4
ATOM      4  C   UNL     1       2.378  -4.084   3.911  0.00  0.00    +0.013 C 
ATOM      5  C   UNL     1       1.661  -3.590   5.170  0.00  0.00    -0.004 C 
BRANCH   4  10
ATOM      6  N   UNL     1       0.711  -0.489   1.189  0.00  0.00    -0.299 N 
ATOM      7  C   UNL     1       0.854  -1.814   1.394  0.00  0.00    +0.306 C 
ATOM      8  O   UNL     1       0.395  -2.606   0.594  0.00  0.00    -0.252 OA
ATOM      9  N   UNL     1       1.506  -2.260   2.486  0.00  0.00    -0.242 N 
ATOM     10  C   UNL     1       1.649  -3.585   2.690  0.00  0.00    +0.206 C 
ATOM     11  O   UNL     1       1.191  -4.374   1.893  0.00  0.00    -0.277 OA
ATOM     12  H   UNL     1       1.077   0.142   1.827  0.00  0.00    +0.150 HD
ATOM     13  H   UNL     1       1.872  -1.628   3.124  0.00  0.00    +0.159 HD
BRANCH   6  15
ATOM     14  C   UNL     1      -0.019   1.526   0.010  0.00  0.00    +0.024 C 
ATOM     15  C   UNL     1       0.002  -0.004   0.002  0.00  0.00    +0.102 C 
ENDBRANCH   6  15
ENDBRANCH   4  10
ENDBRANCH   1   4
BRANCH   1  16
ATOM     16  C   UNL     1       3.209  -6.038   5.027  0.00  0.00    -0.080 C 
BRANCH  16  17
ATOM     17  C   UNL     1       3.230  -7.567   5.019  0.00  0.00    -0.002 C 
BRANCH  17  18
ATOM     18  C   UNL     1       4.075  -8.072   6.190  0.00  0.00    +0.107 C 
BRANCH  18  19
ATOM     19  N   UNL     1       4.095  -9.537   6.182  0.00  0.00    -0.182 NA
BRANCH  19  20
ATOM     20  S   UNL     1       3.017 -10.385   7.109  0.00  0.00    +0.029 S 
ATOM     21  O   UNL     1       3.693 -11.590   7.442  0.00  0.00    -0.158 OA
ATOM     22  O   UNL     1       2.617  -9.475   8.125  0.00  0.00    -0.158 OA
ATOM     23  C   UNL     1       1.624 -10.736   6.002  0.00  0.00    +0.215 C 
ENDBRANCH  19  20
BRANCH  19  24
ATOM     24  C   UNL     1       5.069 -10.252   5.353  0.00  0.00    +0.105 C 
ATOM     25  C   UNL     1       6.389 -10.384   6.116  0.00  0.00    +0.022 C 
ENDBRANCH  19  24
ENDBRANCH  18  19
ENDBRANCH  17  18
ENDBRANCH  16  17
ENDBRANCH   1  16
TORSDOF 9
