REMARK  Name = ZINC01110865
REMARK  11 active torsions:
REMARK  status: ('A' for Active; 'I' for Inactive)
REMARK    1  A    between atoms: C_1  and  C_2
REMARK    2  A    between atoms: C_2  and  C_4
REMARK    3  A    between atoms: C_2  and  O_37
REMARK    4  A    between atoms: C_6  and  O_35
REMARK    5  A    between atoms: C_7  and  O_33
REMARK    6  A    between atoms: C_9  and  N_10
REMARK    7  A    between atoms: C_11  and  C_13
REMARK    8  A    between atoms: C_17  and  C_28
REMARK    9  A    between atoms: C_20  and  C_24
REMARK   10  A    between atoms: O_33  and  C_34
REMARK   11  A    between atoms: O_35  and  C_36
REMARK                            x       y       z     vdW  Elec       q    Type
REMARK                         _______ _______ _______ _____ _____    ______ ____
ROOT
ATOM      1  C   UNL     1       4.938   0.194  -1.105  0.00  0.00    +0.110 C 
ATOM      2  C   UNL     1       4.392   0.669  -2.251  0.00  0.00    +0.072 C 
ATOM      3  C   UNL     1       5.495   1.024  -3.142  0.00  0.00    +0.114 C 
ATOM      4  N   UNL     1       5.471   1.527  -4.343  0.00  0.00    -0.362 N 
ATOM      5  C   UNL     1       6.740   1.830  -5.016  0.00  0.00    +0.149 C 
ATOM      6  C   UNL     1       7.826   0.843  -4.584  0.00  0.00    +0.065 C 
ATOM      7  C   UNL     1       7.997   0.896  -3.057  0.00  0.00    +0.202 C 
ATOM      8  N   UNL     1       6.668   0.712  -2.465  0.00  0.00    -0.226 N 
ATOM      9  N   UNL     1       6.319   0.229  -1.209  0.00  0.00    -0.258 N 
ATOM     10  H   UNL     1       6.942  -0.042  -0.517  0.00  0.00    +0.170 HD
ATOM     11  H   UNL     1       4.626   1.700  -4.788  0.00  0.00    +0.162 HD
ENDROOT
BRANCH   5  12
ATOM     12  C   UNL     1       6.548   1.734  -6.507  0.00  0.00    +0.127 A 
ATOM     13  C   UNL     1       7.081   2.561  -7.424  0.00  0.00    +0.047 A 
ATOM     14  C   UNL     1       6.644   2.107  -8.690  0.00  0.00    +0.041 A 
ATOM     15  C   UNL     1       5.869   1.030  -8.470  0.00  0.00    +0.195 A 
ATOM     16  O   UNL     1       5.819   0.805  -7.147  0.00  0.00    -0.466 OA
ENDBRANCH   5  12
BRANCH   1  18
ATOM     17  N   UNL     1       2.832  -0.267   0.057  0.00  0.00    -0.280 N 
ATOM     18  C   UNL     1       4.179  -0.281   0.073  0.00  0.00    +0.264 C 
ATOM     19  O   UNL     1       4.771  -0.683   1.055  0.00  0.00    -0.268 OA
ATOM     20  H   UNL     1       2.359  -0.022  -0.754  0.00  0.00    +0.155 HD
BRANCH  17  26
ATOM     21  C   UNL     1       0.817  -1.088   1.103  0.00  0.00    +0.005 A 
ATOM     22  C   UNL     1       0.109  -1.429   2.241  0.00  0.00    +0.057 A 
ATOM     23  C   UNL     1       0.691  -1.284   3.490  0.00  0.00    +0.162 A 
ATOM     24  C   UNL     1       1.990  -0.795   3.600  0.00  0.00    +0.163 A 
ATOM     25  C   UNL     1       2.699  -0.455   2.461  0.00  0.00    +0.073 A 
ATOM     26  C   UNL     1       2.115  -0.606   1.210  0.00  0.00    +0.043 A 
BRANCH  21  28
ATOM     27  C   UNL     1      -0.434   0.085  -0.688  0.00  0.00    +0.043 C 
ATOM     28  C   UNL     1       0.182  -1.247  -0.254  0.00  0.00    +0.143 C 
BRANCH  28  29
ATOM     29  O   UNL     1      -0.839  -2.244  -0.188  0.00  0.00    -0.387 OA
ATOM     30  H   UNL     1      -0.520  -3.117   0.081  0.00  0.00    +0.210 HD
ENDBRANCH  28  29
ENDBRANCH  21  28
BRANCH  24  31
ATOM     31  O   UNL     1       2.562  -0.653   4.825  0.00  0.00    -0.491 OA
ATOM     32  C   UNL     1       3.898  -0.146   4.863  0.00  0.00    +0.277 C 
ENDBRANCH  24  31
BRANCH  23  33
ATOM     33  O   UNL     1      -0.007  -1.618   4.609  0.00  0.00    -0.491 OA
ATOM     34  C   UNL     1      -1.335  -2.112   4.421  0.00  0.00    +0.277 C 
ENDBRANCH  23  33
ENDBRANCH  17  26
ENDBRANCH   1  18
BRANCH   7  35
ATOM     35  C   UNL     1       8.933  -0.223  -2.599  0.00  0.00    +0.410 C 
ATOM     36  F   UNL     1      10.182  -0.066  -3.209  0.00  0.00    -0.169 F 
ATOM     37  F   UNL     1       9.083  -0.167  -1.209  0.00  0.00    -0.169 F 
ATOM     38  F   UNL     1       8.391  -1.462  -2.960  0.00  0.00    -0.169 F 
ENDBRANCH   7  35
TORSDOF 8
