REMARK  Name = ZINC48026561
REMARK  6 active torsions:
REMARK  status: ('A' for Active; 'I' for Inactive)
REMARK    1  A    between atoms: C_1  and  C_2
REMARK    2  A    between atoms: C_2  and  C_4
REMARK    3  A    between atoms: C_2  and  N_14
REMARK    4  A    between atoms: N_6  and  C_7
REMARK    5  A    between atoms: C_17  and  C_20
REMARK    6  A    between atoms: C_20  and  C_21
REMARK                            x       y       z     vdW  Elec       q    Type
REMARK                         _______ _______ _______ _____ _____    ______ ____
ROOT
ATOM      1  C   UNL     1      -0.121   1.535   0.259  0.00  0.00    -0.004 C 
ATOM      2  C   UNL     1      -0.030   0.025   0.030  0.00  0.00    +0.016 C 
ENDROOT
BRANCH   2   3
ATOM      3  N   UNL     1       0.579  -0.613   1.205  0.00  0.00    +0.387 N 
ATOM      4  C   UNL     1      -0.167  -0.230   2.410  0.00  0.00    -0.078 C 
ATOM      5  C   UNL     1       0.512  -0.825   3.646  0.00  0.00    -0.015 C 
ATOM      6  C   UNL     1       0.536  -2.351   3.522  0.00  0.00    -0.006 C 
ATOM      7  C   UNL     1       1.252  -2.737   2.224  0.00  0.00    -0.015 C 
ATOM      8  C   UNL     1       0.546  -2.071   1.042  0.00  0.00    -0.078 C 
ATOM      9  H   UNL     1       1.537  -0.307   1.294  0.00  0.00    -0.081 HD
BRANCH   6  10
ATOM     10  C   UNL     1       1.284  -2.949   4.716  0.00  0.00    +0.099 C 
BRANCH  10  11
ATOM     11  C   UNL     1       1.202  -4.453   4.658  0.00  0.00    +0.211 C 
ATOM     12  O   UNL     1       0.604  -4.993   3.752  0.00  0.00    -0.276 OA
ATOM     13  N   UNL     1       1.792  -5.197   5.614  0.00  0.00    -0.329 N 
ATOM     14  H   UNL     1       2.270  -4.765   6.339  0.00  0.00    +0.145 HD
ATOM     15  H   UNL     1       1.739  -6.165   5.577  0.00  0.00    +0.145 HD
ENDBRANCH  10  11
ENDBRANCH   6  10
ENDBRANCH   2   3
BRANCH   2  16
ATOM     16  C   UNL     1       0.816  -0.250  -1.186  0.00  0.00    +0.203 C 
ATOM     17  O   UNL     1       1.936  -0.697  -1.057  0.00  0.00    -0.277 OA
ATOM     18  N   UNL     1       0.329   0.002  -2.417  0.00  0.00    -0.286 N 
ATOM     19  H   UNL     1      -0.536   0.430  -2.518  0.00  0.00    +0.155 HD
BRANCH  18  20
ATOM     20  C   UNL     1       1.071  -0.353  -3.549  0.00  0.00    +0.047 A 
ATOM     21  C   UNL     1       2.457  -0.290  -3.521  0.00  0.00    +0.024 A 
ATOM     22  C   UNL     1       3.187  -0.642  -4.640  0.00  0.00    +0.002 A 
ATOM     23  C   UNL     1       2.537  -1.057  -5.788  0.00  0.00    +0.001 A 
ATOM     24  C   UNL     1       1.156  -1.121  -5.821  0.00  0.00    +0.017 A 
ATOM     25  C   UNL     1       0.421  -0.776  -4.702  0.00  0.00    +0.039 A 
ATOM     26 BR   UNL     1      -1.467  -0.871  -4.745  0.00  0.00    -0.048 Br
ENDBRANCH  18  20
ENDBRANCH   2  16
TORSDOF 5
