REMARK  Name = ZINC03255133
REMARK  11 active torsions:
REMARK  status: ('A' for Active; 'I' for Inactive)
REMARK    1  A    between atoms: C_1  and  O_2
REMARK    2  A    between atoms: O_2  and  C_3
REMARK    3  A    between atoms: C_8  and  N_9
REMARK    4  A    between atoms: C_10  and  C_12
REMARK    5  A    between atoms: C_12  and  O_13
REMARK    6  A    between atoms: O_13  and  C_14
REMARK    7  A    between atoms: C_14  and  C_16
REMARK    8  A    between atoms: C_18  and  N_23
REMARK    9  A    between atoms: C_21  and  O_22
REMARK   10  A    between atoms: N_23  and  S_24
REMARK   11  A    between atoms: S_24  and  C_27
REMARK                            x       y       z     vdW  Elec       q    Type
REMARK                         _______ _______ _______ _____ _____    ______ ____
ROOT
ATOM      1  C   UNL     1      -0.792  -8.570   1.056  0.00  0.00    +0.102 A 
ATOM      2  C   UNL     1      -0.189  -9.073  -0.101  0.00  0.00    +0.043 A 
ATOM      3  C   UNL     1      -0.272 -10.425  -0.387  0.00  0.00    +0.049 A 
ATOM      4  C   UNL     1      -0.954 -11.281   0.472  0.00  0.00    +0.028 A 
ATOM      5  C   UNL     1      -1.551 -10.790   1.615  0.00  0.00    +0.048 A 
ATOM      6  C   UNL     1      -1.471  -9.440   1.919  0.00  0.00    +0.131 A 
ENDROOT
BRANCH   1   7
ATOM      7  C   UNL     1      -0.708  -7.132   1.368  0.00  0.00    +0.343 C 
ATOM      8  O   UNL     1      -1.229  -6.698   2.377  0.00  0.00    -0.245 OA
BRANCH   7   9
ATOM      9  O   UNL     1      -0.054  -6.298   0.535  0.00  0.00    -0.452 OA
BRANCH   9  10
ATOM     10  C   UNL     1      -0.013  -4.917   0.900  0.00  0.00    +0.328 C 
BRANCH  10  12
ATOM     11  N   UNL     1       0.924  -2.815  -0.006  0.00  0.00    -0.280 N 
ATOM     12  C   UNL     1       0.755  -4.145  -0.142  0.00  0.00    +0.255 C 
ATOM     13  O   UNL     1       1.220  -4.721  -1.103  0.00  0.00    -0.272 OA
ATOM     14  H   UNL     1       0.620  -2.367   0.799  0.00  0.00    +0.155 HD
BRANCH  11  20
ATOM     15  C   UNL     1       2.165  -0.870  -0.737  0.00  0.00    +0.141 A 
ATOM     16  C   UNL     1       2.776  -0.148  -1.750  0.00  0.00    +0.049 A 
ATOM     17  C   UNL     1       2.757  -0.626  -3.048  0.00  0.00    +0.024 A 
ATOM     18  C   UNL     1       2.129  -1.824  -3.339  0.00  0.00    +0.043 A 
ATOM     19  C   UNL     1       1.517  -2.550  -2.333  0.00  0.00    +0.047 A 
ATOM     20  C   UNL     1       1.538  -2.079  -1.028  0.00  0.00    +0.077 A 
ATOM     21 CL   UNL     1       2.110  -2.418  -4.970  0.00  0.00    -0.083 Cl
BRANCH  15  23
ATOM     22  C   UNL     1       2.845   0.846   0.763  0.00  0.00    +0.277 C 
ATOM     23  O   UNL     1       2.183  -0.401   0.539  0.00  0.00    -0.493 OA
ENDBRANCH  15  23
ENDBRANCH  11  20
ENDBRANCH  10  12
ENDBRANCH   9  10
ENDBRANCH   7   9
ENDBRANCH   1   7
BRANCH   6  24
ATOM     24  O   UNL     1      -2.054  -8.960   3.047  0.00  0.00    -0.506 OA
ATOM     25  H   UNL     1      -2.972  -8.681   2.928  0.00  0.00    +0.292 HD
ENDBRANCH   6  24
BRANCH   3  26
ATOM     26  N   UNL     1       0.330 -10.931  -1.545  0.00  0.00    -0.216 N 
ATOM     27  H   UNL     1       0.206 -10.479  -2.394  0.00  0.00    +0.174 HD
BRANCH  26  28
ATOM     28  S   UNL     1       1.256 -12.302  -1.464  0.00  0.00    +0.079 S 
ATOM     29  O   UNL     1       0.504 -13.257  -0.728  0.00  0.00    -0.149 OA
ATOM     30  O   UNL     1       1.725 -12.553  -2.782  0.00  0.00    -0.149 OA
BRANCH  28  31
ATOM     31  C   UNL     1       2.673 -11.917  -0.490  0.00  0.00    +0.146 A 
ATOM     32  C   UNL     1       2.878 -12.118   0.835  0.00  0.00    +0.036 A 
ATOM     33  C   UNL     1       4.083 -11.733   1.392  0.00  0.00    +0.010 A 
ATOM     34  C   UNL     1       5.024 -11.167   0.597  0.00  0.00    +0.047 A 
ATOM     35  S   UNL     1       4.214 -11.170  -0.994  0.00  0.00    -0.077 S 
ENDBRANCH  28  31
ENDBRANCH  26  28
ENDBRANCH   3  26
TORSDOF 10
