REMARK  Name = ZINC04686225
REMARK  10 active torsions:
REMARK  status: ('A' for Active; 'I' for Inactive)
REMARK    1  A    between atoms: C_1  and  C_2
REMARK    2  A    between atoms: C_2  and  C_3
REMARK    3  A    between atoms: C_3  and  C_5
REMARK    4  A    between atoms: C_3  and  N_6
REMARK    5  A    between atoms: C_7  and  C_9
REMARK    6  A    between atoms: C_9  and  S_10
REMARK    7  A    between atoms: S_10  and  C_11
REMARK    8  A    between atoms: C_15  and  C_19
REMARK    9  A    between atoms: N_22  and  C_23
REMARK   10  A    between atoms: C_27  and  C_29
REMARK                            x       y       z     vdW  Elec       q    Type
REMARK                         _______ _______ _______ _____ _____    ______ ____
ROOT
ATOM      1  C   UNL     1      -4.601   2.505   2.239  0.00  0.00    +0.177 A 
ATOM      2  N   UNL     1      -3.576   2.596   3.050  0.00  0.00    -0.201 NA
ATOM      3  C   UNL     1      -2.329   2.278   2.671  0.00  0.00    +0.187 A 
ATOM      4  C   UNL     1      -2.096   1.827   1.364  0.00  0.00    +0.082 A 
ATOM      5  C   UNL     1      -0.720   1.563   1.251  0.00  0.00    +0.046 A 
ATOM      6  N   UNL     1      -0.151   1.844   2.392  0.00  0.00    -0.279 N 
ATOM      7  N   UNL     1      -1.122   2.285   3.300  0.00  0.00    -0.153 NA
ATOM      8  H   UNL     1       0.934   1.716   2.512  0.00  0.00    +0.189 HD
ATOM      9  C   UNL     1      -0.015   1.071   0.013  0.00  0.00    +0.066 C 
ATOM     10  C   UNL     1      -3.239   1.726   0.448  0.00  0.00    +0.124 A 
ATOM     11  N   UNL     1      -3.087   1.324  -0.790  0.00  0.00    -0.384 N 
ATOM     12  N   UNL     1      -4.486   2.072   0.946  0.00  0.00    -0.275 N 
ATOM     13  H   UNL     1      -3.959   1.257  -1.458  0.00  0.00    +0.157 HD
ATOM     14  H   UNL     1      -2.088   1.052  -1.162  0.00  0.00    +0.157 HD
ENDROOT
BRANCH  12  15
ATOM     15  C   UNL     1      -5.619   1.992   0.126  0.00  0.00    +0.051 A 
ATOM     16  C   UNL     1      -6.054   0.758  -0.339  0.00  0.00    +0.028 A 
ATOM     17  C   UNL     1      -7.176   0.680  -1.142  0.00  0.00    +0.022 A 
ATOM     18  C   UNL     1      -7.858   1.833  -1.492  0.00  0.00    +0.044 A 
ATOM     19  C   UNL     1      -7.422   3.064  -1.035  0.00  0.00    -0.030 A 
ATOM     20  C   UNL     1      -6.305   3.146  -0.227  0.00  0.00    +0.031 A 
ATOM     21  C   UNL     1      -8.167   4.316  -1.419  0.00  0.00    +0.045 C 
ATOM     22 CL   UNL     1      -9.263   1.733  -2.507  0.00  0.00    -0.083 Cl
ENDBRANCH  12  15
BRANCH   1  23
ATOM     23  S   UNL     1      -6.195   2.955   2.839  0.00  0.00    -0.078 S 
BRANCH  23  24
ATOM     24  C   UNL     1      -5.770   3.431   4.533  0.00  0.00    +0.173 C 
BRANCH  24  26
ATOM     25  N   UNL     1      -6.942   4.266   6.545  0.00  0.00    -0.312 N 
ATOM     26  C   UNL     1      -7.017   3.865   5.261  0.00  0.00    +0.224 C 
ATOM     27  O   UNL     1      -8.087   3.855   4.690  0.00  0.00    -0.275 OA
ATOM     28  H   UNL     1      -5.972   4.275   7.063  0.00  0.00    +0.149 HD
BRANCH  25  29
ATOM     29  C   UNL     1      -8.154   4.688   7.252  0.00  0.00    +0.070 C 
ATOM     30  C   UNL     1      -8.862   3.461   7.829  0.00  0.00    +0.028 C 
BRANCH  29  32
ATOM     31  C   UNL     1      -7.180   6.922   7.804  0.00  0.00    +0.005 C 
ATOM     32  C   UNL     1      -7.775   5.640   8.389  0.00  0.00    +0.018 C 
ENDBRANCH  29  32
ENDBRANCH  25  29
ENDBRANCH  24  26
ENDBRANCH  23  24
ENDBRANCH   1  23
TORSDOF 6
