REMARK  Name = ZINC20480254
REMARK  3 active torsions:
REMARK  status: ('A' for Active; 'I' for Inactive)
REMARK    1  A    between atoms: C_5  and  N_7
REMARK    2  A    between atoms: C_8  and  C_10
REMARK    3  A    between atoms: C_13  and  O_17
REMARK                            x       y       z     vdW  Elec       q    Type
REMARK                         _______ _______ _______ _____ _____    ______ ____
ROOT
ATOM      1  N   UNL     1       3.702   3.955  -1.080  0.00  0.00    -0.286 N 
ATOM      2  C   UNL     1       2.357   4.039  -1.073  0.00  0.00    +0.203 C 
ATOM      3  O   UNL     1       1.818   5.111  -0.896  0.00  0.00    -0.277 OA
ATOM      4  H   UNL     1       4.192   2.973  -1.166  0.00  0.00    +0.155 HD
ENDROOT
BRANCH   1   9
ATOM      5  C   UNL     1       4.807   7.320  -0.092  0.00  0.00    +0.002 A 
ATOM      6  C   UNL     1       6.008   7.412  -0.773  0.00  0.00    +0.001 A 
ATOM      7  C   UNL     1       6.444   6.359  -1.556  0.00  0.00    +0.016 A 
ATOM      8  C   UNL     1       5.682   5.211  -1.660  0.00  0.00    +0.035 A 
ATOM      9  C   UNL     1       4.477   5.116  -0.977  0.00  0.00    +0.047 A 
ATOM     10  C   UNL     1       4.039   6.177  -0.196  0.00  0.00    +0.024 A 
ATOM     11  I   UNL     1       6.345   3.617  -2.846  0.00  0.00    -0.042 I 
ENDBRANCH   1   9
BRANCH   2  12
ATOM     12  C   UNL     1       1.524   2.802  -1.286  0.00  0.00    +0.019 C 
ATOM     13  C   UNL     1       1.427   1.986   0.021  0.00  0.00    +0.023 C 
ATOM     14  C   UNL     1      -0.012   1.430   0.041  0.00  0.00    +0.097 C 
ATOM     15  C   UNL     1      -0.663   1.957  -1.255  0.00  0.00    -0.050 C 
ATOM     16  N   UNL     1       0.120   3.171  -1.602  0.00  0.00    +0.388 N 
ATOM     17  H   UNL     1      -0.176   4.039  -0.995  0.00  0.00    -0.085 HD
ATOM     18  H   UNL     1       0.038   3.424  -2.669  0.00  0.00    -0.085 HD
BRANCH  14  19
ATOM     19  O   UNL     1       0.008   0.001   0.042  0.00  0.00    -0.394 OA
ATOM     20  H   UNL     1      -0.936  -0.562   0.055  0.00  0.00    +0.210 HD
ENDBRANCH  14  19
ENDBRANCH   2  12
TORSDOF 3
