REMARK  Name = ZINC40215754
REMARK  11 active torsions:
REMARK  status: ('A' for Active; 'I' for Inactive)
REMARK    1  A    between atoms: C_1  and  C_2
REMARK    2  A    between atoms: C_2  and  C_4
REMARK    3  A    between atoms: C_2  and  N_14
REMARK    4  A    between atoms: C_8  and  S_10
REMARK    5  A    between atoms: S_10  and  N_13
REMARK    6  A    between atoms: C_15  and  C_17
REMARK    7  A    between atoms: C_17  and  S_18
REMARK    8  A    between atoms: S_18  and  C_19
REMARK    9  A    between atoms: C_19  and  C_20
REMARK   10  A    between atoms: C_19  and  C_21
REMARK   11  A    between atoms: C_19  and  C_22
REMARK                            x       y       z     vdW  Elec       q    Type
REMARK                         _______ _______ _______ _____ _____    ______ ____
ROOT
ATOM      1  C   UNL     1      -0.019   1.526   0.010  0.00  0.00    +0.033 C 
ATOM      2  C   UNL     1       0.002  -0.004   0.002  0.00  0.00    +0.100 C 
ENDROOT
BRANCH   2   3
ATOM      3  C   UNL     1       0.731  -0.503   1.223  0.00  0.00    -0.026 A 
ATOM      4  C   UNL     1       2.113  -0.514   1.247  0.00  0.00    +0.005 A 
ATOM      5  C   UNL     1       2.782  -0.972   2.366  0.00  0.00    +0.002 A 
ATOM      6  C   UNL     1       2.068  -1.419   3.463  0.00  0.00    +0.028 A 
ATOM      7  C   UNL     1       0.686  -1.407   3.439  0.00  0.00    +0.105 A 
ATOM      8  C   UNL     1       0.018  -0.945   2.321  0.00  0.00    +0.034 A 
BRANCH   7   9
ATOM      9  S   UNL     1      -0.223  -1.978   4.837  0.00  0.00    +0.056 S 
ATOM     10  O   UNL     1      -1.500  -2.374   4.356  0.00  0.00    -0.153 OA
ATOM     11  O   UNL     1       0.633  -2.864   5.545  0.00  0.00    -0.153 OA
BRANCH   9  12
ATOM     12  N   UNL     1      -0.474  -0.672   5.824  0.00  0.00    -0.204 NA
ATOM     13  H   UNL     1      -1.266  -0.631   6.382  0.00  0.00    +0.144 HD
ATOM     14  H   UNL     1       0.171   0.052   5.844  0.00  0.00    +0.144 HD
ENDBRANCH   9  12
ENDBRANCH   7   9
ENDBRANCH   2   3
BRANCH   2  15
ATOM     15  N   UNL     1       0.688  -0.476  -1.203  0.00  0.00    -0.308 N 
ATOM     16  C   UNL     1       0.006  -0.608  -2.358  0.00  0.00    +0.223 C 
ATOM     17  O   UNL     1      -1.175  -0.336  -2.400  0.00  0.00    -0.275 OA
ATOM     18  H   UNL     1       1.632  -0.695  -1.170  0.00  0.00    +0.149 HD
BRANCH  16  19
ATOM     19  C   UNL     1       0.712  -1.094  -3.598  0.00  0.00    +0.165 C 
BRANCH  19  20
ATOM     20  S   UNL     1      -0.466  -1.164  -4.976  0.00  0.00    -0.145 S 
BRANCH  20  21
ATOM     21  C   UNL     1       0.527  -1.759  -6.373  0.00  0.00    +0.009 C 
ATOM     22  C   UNL     1       1.104  -3.135  -6.038  0.00  0.00    +0.022 C 
ATOM     23  C   UNL     1      -0.356  -1.865  -7.618  0.00  0.00    +0.022 C 
ATOM     24  C   UNL     1       1.670  -0.777  -6.641  0.00  0.00    +0.022 C 
ENDBRANCH  20  21
ENDBRANCH  19  20
ENDBRANCH  16  19
ENDBRANCH   2  15
TORSDOF 7
