REMARK  Name = ZINC40096315
REMARK  13 active torsions:
REMARK  status: ('A' for Active; 'I' for Inactive)
REMARK    1  A    between atoms: C_1  and  C_2
REMARK    2  A    between atoms: C_2  and  C_3
REMARK    3  A    between atoms: C_2  and  C_4
REMARK    4  A    between atoms: C_8  and  C_25
REMARK    5  A    between atoms: C_9  and  N_10
REMARK    6  A    between atoms: N_13  and  C_14
REMARK    7  A    between atoms: C_14  and  C_15
REMARK    8  A    between atoms: C_18  and  C_21
REMARK    9  A    between atoms: C_21  and  N_22
REMARK   10  A    between atoms: N_22  and  C_23
REMARK   11  A    between atoms: N_22  and  C_24
REMARK   12  A    between atoms: C_25  and  C_26
REMARK   13  A    between atoms: C_25  and  C_27
REMARK                            x       y       z     vdW  Elec       q    Type
REMARK                         _______ _______ _______ _____ _____    ______ ____
ROOT
ATOM      1  N   UNL     1      -1.547  -0.238   1.984  0.00  0.00    -0.269 N 
ATOM      2  C   UNL     1      -2.466  -1.164   2.322  0.00  0.00    +0.304 C 
ATOM      3  O   UNL     1      -2.111  -2.240   2.762  0.00  0.00    -0.252 OA
ATOM      4  N   UNL     1      -3.778  -0.897   2.172  0.00  0.00    -0.295 N 
ATOM      5  H   UNL     1      -1.830   0.648   1.708  0.00  0.00    +0.156 HD
ATOM      6  H   UNL     1      -4.062  -0.038   1.821  0.00  0.00    +0.151 HD
ENDROOT
BRANCH   1  12
ATOM      7  C   UNL     1       0.584  -0.498   0.877  0.00  0.00    -0.023 A 
ATOM      8  C   UNL     1       1.930  -0.805   0.929  0.00  0.00    +0.006 A 
ATOM      9  C   UNL     1       2.511  -1.173   2.129  0.00  0.00    +0.001 A 
ATOM     10  C   UNL     1       1.747  -1.236   3.280  0.00  0.00    +0.006 A 
ATOM     11  C   UNL     1       0.400  -0.930   3.234  0.00  0.00    -0.023 A 
ATOM     12  C   UNL     1      -0.184  -0.554   2.032  0.00  0.00    +0.042 A 
BRANCH   7  14
ATOM     13  C   UNL     1       0.643   1.159  -0.967  0.00  0.00    +0.012 C 
ATOM     14  C   UNL     1      -0.048  -0.097  -0.431  0.00  0.00    +0.015 C 
ATOM     15  C   UNL     1       0.105  -1.235  -1.441  0.00  0.00    +0.012 C 
ENDBRANCH   7  14
BRANCH  11  16
ATOM     16  C   UNL     1      -0.432  -1.000   4.489  0.00  0.00    +0.015 C 
ATOM     17  C   UNL     1       0.195  -2.001   5.461  0.00  0.00    +0.012 C 
ATOM     18  C   UNL     1      -0.484   0.382   5.143  0.00  0.00    +0.012 C 
ENDBRANCH  11  16
ENDBRANCH   1  12
BRANCH   4  19
ATOM     19  C   UNL     1      -4.777  -1.904   2.540  0.00  0.00    +0.141 C 
BRANCH  19  20
ATOM     20  C   UNL     1      -6.158  -1.361   2.277  0.00  0.00    -0.030 A 
ATOM     21  C   UNL     1      -6.826  -0.664   3.267  0.00  0.00    +0.005 A 
ATOM     22  C   UNL     1      -8.093  -0.166   3.027  0.00  0.00    +0.002 A 
ATOM     23  C   UNL     1      -8.691  -0.363   1.796  0.00  0.00    -0.064 A 
ATOM     24  C   UNL     1      -8.023  -1.059   0.806  0.00  0.00    +0.002 A 
ATOM     25  C   UNL     1      -6.755  -1.554   1.046  0.00  0.00    +0.005 A 
BRANCH  23  26
ATOM     26  C   UNL     1     -10.073   0.179   1.535  0.00  0.00    -0.044 C 
BRANCH  26  27
ATOM     27  N   UNL     1      -9.969   1.540   0.991  0.00  0.00    +0.379 N 
ATOM     28  C   UNL     1      -9.315   1.494  -0.323  0.00  0.00    -0.096 C 
ATOM     29  C   UNL     1     -11.314   2.114   0.848  0.00  0.00    -0.096 C 
ATOM     30  H   UNL     1      -9.425   2.113   1.618  0.00  0.00    -0.082 HD
ENDBRANCH  26  27
ENDBRANCH  23  26
ENDBRANCH  19  20
ENDBRANCH   4  19
TORSDOF 7
