REMARK  Name = ZINC08691774
REMARK  7 active torsions:
REMARK  status: ('A' for Active; 'I' for Inactive)
REMARK    1  A    between atoms: C_4  and  N_35
REMARK    2  A    between atoms: C_5  and  C_7
REMARK    3  A    between atoms: C_10  and  C_12
REMARK    4  A    between atoms: C_14  and  C_26
REMARK    5  A    between atoms: C_16  and  C_21
REMARK    6  A    between atoms: C_18  and  O_20
REMARK    7  A    between atoms: C_26  and  C_28
REMARK                            x       y       z     vdW  Elec       q    Type
REMARK                         _______ _______ _______ _____ _____    ______ ____
ROOT
ATOM      1  C   UNL     1       2.353  -5.401  -1.300  0.00  0.00    +0.156 C 
ATOM      2  C   UNL     1       3.792  -5.621  -0.810  0.00  0.00    +0.152 C 
ATOM      3  C   UNL     1       4.389  -6.800  -1.581  0.00  0.00    +0.284 C 
ATOM      4  N   UNL     1       4.173  -6.639  -3.014  0.00  0.00    -0.306 N 
ATOM      5  C   UNL     1       3.266  -5.875  -3.521  0.00  0.00    +0.256 C 
ATOM      6  N   UNL     1       2.416  -5.126  -2.744  0.00  0.00    -0.290 N 
ATOM      7  O   UNL     1       3.769  -8.011  -1.144  0.00  0.00    -0.194 OA
ATOM      8  H   UNL     1       1.869  -4.429  -3.139  0.00  0.00    +0.151 HD
ATOM      9  H   UNL     1       4.745  -7.134  -3.621  0.00  0.00    +0.167 HD
ENDROOT
BRANCH   1  13
ATOM     10  C   UNL     1       1.250  -2.160  -0.023  0.00  0.00    +0.137 A 
ATOM     11  C   UNL     1       0.561  -2.976   0.819  0.00  0.00    +0.050 A 
ATOM     12  C   UNL     1       0.882  -4.299   0.454  0.00  0.00    +0.047 A 
ATOM     13  C   UNL     1       1.740  -4.226  -0.582  0.00  0.00    +0.127 A 
ATOM     14  O   UNL     1       1.957  -2.932  -0.870  0.00  0.00    -0.458 OA
BRANCH  10  19
ATOM     15  C   UNL     1      -0.017   1.375   0.010  0.00  0.00    +0.001 A 
ATOM     16  C   UNL     1       1.170   2.086   0.002  0.00  0.00    +0.002 A 
ATOM     17  C   UNL     1       2.383   1.420  -0.013  0.00  0.00    +0.033 A 
ATOM     18  C   UNL     1       2.416   0.041  -0.021  0.00  0.00    +0.137 A 
ATOM     19  C   UNL     1       1.222  -0.682  -0.014  0.00  0.00    +0.047 A 
ATOM     20  C   UNL     1       0.002  -0.004   0.002  0.00  0.00    +0.014 A 
BRANCH  18  21
ATOM     21  N   UNL     1       3.714  -0.670  -0.038  0.00  0.00    +0.057 N 
ATOM     22  O   UNL     1       4.747  -0.042  -0.045  0.00  0.00    -0.126 OA
ATOM     23  O   UNL     1       3.741  -1.879  -0.045  0.00  0.00    -0.126 OA
ENDBRANCH  18  21
ENDBRANCH  10  19
ENDBRANCH   1  13
BRANCH   3  24
ATOM     24  C   UNL     1       5.892  -6.875  -1.302  0.00  0.00    +0.441 C 
ATOM     25  F   UNL     1       6.104  -7.055   0.069  0.00  0.00    -0.166 F 
ATOM     26  F   UNL     1       6.444  -7.952  -2.005  0.00  0.00    -0.166 F 
ATOM     27  F   UNL     1       6.503  -5.686  -1.716  0.00  0.00    -0.166 F 
ENDBRANCH   3  24
BRANCH   5  28
ATOM     28  O   UNL     1       3.147  -5.809  -4.865  0.00  0.00    -0.483 OA
ATOM     29  H   UNL     1       3.778  -6.364  -5.344  0.00  0.00    +0.295 HD
ENDBRANCH   5  28
BRANCH   2  30
ATOM     30  C   UNL     1       3.784  -5.929   0.665  0.00  0.00    +0.173 C 
ATOM     31  O   UNL     1       2.832  -6.494   1.161  0.00  0.00    -0.292 OA
BRANCH  30  32
ATOM     32  C   UNL     1       4.929  -5.546   1.502  0.00  0.00    +0.018 A 
ATOM     33  C   UNL     1       6.027  -4.890   0.934  0.00  0.00    +0.014 A 
ATOM     34  C   UNL     1       7.097  -4.533   1.724  0.00  0.00    +0.039 A 
ATOM     35  C   UNL     1       7.089  -4.824   3.080  0.00  0.00    +0.123 A 
ATOM     36  C   UNL     1       6.005  -5.475   3.650  0.00  0.00    +0.039 A 
ATOM     37  C   UNL     1       4.925  -5.831   2.872  0.00  0.00    +0.014 A 
ATOM     38  F   UNL     1       8.143  -4.473   3.850  0.00  0.00    -0.205 F 
ENDBRANCH  30  32
ENDBRANCH   2  30
TORSDOF 7
