REMARK  Name = ZINC15777692
REMARK  3 active torsions:
REMARK  status: ('A' for Active; 'I' for Inactive)
REMARK    1  A    between atoms: N_13  and  C_14
REMARK    2  A    between atoms: C_14  and  C_15
REMARK    3  A    between atoms: N_17  and  N_18
REMARK                            x       y       z     vdW  Elec       q    Type
REMARK                         _______ _______ _______ _____ _____    ______ ____
ROOT
ATOM      1  C   UNL     1       5.392  -0.376   1.366  0.00  0.00    +0.252 C 
ATOM      2  O   UNL     1       4.639  -0.579   2.294  0.00  0.00    -0.272 OA
ATOM      3  N   UNL     1       6.677  -0.046   1.601  0.00  0.00    -0.205 N 
ATOM      4  H   UNL     1       7.280   0.116   0.858  0.00  0.00    +0.177 HD
ENDROOT
BRANCH   3   5
ATOM      5  N   UNL     1       7.143   0.062   2.917  0.00  0.00    -0.174 NA
ATOM      6  C   UNL     1       8.393   0.383   3.146  0.00  0.00    +0.153 C 
ATOM      7  C   UNL     1       9.060   0.537   4.460  0.00  0.00    +0.029 A 
ATOM      8  C   UNL     1       8.619   0.404   5.772  0.00  0.00    +0.027 A 
ATOM      9  C   UNL     1       9.499   0.618   6.816  0.00  0.00    +0.019 A 
ATOM     10  C   UNL     1      10.815   0.962   6.553  0.00  0.00    +0.017 A 
ATOM     11  C   UNL     1      11.261   1.097   5.254  0.00  0.00    +0.025 A 
ATOM     12  C   UNL     1      10.389   0.885   4.191  0.00  0.00    +0.043 A 
ATOM     13  N   UNL     1      10.578   0.954   2.815  0.00  0.00    -0.280 N 
ATOM     14  C   UNL     1       9.447   0.663   2.149  0.00  0.00    +0.269 C 
ATOM     15  O   UNL     1       9.314   0.639   0.940  0.00  0.00    -0.268 OA
ATOM     16 BR   UNL     1       8.907   0.439   8.602  0.00  0.00    -0.050 Br
ATOM     17  H   UNL     1      11.420   1.178   2.389  0.00  0.00    +0.155 HD
ENDBRANCH   3   5
BRANCH   1  18
ATOM     18  C   UNL     1       4.891  -0.493  -0.051  0.00  0.00    +0.219 C 
BRANCH  18  31
ATOM     19  C   UNL     1      -0.017   1.374   0.010  0.00  0.00    +0.001 A 
ATOM     20  C   UNL     1       1.171   2.089   0.002  0.00  0.00    +0.002 A 
ATOM     21  C   UNL     1       2.384   1.433  -0.013  0.00  0.00    +0.026 A 
ATOM     22  C   UNL     1       2.423   0.042  -0.022  0.00  0.00    +0.051 A 
ATOM     23  C   UNL     1       1.220  -0.680  -0.014  0.00  0.00    +0.008 A 
ATOM     24  C   UNL     1       0.002  -0.004   0.002  0.00  0.00    +0.010 A 
ATOM     25  C   UNL     1       1.589  -2.107  -0.026  0.00  0.00    +0.008 A 
ATOM     26  C   UNL     1       0.850  -3.288  -0.027  0.00  0.00    +0.010 A 
ATOM     27  C   UNL     1       1.501  -4.503  -0.041  0.00  0.00    +0.001 A 
ATOM     28  C   UNL     1       2.886  -4.553  -0.056  0.00  0.00    +0.002 A 
ATOM     29  C   UNL     1       3.629  -3.393  -0.056  0.00  0.00    +0.026 A 
ATOM     30  C   UNL     1       2.990  -2.156  -0.041  0.00  0.00    +0.051 A 
ATOM     31  N   UNL     1       3.472  -0.859  -0.038  0.00  0.00    -0.331 N 
ENDBRANCH  18  31
ENDBRANCH   1  18
TORSDOF 3
