REMARK  Name = ZINC50105809
REMARK  10 active torsions:
REMARK  status: ('A' for Active; 'I' for Inactive)
REMARK    1  A    between atoms: C_1  and  C_2
REMARK    2  A    between atoms: C_2  and  C_3
REMARK    3  A    between atoms: C_2  and  N_4
REMARK    4  A    between atoms: N_4  and  C_5
REMARK    5  A    between atoms: N_4  and  C_9
REMARK    6  A    between atoms: C_5  and  C_6
REMARK    7  A    between atoms: C_6  and  C_7
REMARK    8  A    between atoms: C_7  and  O_8
REMARK    9  A    between atoms: C_9  and  C_10
REMARK   10  A    between atoms: N_12  and  C_13
REMARK                            x       y       z     vdW  Elec       q    Type
REMARK                         _______ _______ _______ _____ _____    ______ ____
ROOT
ATOM      1  C   UNL     1      -2.869   1.491  -0.606  0.00  0.00    +0.201 C 
ATOM      2  O   UNL     1      -2.076   2.070   0.106  0.00  0.00    -0.278 OA
ATOM      3  N   UNL     1      -3.814   2.188  -1.268  0.00  0.00    -0.286 N 
ATOM      4  H   UNL     1      -4.487   1.720  -1.786  0.00  0.00    +0.155 HD
ENDROOT
BRANCH   3   5
ATOM      5  C   UNL     1      -3.825   3.586  -1.206  0.00  0.00    +0.052 A 
ATOM      6  C   UNL     1      -3.277   4.239  -0.110  0.00  0.00    +0.026 A 
ATOM      7  C   UNL     1      -3.288   5.618  -0.052  0.00  0.00    +0.017 A 
ATOM      8  C   UNL     1      -3.846   6.351  -1.084  0.00  0.00    +0.019 A 
ATOM      9  C   UNL     1      -4.393   5.705  -2.178  0.00  0.00    +0.037 A 
ATOM     10  C   UNL     1      -4.378   4.324  -2.245  0.00  0.00    +0.063 A 
ATOM     11 CL   UNL     1      -5.058   3.514  -3.622  0.00  0.00    -0.082 Cl
ATOM     12 BR   UNL     1      -3.860   8.241  -1.000  0.00  0.00    -0.050 Br
ENDBRANCH   3   5
BRANCH   1  13
ATOM     13  C   UNL     1      -2.796  -0.007  -0.752  0.00  0.00    +0.019 C 
BRANCH  13  14
ATOM     14  N   UNL     1      -1.581  -0.505  -0.094  0.00  0.00    +0.387 N 
ATOM     15  H   UNL     1      -1.423   0.013   0.758  0.00  0.00    -0.081 HD
BRANCH  14  17
ATOM     16  C   UNL     1      -0.671  -1.112  -2.285  0.00  0.00    -0.014 C 
ATOM     17  C   UNL     1      -0.431  -0.331  -0.992  0.00  0.00    -0.074 C 
ATOM     18  C   UNL     1      -0.259   1.154  -1.318  0.00  0.00    -0.014 C 
ENDBRANCH  14  17
BRANCH  14  19
ATOM     19  C   UNL     1      -1.744  -1.930   0.222  0.00  0.00    -0.076 C 
BRANCH  19  20
ATOM     20  C   UNL     1      -0.538  -2.415   1.029  0.00  0.00    +0.009 C 
BRANCH  20  21
ATOM     21  C   UNL     1      -0.658  -3.921   1.271  0.00  0.00    +0.154 C 
BRANCH  21  22
ATOM     22  O   UNL     1       0.469  -4.374   2.024  0.00  0.00    -0.395 OA
ATOM     23  H   UNL     1       0.459  -5.322   2.215  0.00  0.00    +0.209 HD
ENDBRANCH  21  22
ENDBRANCH  20  21
ENDBRANCH  19  20
ENDBRANCH  14  19
ENDBRANCH  13  14
ENDBRANCH   1  13
TORSDOF 8
