REMARK  Name = ZINC48001500
REMARK  10 active torsions:
REMARK  status: ('A' for Active; 'I' for Inactive)
REMARK    1  A    between atoms: C_1  and  N_2
REMARK    2  A    between atoms: N_2  and  C_3
REMARK    3  A    between atoms: N_2  and  C_20
REMARK    4  A    between atoms: C_3  and  C_4
REMARK    5  A    between atoms: C_4  and  C_5
REMARK    6  A    between atoms: C_5  and  N_6
REMARK    7  A    between atoms: C_7  and  C_9
REMARK    8  A    between atoms: N_11  and  C_12
REMARK    9  A    between atoms: C_13  and  C_17
REMARK   10  A    between atoms: C_20  and  C_21
REMARK                            x       y       z     vdW  Elec       q    Type
REMARK                         _______ _______ _______ _____ _____    ______ ____
ROOT
ATOM      1  N   UNL     1      -0.672  -0.780  -4.834  0.00  0.00    -0.308 N 
ATOM      2  C   UNL     1      -0.275  -1.064  -6.090  0.00  0.00    +0.299 C 
ATOM      3  O   UNL     1       0.870  -1.409  -6.302  0.00  0.00    -0.265 OA
ATOM      4  H   UNL     1      -1.586  -0.504  -4.665  0.00  0.00    +0.149 HD
ENDROOT
BRANCH   2   5
ATOM      5  C   UNL     1      -1.242  -0.954  -7.222  0.00  0.00    +0.304 C 
ATOM      6  O   UNL     1      -2.387  -0.608  -7.010  0.00  0.00    -0.265 OA
ATOM      7  N   UNL     1      -0.845  -1.238  -8.478  0.00  0.00    -0.272 N 
ATOM      8  H   UNL     1       0.069  -1.514  -8.647  0.00  0.00    +0.156 HD
BRANCH   7   9
ATOM      9  C   UNL     1      -1.742  -1.136  -9.527  0.00  0.00    +0.084 A 
ATOM     10  C   UNL     1      -1.515  -1.391 -10.872  0.00  0.00    +0.065 A 
ATOM     11  C   UNL     1      -2.636  -1.204 -11.764  0.00  0.00    +0.022 A 
ATOM     12  C   UNL     1      -3.784  -0.800 -11.187  0.00  0.00    +0.048 A 
ATOM     13  S   UNL     1      -3.356  -0.682  -9.463  0.00  0.00    -0.081 S 
BRANCH  10  14
ATOM     14  C   UNL     1      -0.204  -1.829 -11.363  0.00  0.00    +0.244 C 
ATOM     15  O   UNL     1       0.719  -1.976 -10.584  0.00  0.00    -0.270 OA
ATOM     16  N   UNL     1      -0.022  -2.067 -12.677  0.00  0.00    -0.325 N 
ATOM     17  H   UNL     1      -0.758  -1.949 -13.298  0.00  0.00    +0.145 HD
ATOM     18  H   UNL     1       0.845  -2.356 -13.002  0.00  0.00    +0.145 HD
ENDBRANCH  10  14
ENDBRANCH   7   9
ENDBRANCH   2   5
BRANCH   1  19
ATOM     19  C   UNL     1       0.278  -0.888  -3.724  0.00  0.00    +0.103 C 
BRANCH  19  20
ATOM     20  C   UNL     1      -0.422  -0.513  -2.416  0.00  0.00    +0.000 C 
BRANCH  20  21
ATOM     21  C   UNL     1       0.570  -0.626  -1.256  0.00  0.00    -0.077 C 
BRANCH  21  23
ATOM     22  C   UNL     1      -0.492   1.150  -0.042  0.00  0.00    -0.096 C 
ATOM     23  N   UNL     1      -0.102  -0.266  -0.001  0.00  0.00    +0.384 N 
ATOM     24  H   UNL     1      -0.925  -0.838   0.117  0.00  0.00    -0.082 HD
BRANCH  23  25
ATOM     25  C   UNL     1       0.814  -0.489   1.126  0.00  0.00    +0.036 C 
BRANCH  25  26
ATOM     26  C   UNL     1       0.082  -0.211   2.441  0.00  0.00    +0.376 C 
ATOM     27  F   UNL     1      -1.098  -0.961   2.486  0.00  0.00    -0.173 F 
ATOM     28  F   UNL     1       0.903  -0.568   3.516  0.00  0.00    -0.173 F 
ATOM     29  F   UNL     1      -0.228   1.151   2.523  0.00  0.00    -0.173 F 
ENDBRANCH  25  26
ENDBRANCH  23  25
ENDBRANCH  21  23
ENDBRANCH  20  21
ENDBRANCH  19  20
ENDBRANCH   1  19
TORSDOF 9
