REMARK  Name = ZINC43290165
REMARK  7 active torsions:
REMARK  status: ('A' for Active; 'I' for Inactive)
REMARK    1  A    between atoms: C_1  and  C_2
REMARK    2  A    between atoms: C_2  and  C_4
REMARK    3  A    between atoms: C_2  and  N_20
REMARK    4  A    between atoms: C_4  and  C_6
REMARK    5  A    between atoms: C_4  and  O_12
REMARK    6  A    between atoms: O_12  and  C_13
REMARK    7  A    between atoms: C_13  and  C_14
REMARK                            x       y       z     vdW  Elec       q    Type
REMARK                         _______ _______ _______ _____ _____    ______ ____
ROOT
ATOM      1  C   UNL     1       0.807  -0.545   1.410  0.00  0.00    +0.140 C 
ENDROOT
BRANCH   1   2
ATOM      2  C   UNL     1       0.918  -2.018   1.705  0.00  0.00    +0.018 A 
ATOM      3  C   UNL     1       0.064  -2.818   2.390  0.00  0.00    +0.029 A 
ATOM      4  C   UNL     1       0.374  -4.158   2.538  0.00  0.00    +0.025 A 
ATOM      5  C   UNL     1       1.523  -4.631   1.995  0.00  0.00    +0.060 A 
ATOM      6  S   UNL     1       2.204  -3.164   1.237  0.00  0.00    -0.098 S 
ATOM      7 BR   UNL     1      -0.786  -5.312   3.486  0.00  0.00    -0.050 Br
ENDBRANCH   1   2
BRANCH   1   9
ATOM      8  C   UNL     1       1.109  -0.898  -1.045  0.00  0.00    -0.011 C 
ATOM      9  C   UNL     1       0.172  -0.347   0.032  0.00  0.00    -0.044 C 
BRANCH   9  10
ATOM     10  N   UNL     1      -0.055   1.085  -0.202  0.00  0.00    +0.382 N 
ATOM     11  H   UNL     1      -0.558   1.209  -1.068  0.00  0.00    -0.090 HD
ATOM     12  H   UNL     1      -0.595   1.469   0.559  0.00  0.00    -0.090 HD
ATOM     13  H   UNL     1       0.833   1.562  -0.258  0.00  0.00    -0.090 HD
ENDBRANCH   9  10
ENDBRANCH   1   9
BRANCH   1  14
ATOM     14  O   UNL     1       2.109   0.043   1.423  0.00  0.00    -0.373 OA
BRANCH  14  15
ATOM     15  C   UNL     1       2.158   1.335   2.034  0.00  0.00    +0.166 C 
BRANCH  15  16
ATOM     16  C   UNL     1       3.583   1.884   1.952  0.00  0.00    +0.043 C 
ATOM     17  C   UNL     1       3.680   3.248   2.677  0.00  0.00    +0.036 C 
ATOM     18  C   UNL     1       4.595   4.058   1.723  0.00  0.00    +0.160 C 
ATOM     19  O   UNL     1       4.184   3.622   0.410  0.00  0.00    -0.379 OA
ATOM     20  C   UNL     1       3.956   2.201   0.491  0.00  0.00    +0.165 C 
ENDBRANCH  15  16
ENDBRANCH  14  15
ENDBRANCH   1  14
TORSDOF 6
