REMARK  Name = ZINC09491318
REMARK  10 active torsions:
REMARK  status: ('A' for Active; 'I' for Inactive)
REMARK    1  A    between atoms: C_1  and  C_2
REMARK    2  A    between atoms: C_5  and  S_8
REMARK    3  A    between atoms: S_8  and  N_11
REMARK    4  A    between atoms: C_16  and  C_18
REMARK    5  A    between atoms: C_16  and  C_24
REMARK    6  A    between atoms: C_16  and  N_66
REMARK    7  A    between atoms: N_26  and  C_27
REMARK    8  A    between atoms: C_29  and  C_35
REMARK    9  A    between atoms: C_32  and  O_33
REMARK   10  A    between atoms: O_33  and  C_34
REMARK                            x       y       z     vdW  Elec       q    Type
REMARK                         _______ _______ _______ _____ _____    ______ ____
ROOT
ATOM      1  C   UNL     1       1.159  -2.149  -5.733  0.00  0.00    +0.050 C 
ENDROOT
BRANCH   1   7
ATOM      2  N   UNL     1       1.194  -2.951  -1.614  0.00  0.00    -0.180 NA
ATOM      3  C   UNL     1      -0.067  -3.199  -2.329  0.00  0.00    +0.091 C 
ATOM      4  C   UNL     1      -0.039  -2.405  -3.645  0.00  0.00    -0.060 C 
ATOM      5  C   UNL     1       2.386  -2.358  -3.656  0.00  0.00    -0.060 C 
ATOM      6  C   UNL     1       2.457  -3.144  -2.343  0.00  0.00    +0.091 C 
ATOM      7  N   UNL     1       1.178  -2.780  -4.398  0.00  0.00    +0.392 N 
ATOM      8  H   UNL     1       1.197  -3.801  -4.512  0.00  0.00    -0.080 HD
BRANCH   2   9
ATOM      9  S   UNL     1       1.192  -2.475  -0.028  0.00  0.00    +0.061 S 
ATOM     10  O   UNL     1       2.448  -2.861   0.514  0.00  0.00    -0.153 OA
ATOM     11  O   UNL     1      -0.043  -2.909   0.525  0.00  0.00    -0.153 OA
BRANCH   9  16
ATOM     12  C   UNL     1       1.075   3.558   0.024  0.00  0.00    +0.044 C 
ATOM     13  C   UNL     1       1.105   2.051   0.011  0.00  0.00    -0.050 A 
ATOM     14  C   UNL     1      -0.079   1.337   0.010  0.00  0.00    +0.005 A 
ATOM     15  C   UNL     1      -0.052  -0.045  -0.002  0.00  0.00    +0.029 A 
ATOM     16  C   UNL     1       1.158  -0.713  -0.013  0.00  0.00    +0.105 A 
ATOM     17  C   UNL     1       2.341   0.001  -0.013  0.00  0.00    +0.029 A 
ATOM     18  C   UNL     1       2.315   1.383  -0.002  0.00  0.00    +0.005 A 
ENDBRANCH   9  16
ENDBRANCH   2   9
ENDBRANCH   1   7
BRANCH   1  19
ATOM     19  C   UNL     1      -0.192  -2.366  -6.364  0.00  0.00    -0.052 A 
ATOM     20  C   UNL     1      -0.841  -3.577  -6.207  0.00  0.00    +0.002 A 
ATOM     21  C   UNL     1      -2.083  -3.775  -6.782  0.00  0.00    +0.000 A 
ATOM     22  C   UNL     1      -2.671  -2.766  -7.520  0.00  0.00    +0.000 A 
ATOM     23  C   UNL     1      -2.020  -1.557  -7.681  0.00  0.00    +0.000 A 
ATOM     24  C   UNL     1      -0.780  -1.357  -7.103  0.00  0.00    +0.002 A 
ENDBRANCH   1  19
BRANCH   1  25
ATOM     25  C   UNL     1       2.221  -2.792  -6.587  0.00  0.00    +0.208 C 
ATOM     26  O   UNL     1       2.924  -3.666  -6.125  0.00  0.00    -0.277 OA
ATOM     27  N   UNL     1       2.390  -2.397  -7.864  0.00  0.00    -0.284 N 
ATOM     28  H   UNL     1       1.787  -1.745  -8.254  0.00  0.00    +0.155 HD
BRANCH  27  29
ATOM     29  C   UNL     1       3.437  -2.928  -8.630  0.00  0.00    +0.076 A 
ATOM     30  C   UNL     1       3.830  -4.246  -8.450  0.00  0.00    +0.030 A 
ATOM     31  C   UNL     1       4.863  -4.768  -9.206  0.00  0.00    -0.048 A 
ATOM     32  C   UNL     1       5.506  -3.979 -10.142  0.00  0.00    +0.007 A 
ATOM     33  C   UNL     1       5.120  -2.665 -10.326  0.00  0.00    +0.048 A 
ATOM     34  C   UNL     1       4.082  -2.136  -9.576  0.00  0.00    +0.141 A 
ATOM     35  C   UNL     1       5.288  -6.200  -9.010  0.00  0.00    +0.044 C 
BRANCH  34  36
ATOM     36  O   UNL     1       3.697  -0.845  -9.761  0.00  0.00    -0.493 OA
ATOM     37  C   UNL     1       4.403  -0.092 -10.749  0.00  0.00    +0.277 C 
ENDBRANCH  34  36
ENDBRANCH  27  29
ENDBRANCH   1  25
TORSDOF 7
