REMARK  Name = ZINC35338096
REMARK  12 active torsions:
REMARK  status: ('A' for Active; 'I' for Inactive)
REMARK    1  A    between atoms: C_1  and  C_2
REMARK    2  A    between atoms: C_2  and  C_3
REMARK    3  A    between atoms: C_2  and  C_4
REMARK    4  A    between atoms: C_4  and  C_5
REMARK    5  A    between atoms: C_5  and  N_6
REMARK    6  A    between atoms: N_6  and  C_7
REMARK    7  A    between atoms: C_7  and  C_8
REMARK    8  A    between atoms: N_10  and  C_11
REMARK    9  A    between atoms: N_10  and  C_25
REMARK   10  A    between atoms: C_11  and  C_12
REMARK   11  A    between atoms: N_16  and  C_17
REMARK   12  A    between atoms: C_17  and  C_18
REMARK                            x       y       z     vdW  Elec       q    Type
REMARK                         _______ _______ _______ _____ _____    ______ ____
ROOT
ATOM      1  C   UNL     1      -4.183  -4.703  -0.612  0.00  0.00    +0.199 C 
ATOM      2  O   UNL     1      -3.013  -4.743  -0.298  0.00  0.00    -0.278 OA
ATOM      3  N   UNL     1      -4.813  -5.826  -1.010  0.00  0.00    -0.294 N 
ENDROOT
BRANCH   3   4
ATOM      4  C   UNL     1      -4.119  -7.115  -0.952  0.00  0.00    +0.076 C 
ATOM      5  C   UNL     1      -3.640  -7.372   0.478  0.00  0.00    +0.022 C 
ATOM      6  C   UNL     1      -2.915  -8.718   0.538  0.00  0.00    +0.002 C 
ATOM      7  C   UNL     1      -1.711  -8.691  -0.405  0.00  0.00    +0.000 C 
ATOM      8  C   UNL     1      -2.189  -8.434  -1.835  0.00  0.00    +0.002 C 
ATOM      9  C   UNL     1      -2.914  -7.088  -1.896  0.00  0.00    +0.022 C 
ENDBRANCH   3   4
BRANCH   1  10
ATOM     10  C   UNL     1      -4.934  -3.397  -0.558  0.00  0.00    +0.015 C 
BRANCH  10  11
ATOM     11  N   UNL     1      -4.015  -2.320  -0.167  0.00  0.00    +0.385 N 
ATOM     12  H   UNL     1      -3.230  -2.301  -0.800  0.00  0.00    -0.085 HD
ATOM     13  H   UNL     1      -3.686  -2.483   0.773  0.00  0.00    -0.085 HD
BRANCH  11  14
ATOM     14  C   UNL     1      -4.719  -1.032  -0.221  0.00  0.00    -0.082 C 
BRANCH  14  15
ATOM     15  C   UNL     1      -3.762   0.090   0.186  0.00  0.00    -0.016 C 
BRANCH  15  17
ATOM     16  C   UNL     1      -3.577   2.538   0.654  0.00  0.00    +0.007 C 
ATOM     17  C   UNL     1      -4.495   1.432   0.129  0.00  0.00    -0.019 C 
ATOM     18  C   UNL     1      -4.886   1.738  -1.319  0.00  0.00    +0.007 C 
ENDBRANCH  15  17
ENDBRANCH  14  15
ENDBRANCH  11  14
ENDBRANCH  10  11
ENDBRANCH   1  10
BRANCH   3  19
ATOM     19  C   UNL     1      -6.192  -5.758  -1.500  0.00  0.00    +0.161 C 
BRANCH  19  20
ATOM     20  C   UNL     1      -6.186  -5.467  -2.979  0.00  0.00    +0.036 A 
ATOM     21  C   UNL     1      -6.287  -4.247  -3.545  0.00  0.00    +0.024 A 
ATOM     22  C   UNL     1      -6.239  -4.425  -4.941  0.00  0.00    +0.019 A 
ATOM     23  C   UNL     1      -6.110  -5.747  -5.176  0.00  0.00    +0.086 A 
ATOM     24  N   UNL     1      -6.071  -6.391  -3.975  0.00  0.00    -0.345 N 
BRANCH  24  25
ATOM     25  C   UNL     1      -5.933  -7.837  -3.786  0.00  0.00    +0.158 C 
BRANCH  25  26
ATOM     26  C   UNL     1      -7.299  -8.460  -3.658  0.00  0.00    -0.009 A 
ATOM     27  C   UNL     1      -7.833  -8.704  -2.406  0.00  0.00    +0.007 A 
ATOM     28  C   UNL     1      -9.086  -9.276  -2.288  0.00  0.00    +0.000 A 
ATOM     29  C   UNL     1      -9.806  -9.603  -3.422  0.00  0.00    +0.001 A 
ATOM     30  C   UNL     1      -9.274  -9.359  -4.674  0.00  0.00    +0.020 A 
ATOM     31  C   UNL     1      -8.022  -8.782  -4.793  0.00  0.00    +0.046 A 
ATOM     32 CL   UNL     1      -7.355  -8.469  -6.364  0.00  0.00    -0.083 Cl
ENDBRANCH  25  26
ENDBRANCH  24  25
ENDBRANCH  19  20
ENDBRANCH   3  19
TORSDOF 10
