REMARK  Name = ZINC43426695
REMARK  3 active torsions:
REMARK  status: ('A' for Active; 'I' for Inactive)
REMARK    1  A    between atoms: C_6  and  C_21
REMARK    2  A    between atoms: C_7  and  N_9
REMARK    3  A    between atoms: C_21  and  N_22
REMARK                            x       y       z     vdW  Elec       q    Type
REMARK                         _______ _______ _______ _____ _____    ______ ____
ROOT
ATOM      1  C   UNL     1       1.145   0.878  -1.224  0.00  0.00    +0.100 A 
ATOM      2  C   UNL     1       1.557   1.884  -0.454  0.00  0.00    +0.067 A 
ATOM      3  S   UNL     1       1.234   1.250   1.184  0.00  0.00    -0.058 S 
ATOM      4  C   UNL     1       0.567  -0.325   0.699  0.00  0.00    +0.179 A 
ATOM      5  N   UNL     1       0.631  -0.272  -0.667  0.00  0.00    -0.298 N 
ATOM      6  C   UNL     1       0.115  -1.498  -1.097  0.00  0.00    +0.048 A 
ATOM      7  C   UNL     1      -0.224  -2.205   0.001  0.00  0.00    +0.143 A 
ATOM      8  N   UNL     1       0.063  -1.464   1.085  0.00  0.00    -0.206 NA
ENDROOT
BRANCH   7   9
ATOM      9  N   UNL     1      -0.780  -3.493   0.010  0.00  0.00    -0.306 N 
ATOM     10  C   UNL     1      -2.235  -3.696  -0.093  0.00  0.00    +0.135 C 
ATOM     11  C   UNL     1      -2.510  -4.714  -1.204  0.00  0.00    +0.179 C 
ATOM     12  O   UNL     1      -1.715  -5.883  -0.986  0.00  0.00    -0.373 OA
ATOM     13  C   UNL     1      -0.309  -5.642  -1.018  0.00  0.00    +0.139 C 
ATOM     14  C   UNL     1       0.071  -4.693   0.116  0.00  0.00    +0.104 C 
ATOM     15  C   UNL     1      -0.213  -5.367   1.461  0.00  0.00    +0.025 C 
ATOM     16  C   UNL     1       0.583  -6.668   1.566  0.00  0.00    +0.002 C 
ATOM     17  C   UNL     1       0.160  -7.612   0.439  0.00  0.00    +0.003 C 
ATOM     18  C   UNL     1       0.461  -6.952  -0.882  0.00  0.00    +0.033 C 
ENDBRANCH   7   9
BRANCH   6  19
ATOM     19  C   UNL     1      -0.037  -1.948  -2.527  0.00  0.00    -0.028 C 
BRANCH  19  20
ATOM     20  N   UNL     1       1.231  -2.521  -2.998  0.00  0.00    +0.382 N 
ATOM     21  H   UNL     1       1.129  -2.822  -3.956  0.00  0.00    -0.090 HD
ATOM     22  H   UNL     1       1.957  -1.823  -2.940  0.00  0.00    -0.090 HD
ATOM     23  H   UNL     1       1.477  -3.311  -2.421  0.00  0.00    -0.090 HD
ENDBRANCH  19  20
ENDBRANCH   6  19
TORSDOF 3
