REMARK  Name = ZINC44465459
REMARK  12 active torsions:
REMARK  status: ('A' for Active; 'I' for Inactive)
REMARK    1  A    between atoms: C_1  and  C_2
REMARK    2  A    between atoms: C_5  and  S_8
REMARK    3  A    between atoms: S_8  and  C_9
REMARK    4  A    between atoms: C_9  and  C_10
REMARK    5  A    between atoms: C_11  and  C_24
REMARK    6  A    between atoms: C_12  and  S_16
REMARK    7  A    between atoms: N_13  and  C_15
REMARK    8  A    between atoms: S_16  and  C_17
REMARK    9  A    between atoms: C_24  and  CA_25
REMARK   10  A    between atoms: CA_25  and  C_27
REMARK   11  A    between atoms: CA_25  and  N_29
REMARK   12  A    between atoms: C_27  and  O_28
REMARK                            x       y       z     vdW  Elec       q    Type
REMARK                         _______ _______ _______ _____ _____    ______ ____
ROOT
ATOM      1  C   UNL     1       0.097  -6.482   1.870  0.00  0.00    +0.077 A 
ATOM      2  C   UNL     1      -1.026  -7.310   1.944  0.00  0.00    +0.007 A 
ATOM      3  C   UNL     1      -0.590  -8.596   2.060  0.00  0.00    +0.103 A 
ATOM      4  N   UNL     1       0.769  -8.566   2.058  0.00  0.00    -0.260 N 
ATOM      5  N   UNL     1       1.168  -7.230   1.933  0.00  0.00    -0.174 NA
ATOM      6  C   UNL     1       1.657  -9.727   2.164  0.00  0.00    +0.173 C 
ENDROOT
BRANCH   1   7
ATOM      7  C   UNL     1       0.077  -4.981   1.735  0.00  0.00    +0.132 C 
BRANCH   7   8
ATOM      8  S   UNL     1       0.062  -4.533  -0.023  0.00  0.00    -0.119 S 
BRANCH   8  13
ATOM      9  C   UNL     1      -0.018   1.503   0.010  0.00  0.00    +0.044 C 
ATOM     10  C   UNL     1       0.002  -0.004   0.002  0.00  0.00    -0.050 A 
ATOM     11  C   UNL     1       0.006  -0.687  -1.200  0.00  0.00    +0.004 A 
ATOM     12  C   UNL     1       0.024  -2.068  -1.212  0.00  0.00    +0.015 A 
ATOM     13  C   UNL     1       0.039  -2.771  -0.013  0.00  0.00    +0.008 A 
ATOM     14  C   UNL     1       0.036  -2.081   1.193  0.00  0.00    +0.015 A 
ATOM     15  C   UNL     1       0.023  -0.700   1.197  0.00  0.00    +0.004 A 
ENDBRANCH   8  13
ENDBRANCH   7   8
ENDBRANCH   1   7
BRANCH   3  16
ATOM     16  S   UNL     1      -1.601 -10.032   2.189  0.00  0.00    -0.070 S 
BRANCH  16  17
ATOM     17  C   UNL     1      -1.146 -11.002   0.790  0.00  0.00    +0.014 A 
ATOM     18  C   UNL     1      -0.173 -10.542  -0.089  0.00  0.00    +0.016 A 
ATOM     19  C   UNL     1       0.182 -11.304  -1.185  0.00  0.00    +0.016 A 
ATOM     20  C   UNL     1      -0.431 -12.524  -1.408  0.00  0.00    +0.018 A 
ATOM     21  C   UNL     1      -1.401 -12.985  -0.535  0.00  0.00    +0.016 A 
ATOM     22  C   UNL     1      -1.755 -12.230   0.566  0.00  0.00    +0.016 A 
ATOM     23 BR   UNL     1       0.058 -13.565  -2.909  0.00  0.00    -0.050 Br
ENDBRANCH  16  17
ENDBRANCH   3  16
BRANCH   2  24
ATOM     24  C   UNL     1      -2.464  -6.862   1.903  0.00  0.00    +0.026 C 
BRANCH  24  25
ATOM     25  CA  UNL     1      -2.950  -6.838   0.452  0.00  0.00    -0.045 C 
BRANCH  25  26
ATOM     26  N   UNL     1      -2.954  -8.205  -0.085  0.00  0.00    +0.382 N 
ATOM     27  H1  UNL     1      -3.571  -8.782   0.468  0.00  0.00    -0.090 HD
ATOM     28  H2  UNL     1      -3.275  -8.190  -1.041  0.00  0.00    -0.090 HD
ATOM     29  H3  UNL     1      -2.019  -8.584  -0.049  0.00  0.00    -0.090 HD
ENDBRANCH  25  26
BRANCH  25  30
ATOM     30  C   UNL     1      -4.367  -6.265   0.399  0.00  0.00    +0.140 C 
BRANCH  30  31
ATOM     31  O   UNL     1      -4.777  -6.134  -0.964  0.00  0.00    -0.397 OA
ATOM     32  H   UNL     1      -5.668  -5.776  -1.074  0.00  0.00    +0.209 HD
ENDBRANCH  30  31
ENDBRANCH  25  30
ENDBRANCH  24  25
ENDBRANCH   2  24
TORSDOF 10
