REMARK  Name = ZINC38714749
REMARK  13 active torsions:
REMARK  status: ('A' for Active; 'I' for Inactive)
REMARK    1  A    between atoms: C_1  and  C_2
REMARK    2  A    between atoms: C_2  and  N_3
REMARK    3  A    between atoms: N_3  and  C_4
REMARK    4  A    between atoms: N_3  and  C_6
REMARK    5  A    between atoms: C_4  and  C_5
REMARK    6  A    between atoms: C_6  and  C_7
REMARK    7  A    between atoms: C_7  and  C_8
REMARK    8  A    between atoms: C_8  and  N_9
REMARK    9  A    between atoms: C_10  and  C_27
REMARK   10  A    between atoms: C_18  and  C_25
REMARK   11  A    between atoms: C_30  and  C_33
REMARK   12  A    between atoms: C_33  and  C_34
REMARK   13  A    between atoms: C_33  and  C_35
REMARK                            x       y       z     vdW  Elec       q    Type
REMARK                         _______ _______ _______ _____ _____    ______ ____
ROOT
ATOM      1  N   UNL     1      -4.269  -4.657   0.101  0.00  0.00    -0.284 N 
ATOM      2  C   UNL     1      -5.235  -4.810   1.202  0.00  0.00    +0.144 C 
ATOM      3  C   UNL     1      -6.476  -5.362   0.581  0.00  0.00    +0.072 A 
ATOM      4  C   UNL     1      -7.768  -5.732   1.168  0.00  0.00    +0.199 A 
ATOM      5  O   UNL     1      -8.081  -5.464   2.315  0.00  0.00    -0.287 OA
ATOM      6  C   UNL     1      -8.659  -6.463   0.233  0.00  0.00    +0.066 A 
ATOM      7  C   UNL     1      -9.834  -7.055   0.695  0.00  0.00    +0.035 A 
ATOM      8  C   UNL     1     -10.646  -7.735  -0.187  0.00  0.00    +0.045 A 
ATOM      9  C   UNL     1     -10.293  -7.829  -1.528  0.00  0.00    -0.029 A 
ATOM     10  C   UNL     1      -9.136  -7.247  -1.994  0.00  0.00    +0.051 A 
ATOM     11  C   UNL     1      -8.299  -6.551  -1.122  0.00  0.00    +0.140 A 
ATOM     12  O   UNL     1      -7.173  -5.981  -1.609  0.00  0.00    -0.450 OA
ATOM     13  C   UNL     1      -6.243  -5.508  -0.757  0.00  0.00    +0.199 A 
ATOM     14  C   UNL     1      -4.867  -5.062  -1.038  0.00  0.00    +0.283 C 
ATOM     15  O   UNL     1      -4.346  -5.063  -2.136  0.00  0.00    -0.267 OA
ATOM     16  C   UNL     1     -11.187  -8.578  -2.482  0.00  0.00    +0.045 C 
ATOM     17 CL   UNL     1     -12.112  -8.475   0.377  0.00  0.00    -0.083 Cl
ENDROOT
BRANCH   2  18
ATOM     18  C   UNL     1      -5.519  -3.472   1.833  0.00  0.00    -0.022 A 
ATOM     19  C   UNL     1      -5.657  -2.348   1.040  0.00  0.00    +0.006 A 
ATOM     20  C   UNL     1      -5.918  -1.121   1.619  0.00  0.00    +0.004 A 
ATOM     21  C   UNL     1      -6.040  -1.016   2.992  0.00  0.00    -0.045 A 
ATOM     22  C   UNL     1      -5.903  -2.140   3.785  0.00  0.00    +0.004 A 
ATOM     23  C   UNL     1      -5.646  -3.368   3.206  0.00  0.00    +0.006 A 
BRANCH  21  24
ATOM     24  C   UNL     1      -6.323   0.323   3.623  0.00  0.00    +0.013 C 
ATOM     25  C   UNL     1      -7.642   0.253   4.397  0.00  0.00    +0.012 C 
ATOM     26  C   UNL     1      -5.188   0.684   4.583  0.00  0.00    +0.012 C 
ENDBRANCH  21  24
ENDBRANCH   2  18
BRANCH   1  27
ATOM     27  C   UNL     1      -2.900  -4.149   0.221  0.00  0.00    +0.107 C 
BRANCH  27  28
ATOM     28  C   UNL     1      -2.903  -2.630   0.036  0.00  0.00    +0.000 C 
BRANCH  28  29
ATOM     29  C   UNL     1      -1.473  -2.099   0.162  0.00  0.00    -0.077 C 
BRANCH  29  30
ATOM     30  N   UNL     1      -1.458  -0.660  -0.137  0.00  0.00    +0.379 N 
ATOM     31  H   UNL     1      -1.870  -0.501  -1.044  0.00  0.00    -0.082 HD
BRANCH  30  33
ATOM     32  C   UNL     1      -2.317   1.540   0.507  0.00  0.00    -0.017 C 
ATOM     33  C   UNL     1      -2.228   0.060   0.885  0.00  0.00    -0.082 C 
ENDBRANCH  30  33
BRANCH  30  34
ATOM     34  C   UNL     1      -0.071  -0.176  -0.138  0.00  0.00    -0.082 C 
ATOM     35  C   UNL     1       0.690  -0.810  -1.304  0.00  0.00    -0.017 C 
ENDBRANCH  30  34
ENDBRANCH  29  30
ENDBRANCH  28  29
ENDBRANCH  27  28
ENDBRANCH   1  27
TORSDOF 8
