REMARK  Name = ZINC34692446
REMARK  12 active torsions:
REMARK  status: ('A' for Active; 'I' for Inactive)
REMARK    1  A    between atoms: C_1  and  C_2
REMARK    2  A    between atoms: C_2  and  C_4
REMARK    3  A    between atoms: C_2  and  O_14
REMARK    4  A    between atoms: N_6  and  C_7
REMARK    5  A    between atoms: C_7  and  C_8
REMARK    6  A    between atoms: C_8  and  N_9
REMARK    7  A    between atoms: O_14  and  C_15
REMARK    8  A    between atoms: C_21  and  C_32
REMARK    9  A    between atoms: C_26  and  C_28
REMARK   10  A    between atoms: C_28  and  C_29
REMARK   11  A    between atoms: C_28  and  C_30
REMARK   12  A    between atoms: C_28  and  C_31
REMARK                            x       y       z     vdW  Elec       q    Type
REMARK                         _______ _______ _______ _____ _____    ______ ____
ROOT
ATOM      1  C   UNL     1      -0.090  -0.555  -2.298  0.00  0.00    +0.122 A 
ATOM      2  C   UNL     1      -1.436  -0.219  -2.275  0.00  0.00    +0.046 A 
ATOM      3  C   UNL     1      -2.193  -0.348  -3.420  0.00  0.00    +0.007 A 
ATOM      4  C   UNL     1      -1.622  -0.810  -4.599  0.00  0.00    -0.040 A 
ATOM      5  C   UNL     1      -0.284  -1.136  -4.625  0.00  0.00    -0.016 A 
ATOM      6  C   UNL     1       0.482  -1.008  -3.475  0.00  0.00    +0.051 A 
ATOM      7  C   UNL     1       0.406  -1.615  -5.878  0.00  0.00    +0.137 C 
ATOM      8  N   UNL     1      -0.595  -1.932  -6.902  0.00  0.00    -0.290 N 
ATOM      9  C   UNL     1      -1.695  -0.973  -7.092  0.00  0.00    +0.113 C 
ATOM     10  C   UNL     1      -2.517  -0.940  -5.804  0.00  0.00    +0.054 C 
ATOM     11  C   UNL     1      -0.510  -3.056  -7.641  0.00  0.00    +0.222 C 
ATOM     12  O   UNL     1       0.451  -3.787  -7.525  0.00  0.00    -0.275 OA
ENDROOT
BRANCH   7  13
ATOM     13  C   UNL     1       1.323  -0.534  -6.391  0.00  0.00    -0.022 A 
ATOM     14  C   UNL     1       2.659  -0.809  -6.612  0.00  0.00    +0.008 A 
ATOM     15  C   UNL     1       3.501   0.181  -7.083  0.00  0.00    +0.038 A 
ATOM     16  C   UNL     1       3.004   1.449  -7.333  0.00  0.00    +0.123 A 
ATOM     17  C   UNL     1       1.665   1.723  -7.111  0.00  0.00    +0.038 A 
ATOM     18  C   UNL     1       0.825   0.730  -6.645  0.00  0.00    +0.008 A 
ATOM     19  F   UNL     1       3.826   2.418  -7.793  0.00  0.00    -0.205 F 
ENDBRANCH   7  13
BRANCH  11  20
ATOM     20  C   UNL     1      -1.610  -3.406  -8.610  0.00  0.00    +0.039 C 
ATOM     21  C   UNL     1      -1.338  -4.784  -9.215  0.00  0.00    +0.020 C 
ATOM     22  C   UNL     1      -2.951  -3.428  -7.874  0.00  0.00    +0.020 C 
ATOM     23  C   UNL     1      -1.658  -2.359  -9.726  0.00  0.00    +0.020 C 
ENDBRANCH  11  20
BRANCH   1  24
ATOM     24  O   UNL     1       0.664  -0.436  -1.174  0.00  0.00    -0.480 OA
BRANCH  24  26
ATOM     25  C   UNL     1       2.358  -2.142  -0.933  0.00  0.00    +0.062 C 
ATOM     26  C   UNL     1       2.065  -0.686  -1.302  0.00  0.00    +0.255 C 
BRANCH  26  27
ATOM     27  C   UNL     1       2.825   0.230  -0.378  0.00  0.00    +0.253 C 
ATOM     28  O   UNL     1       2.225   0.955   0.386  0.00  0.00    -0.272 OA
ATOM     29  N   UNL     1       4.173   0.243  -0.402  0.00  0.00    -0.314 N 
ATOM     30  H   UNL     1       4.653  -0.337  -1.013  0.00  0.00    +0.149 HD
BRANCH  29  31
ATOM     31  C   UNL     1       4.913   1.133   0.496  0.00  0.00    +0.086 C 
BRANCH  31  32
ATOM     32  C   UNL     1       6.415   0.953   0.269  0.00  0.00    -0.060 C 
BRANCH  32  33
ATOM     33  N   UNL     1       7.157   1.846   1.169  0.00  0.00    +0.381 N 
ATOM     34  C   UNL     1       7.002   1.398   2.577  0.00  0.00    -0.079 C 
ATOM     35  C   UNL     1       8.224   2.031   3.287  0.00  0.00    -0.020 C 
ATOM     36  C   UNL     1       9.342   1.909   2.226  0.00  0.00    -0.020 C 
ATOM     37  C   UNL     1       8.605   1.773   0.880  0.00  0.00    -0.079 C 
ATOM     38  H   UNL     1       6.829   2.795   1.067  0.00  0.00    -0.082 HD
ENDBRANCH  32  33
ENDBRANCH  31  32
ENDBRANCH  29  31
ENDBRANCH  26  27
ENDBRANCH  24  26
ENDBRANCH   1  24
TORSDOF 8
