REMARK  Name = ZINC12412634
REMARK  16 active torsions:
REMARK  status: ('A' for Active; 'I' for Inactive)
REMARK    1  A    between atoms: C_1  and  C_2
REMARK    2  A    between atoms: C_2  and  O_3
REMARK    3  A    between atoms: O_3  and  C_4
REMARK    4  A    between atoms: C_4  and  C_6
REMARK    5  A    between atoms: C_7  and  C_23
REMARK    6  A    between atoms: C_12  and  C_14
REMARK    7  A    between atoms: C_18  and  N_20
REMARK    8  A    between atoms: C_23  and  N_24
REMARK    9  A    between atoms: N_24  and  C_25
REMARK   10  A    between atoms: C_25  and  C_26
REMARK   11  A    between atoms: C_25  and  C_27
REMARK   12  A    between atoms: C_25  and  C_28
REMARK   13  A    between atoms: C_28  and  C_29
REMARK   14  A    between atoms: C_29  and  C_30
REMARK   15  A    between atoms: C_29  and  C_31
REMARK   16  A    between atoms: C_29  and  C_32
REMARK                            x       y       z     vdW  Elec       q    Type
REMARK                         _______ _______ _______ _____ _____    ______ ____
ROOT
ATOM      1  C   UNL     1      -3.403  -3.684   0.301  0.00  0.00    +0.076 C 
ATOM      2  C   UNL     1      -3.506  -5.026   0.186  0.00  0.00    +0.007 C 
ATOM      3  N   UNL     1      -4.673  -5.671   0.482  0.00  0.00    -0.274 N 
ATOM      4  C   UNL     1      -5.781  -5.047   0.900  0.00  0.00    +0.304 C 
ATOM      5  O   UNL     1      -6.773  -5.707   1.140  0.00  0.00    -0.252 OA
ATOM      6  N   UNL     1      -5.833  -3.710   1.063  0.00  0.00    -0.288 N 
ATOM      7  C   UNL     1      -4.623  -2.921   0.776  0.00  0.00    +0.143 C 
ATOM      8  H   UNL     1      -4.700  -6.636   0.385  0.00  0.00    +0.156 HD
ATOM      9  H   UNL     1      -6.646  -3.278   1.367  0.00  0.00    +0.151 HD
ENDROOT
BRANCH   7  10
ATOM     10  C   UNL     1      -4.244  -2.171   2.026  0.00  0.00    -0.020 A 
ATOM     11  C   UNL     1      -4.195  -2.829   3.240  0.00  0.00    +0.006 A 
ATOM     12  C   UNL     1      -3.847  -2.141   4.387  0.00  0.00    +0.003 A 
ATOM     13  C   UNL     1      -3.547  -0.793   4.319  0.00  0.00    +0.033 A 
ATOM     14  C   UNL     1      -3.595  -0.134   3.105  0.00  0.00    +0.127 A 
ATOM     15  C   UNL     1      -3.938  -0.824   1.958  0.00  0.00    +0.038 A 
BRANCH  14  16
ATOM     16  N   UNL     1      -3.274   1.309   3.033  0.00  0.00    +0.056 N 
ATOM     17  O   UNL     1      -2.970   1.912   4.036  0.00  0.00    -0.126 OA
ATOM     18  O   UNL     1      -3.315   1.885   1.971  0.00  0.00    -0.126 OA
ENDBRANCH  14  16
ENDBRANCH   7  10
BRANCH   1  19
ATOM     19  C   UNL     1      -2.195  -3.015  -0.006  0.00  0.00    +0.339 C 
ATOM     20  O   UNL     1      -2.069  -2.446  -1.074  0.00  0.00    -0.245 OA
BRANCH  19  21
ATOM     21  O   UNL     1      -1.183  -3.007   0.886  0.00  0.00    -0.462 OA
BRANCH  21  23
ATOM     22  C   UNL     1       1.035  -2.412   1.640  0.00  0.00    +0.048 C 
ATOM     23  C   UNL     1       0.008  -2.312   0.510  0.00  0.00    +0.229 C 
ENDBRANCH  21  23
ENDBRANCH  19  21
ENDBRANCH   1  19
BRANCH   2  24
ATOM     24  C   UNL     1      -2.315  -5.824  -0.278  0.00  0.00    -0.029 C 
BRANCH  24  25
ATOM     25  N   UNL     1      -1.766  -6.586   0.851  0.00  0.00    +0.386 N 
ATOM     26  H   UNL     1      -1.481  -5.949   1.580  0.00  0.00    -0.085 HD
ATOM     27  H   UNL     1      -2.472  -7.213   1.209  0.00  0.00    -0.085 HD
BRANCH  25  28
ATOM     28  C   UNL     1      -0.605  -7.364   0.399  0.00  0.00    -0.073 C 
ATOM     29  C   UNL     1      -0.987  -8.178  -0.839  0.00  0.00    -0.010 C 
ATOM     30  C   UNL     1       0.542  -6.413   0.050  0.00  0.00    -0.010 C 
BRANCH  28  31
ATOM     31  C   UNL     1      -0.160  -8.311   1.515  0.00  0.00    -0.007 C 
BRANCH  31  32
ATOM     32  C   UNL     1      -0.179  -7.569   2.852  0.00  0.00    -0.039 C 
ATOM     33  C   UNL     1      -1.624  -7.421   3.333  0.00  0.00    +0.010 C 
ATOM     34  C   UNL     1       0.625  -8.360   3.886  0.00  0.00    +0.010 C 
ATOM     35  C   UNL     1       0.444  -6.182   2.675  0.00  0.00    +0.010 C 
ENDBRANCH  31  32
ENDBRANCH  28  31
ENDBRANCH  25  28
ENDBRANCH  24  25
ENDBRANCH   2  24
TORSDOF 10
