REMARK  Name = ZINC15103481
REMARK  17 active torsions:
REMARK  status: ('A' for Active; 'I' for Inactive)
REMARK    1  A    between atoms: C_1  and  C_2
REMARK    2  A    between atoms: C_2  and  C_3
REMARK    3  A    between atoms: C_2  and  C_4
REMARK    4  A    between atoms: C_4  and  N_5
REMARK    5  A    between atoms: C_6  and  N_33
REMARK    6  A    between atoms: C_7  and  N_14
REMARK    7  A    between atoms: N_14  and  C_15
REMARK    8  A    between atoms: C_15  and  C_16
REMARK    9  A    between atoms: C_16  and  C_17
REMARK   10  A    between atoms: C_16  and  C_18
REMARK   11  A    between atoms: C_19  and  C_21
REMARK   12  A    between atoms: C_21  and  N_67
REMARK   13  A    between atoms: C_22  and  N_67
REMARK   14  A    between atoms: C_23  and  C_24
REMARK   15  A    between atoms: C_23  and  N_67
REMARK   16  A    between atoms: C_24  and  O_25
REMARK   17  A    between atoms: O_25  and  C_26
REMARK                            x       y       z     vdW  Elec       q    Type
REMARK                         _______ _______ _______ _____ _____    ______ ____
ROOT
ATOM      1  N   UNL     1      -2.903   3.409   0.369  0.00  0.00    -0.266 N 
ATOM      2  C   UNL     1      -2.619   4.654  -0.067  0.00  0.00    +0.203 C 
ATOM      3  O   UNL     1      -1.467   4.980  -0.264  0.00  0.00    -0.277 OA
ENDROOT
BRANCH   1   6
ATOM      4  N   UNL     1      -0.138   1.128  -0.437  0.00  0.00    -0.280 N 
ATOM      5  C   UNL     1      -1.137   2.059  -0.598  0.00  0.00    +0.127 A 
ATOM      6  C   UNL     1      -1.871   2.456   0.501  0.00  0.00    +0.140 A 
ATOM      7  C   UNL     1      -1.576   1.889   1.756  0.00  0.00    +0.277 A 
ATOM      8  O   UNL     1      -2.213   2.219   2.743  0.00  0.00    -0.266 OA
ATOM      9  N   UNL     1      -0.584   0.984   1.860  0.00  0.00    -0.273 N 
ATOM     10  H   UNL     1      -0.369   0.587   2.752  0.00  0.00    +0.173 HD
ATOM     11  C   UNL     1       0.121   0.610   0.777  0.00  0.00    +0.331 A 
ATOM     12  O   UNL     1       1.009  -0.212   0.899  0.00  0.00    -0.246 OA
BRANCH   5  13
ATOM     13  N   UNL     1      -1.401   2.589  -1.838  0.00  0.00    -0.343 N 
ATOM     14  H   UNL     1      -0.824   2.378  -2.588  0.00  0.00    +0.144 HD
ATOM     15  H   UNL     1      -2.165   3.173  -1.963  0.00  0.00    +0.144 HD
ENDBRANCH   5  13
BRANCH   4  16
ATOM     16  C   UNL     1       0.650   0.698  -1.595  0.00  0.00    +0.131 C 
BRANCH  16  18
ATOM     17  C   UNL     1       0.729  -0.883  -3.528  0.00  0.00    +0.009 C 
ATOM     18  C   UNL     1      -0.023  -0.511  -2.248  0.00  0.00    +0.003 C 
ATOM     19  C   UNL     1       0.002  -1.695  -1.279  0.00  0.00    +0.009 C 
ENDBRANCH  16  18
ENDBRANCH   4  16
ENDBRANCH   1   6
BRANCH   1  20
ATOM     20  C   UNL     1      -4.282   3.047   0.705  0.00  0.00    +0.117 C 
BRANCH  20  21
ATOM     21  C   UNL     1      -5.024   2.629  -0.566  0.00  0.00    +0.001 C 
ATOM     22  C   UNL     1      -4.413   1.335  -1.109  0.00  0.00    +0.009 C 
ATOM     23  C   UNL     1      -6.501   2.399  -0.242  0.00  0.00    +0.009 C 
ENDBRANCH  20  21
ENDBRANCH   1  20
BRANCH   2  24
ATOM     24  C   UNL     1      -3.733   5.640  -0.309  0.00  0.00    +0.019 C 
BRANCH  24  26
ATOM     25  C   UNL     1      -2.443   7.515   0.519  0.00  0.00    -0.095 C 
ATOM     26  N   UNL     1      -3.143   6.951  -0.655  0.00  0.00    +0.386 N 
ATOM     27  H   UNL     1      -2.467   6.821  -1.416  0.00  0.00    -0.081 HD
BRANCH  26  28
ATOM     28  C   UNL     1      -4.202   7.878  -1.105  0.00  0.00    -0.037 C 
BRANCH  28  29
ATOM     29  C   UNL     1      -3.546   9.142  -1.666  0.00  0.00    +0.211 C 
BRANCH  29  30
ATOM     30  O   UNL     1      -2.782   8.807  -2.826  0.00  0.00    -0.492 OA
BRANCH  30  31
ATOM     31  C   UNL     1      -2.130   9.824  -3.450  0.00  0.00    +0.139 A 
ATOM     32  C   UNL     1      -2.228  11.117  -2.959  0.00  0.00    +0.047 A 
ATOM     33  C   UNL     1      -1.560  12.148  -3.591  0.00  0.00    +0.004 A 
ATOM     34  C   UNL     1      -0.803  11.893  -4.720  0.00  0.00    +0.002 A 
ATOM     35  C   UNL     1      -0.708  10.606  -5.216  0.00  0.00    +0.023 A 
ATOM     36  C   UNL     1      -1.370   9.570  -4.583  0.00  0.00    +0.083 A 
ATOM     37 CL   UNL     1      -1.251   7.954  -5.206  0.00  0.00    -0.080 Cl
ENDBRANCH  30  31
ENDBRANCH  29  30
ENDBRANCH  28  29
ENDBRANCH  26  28
ENDBRANCH  24  26
ENDBRANCH   2  24
TORSDOF 12
