REMARK  Name = ZINC64636185
REMARK  12 active torsions:
REMARK  status: ('A' for Active; 'I' for Inactive)
REMARK    1  A    between atoms: C_1  and  C_2
REMARK    2  A    between atoms: C_2  and  O_3
REMARK    3  A    between atoms: O_3  and  C_4
REMARK    4  A    between atoms: C_6  and  C_11
REMARK    5  A    between atoms: C_9  and  O_10
REMARK    6  A    between atoms: C_11  and  N_12
REMARK    7  A    between atoms: N_12  and  C_13
REMARK    8  A    between atoms: C_13  and  C_14
REMARK    9  A    between atoms: C_17  and  C_30
REMARK   10  A    between atoms: N_19  and  C_29
REMARK   11  A    between atoms: C_20  and  C_22
REMARK   12  A    between atoms: C_30  and  O_31
REMARK                            x       y       z     vdW  Elec       q    Type
REMARK                         _______ _______ _______ _____ _____    ______ ____
ROOT
ATOM      1  C   UNL     1       0.213  -6.138  -2.582  0.00  0.00    -0.077 C 
ENDROOT
BRANCH   1   2
ATOM      2  C   UNL     1       1.259  -6.427  -3.660  0.00  0.00    -0.005 C 
ATOM      3  C   UNL     1       2.409  -7.297  -3.089  0.00  0.00    +0.024 C 
ATOM      4  C   UNL     1       2.926  -8.009  -4.365  0.00  0.00    +0.083 C 
ATOM      5  N   UNL     1       1.711  -8.283  -5.162  0.00  0.00    -0.293 NA
ATOM      6  C   UNL     1       0.664  -7.316  -4.773  0.00  0.00    +0.091 C 
ATOM      7  C   UNL     1       1.996  -8.194  -6.601  0.00  0.00    +0.105 C 
BRANCH   6   8
ATOM      8  C   UNL     1      -0.543  -8.052  -4.250  0.00  0.00    +0.005 A 
ATOM      9  C   UNL     1      -0.408  -9.334  -3.752  0.00  0.00    +0.008 A 
ATOM     10  C   UNL     1      -1.515 -10.010  -3.273  0.00  0.00    +0.000 A 
ATOM     11  C   UNL     1      -2.758  -9.404  -3.292  0.00  0.00    +0.003 A 
ATOM     12  C   UNL     1      -2.894  -8.122  -3.789  0.00  0.00    +0.038 A 
ATOM     13  C   UNL     1      -1.785  -7.442  -4.264  0.00  0.00    +0.128 A 
ATOM     14  F   UNL     1      -1.917  -6.187  -4.746  0.00  0.00    -0.205 F 
ENDBRANCH   6   8
BRANCH   4  15
ATOM     15  C   UNL     1       3.630  -9.316  -3.997  0.00  0.00    +0.174 C 
BRANCH  15  16
ATOM     16  O   UNL     1       4.199  -9.898  -5.171  0.00  0.00    -0.393 OA
ATOM     17  H   UNL     1       4.663 -10.732  -5.013  0.00  0.00    +0.209 HD
ENDBRANCH  15  16
ENDBRANCH   4  15
ENDBRANCH   1   2
BRANCH   1  18
ATOM     18  N   UNL     1       0.787  -5.241  -1.571  0.00  0.00    +0.382 N 
ATOM     19  H   UNL     1       1.067  -4.376  -2.008  0.00  0.00    -0.085 HD
ATOM     20  H   UNL     1       1.592  -5.680  -1.149  0.00  0.00    -0.085 HD
BRANCH  18  21
ATOM     21  C   UNL     1      -0.217  -4.963  -0.535  0.00  0.00    -0.047 C 
BRANCH  21  24
ATOM     22  C   UNL     1       0.802  -1.825   1.306  0.00  0.00    +0.162 A 
ATOM     23  C   UNL     1       0.261  -2.673   0.353  0.00  0.00    +0.051 A 
ATOM     24  C   UNL     1       0.372  -4.043   0.502  0.00  0.00    -0.061 A 
ATOM     25  C   UNL     1       1.024  -4.570   1.602  0.00  0.00    +0.005 A 
ATOM     26  C   UNL     1       1.566  -3.730   2.557  0.00  0.00    +0.049 A 
ATOM     27  C   UNL     1       1.462  -2.356   2.410  0.00  0.00    +0.158 A 
BRANCH  27  28
ATOM     28  O   UNL     1       2.000  -1.528   3.345  0.00  0.00    -0.503 OA
ATOM     29  H   UNL     1       1.395  -1.301   4.064  0.00  0.00    +0.292 HD
ENDBRANCH  27  28
BRANCH  22  30
ATOM     30  O   UNL     1       0.693  -0.477   1.160  0.00  0.00    -0.489 OA
BRANCH  30  32
ATOM     31  C   UNL     1      -0.019   1.526   0.010  0.00  0.00    +0.048 C 
ATOM     32  C   UNL     1       0.002  -0.004   0.002  0.00  0.00    +0.226 C 
ENDBRANCH  30  32
ENDBRANCH  22  30
ENDBRANCH  21  24
ENDBRANCH  18  21
ENDBRANCH   1  18
TORSDOF 10
