REMARK  Name = ZINC14741861
REMARK  14 active torsions:
REMARK  status: ('A' for Active; 'I' for Inactive)
REMARK    1  A    between atoms: C_1  and  C_2
REMARK    2  A    between atoms: C_2  and  C_3
REMARK    3  A    between atoms: C_2  and  C_4
REMARK    4  A    between atoms: C_2  and  N_5
REMARK    5  A    between atoms: N_5  and  S_6
REMARK    6  A    between atoms: S_6  and  C_9
REMARK    7  A    between atoms: C_11  and  C_25
REMARK    8  A    between atoms: C_13  and  N_15
REMARK    9  A    between atoms: N_15  and  C_16
REMARK   10  A    between atoms: C_16  and  C_17
REMARK   11  A    between atoms: C_18  and  C_19
REMARK   12  A    between atoms: N_27  and  C_28
REMARK   13  A    between atoms: C_28  and  C_29
REMARK   14  A    between atoms: C_35  and  N_73
REMARK                            x       y       z     vdW  Elec       q    Type
REMARK                         _______ _______ _______ _____ _____    ______ ____
ROOT
ATOM      1  C   UNL     1       1.633  -3.864  -2.684  0.00  0.00    +0.108 A 
ATOM      2  C   UNL     1       1.780  -4.853  -1.732  0.00  0.00    +0.041 A 
ATOM      3  C   UNL     1       1.017  -4.815  -0.564  0.00  0.00    +0.040 A 
ATOM      4  C   UNL     1       0.108  -3.777  -0.363  0.00  0.00    +0.036 A 
ATOM      5  C   UNL     1      -0.032  -2.788  -1.325  0.00  0.00    +0.030 A 
ATOM      6  C   UNL     1       0.729  -2.838  -2.487  0.00  0.00    +0.051 A 
ENDROOT
BRANCH   3   7
ATOM      7  C   UNL     1       1.173  -5.873   0.458  0.00  0.00    +0.244 C 
ATOM      8  O   UNL     1       1.965  -6.777   0.281  0.00  0.00    -0.270 OA
ATOM      9  N   UNL     1       0.435  -5.834   1.586  0.00  0.00    -0.311 N 
ATOM     10  H   UNL     1      -0.197  -5.113   1.727  0.00  0.00    +0.149 HD
BRANCH   9  11
ATOM     11  C   UNL     1       0.589  -6.882   2.598  0.00  0.00    +0.106 C 
BRANCH  11  12
ATOM     12  C   UNL     1      -0.355  -6.604   3.768  0.00  0.00    -0.011 C 
ATOM     13  C   UNL     1      -0.111  -7.629   4.878  0.00  0.00    +0.001 C 
ATOM     14  C   UNL     1      -1.100  -7.380   6.020  0.00  0.00    -0.018 C 
ATOM     15  C   UNL     1      -2.529  -7.466   5.478  0.00  0.00    -0.079 C 
ATOM     16  C   UNL     1      -1.806  -6.712   3.291  0.00  0.00    -0.074 C 
ATOM     17  C   UNL     1      -4.111  -6.424   3.971  0.00  0.00    -0.096 C 
ATOM     18  N   UNL     1      -2.707  -6.438   4.431  0.00  0.00    +0.378 N 
ATOM     19  H   UNL     1      -2.476  -5.518   4.824  0.00  0.00    -0.082 HD
ENDBRANCH  11  12
ENDBRANCH   9  11
ENDBRANCH   3   7
BRANCH   1  20
ATOM     20  S   UNL     1       2.597  -3.915  -4.158  0.00  0.00    +0.059 S 
ATOM     21  O   UNL     1       2.946  -2.571  -4.461  0.00  0.00    -0.153 OA
ATOM     22  O   UNL     1       3.572  -4.932  -3.971  0.00  0.00    -0.153 OA
BRANCH  20  23
ATOM     23  N   UNL     1       1.602  -4.432  -5.377  0.00  0.00    -0.185 NA
ATOM     24  H   UNL     1       1.369  -3.830  -6.101  0.00  0.00    +0.149 HD
BRANCH  23  26
ATOM     25  C   UNL     1       0.291  -6.027  -4.066  0.00  0.00    +0.029 C 
ATOM     26  C   UNL     1       1.073  -5.798  -5.361  0.00  0.00    +0.032 C 
ATOM     27  C   UNL     1       0.145  -6.000  -6.560  0.00  0.00    +0.029 C 
ATOM     28  C   UNL     1       2.232  -6.794  -5.439  0.00  0.00    +0.029 C 
ENDBRANCH  23  26
ENDBRANCH  20  23
ENDBRANCH   1  20
BRANCH   5  29
ATOM     29  N   UNL     1      -0.941  -1.746  -1.129  0.00  0.00    -0.340 N 
ATOM     30  H   UNL     1      -1.039  -1.054  -1.802  0.00  0.00    +0.146 HD
BRANCH  29  31
ATOM     31  C   UNL     1      -1.747  -1.697   0.094  0.00  0.00    +0.129 C 
BRANCH  31  32
ATOM     32  C   UNL     1      -2.639  -0.483   0.059  0.00  0.00    -0.008 C 
ATOM     33  C   UNL     1      -3.950  -0.620   0.204  0.00  0.00    +0.005 C 
BRANCH  33  34
ATOM     34  C   UNL     1      -4.826   0.570   0.170  0.00  0.00    -0.025 A 
ATOM     35  C   UNL     1      -4.276   1.840  -0.009  0.00  0.00    +0.008 A 
ATOM     36  C   UNL     1      -5.099   2.946  -0.046  0.00  0.00    +0.001 A 
ATOM     37  C   UNL     1      -6.466   2.800   0.106  0.00  0.00    +0.000 A 
ATOM     38  C   UNL     1      -7.018   1.544   0.290  0.00  0.00    +0.001 A 
ATOM     39  C   UNL     1      -6.206   0.429   0.323  0.00  0.00    +0.008 A 
ENDBRANCH  33  34
ENDBRANCH  31  32
ENDBRANCH  29  31
ENDBRANCH   5  29
TORSDOF 10
