REMARK  Name = ZINC17025401
REMARK  9 active torsions:
REMARK  status: ('A' for Active; 'I' for Inactive)
REMARK    1  A    between atoms: C_1  and  C_2
REMARK    2  A    between atoms: C_2  and  C_16
REMARK    3  A    between atoms: N_7  and  C_8
REMARK    4  A    between atoms: C_16  and  C_17
REMARK    5  A    between atoms: C_17  and  C_18
REMARK    6  A    between atoms: C_18  and  O_19
REMARK    7  A    between atoms: O_19  and  C_20
REMARK    8  A    between atoms: C_25  and  C_26
REMARK    9  A    between atoms: N_28  and  C_29
REMARK                            x       y       z     vdW  Elec       q    Type
REMARK                         _______ _______ _______ _____ _____    ______ ____
ROOT
ATOM      1  C   UNL     1       3.588  -0.137  -0.682  0.00  0.00    +0.056 C 
ATOM      2  C   UNL     1       2.412   0.250   0.217  0.00  0.00    +0.112 C 
ATOM      3  N   UNL     1       2.167   1.694   0.117  0.00  0.00    -0.337 N 
ATOM      4  C   UNL     1       0.953   2.166   0.214  0.00  0.00    +0.191 C 
ATOM      5  N   UNL     1      -0.114   1.362   0.363  0.00  0.00    -0.187 NA
ATOM      6  C   UNL     1      -0.015   0.060   0.166  0.00  0.00    +0.189 C 
ATOM      7  N   UNL     1       1.199  -0.456  -0.223  0.00  0.00    -0.250 N 
ATOM      8  N   UNL     1      -1.097  -0.756   0.344  0.00  0.00    -0.331 N 
ATOM      9  N   UNL     1       0.760   3.531   0.162  0.00  0.00    -0.329 N 
ATOM     10  H   UNL     1      -1.002  -1.839   0.176  0.00  0.00    +0.145 HD
ATOM     11  H   UNL     1      -2.063  -0.331   0.654  0.00  0.00    +0.145 HD
ATOM     12  H   UNL     1      -0.255   3.947   0.242  0.00  0.00    +0.145 HD
ATOM     13  H   UNL     1       1.621   4.204   0.039  0.00  0.00    +0.145 HD
ATOM     14  H   UNL     1       3.013   2.379  -0.042  0.00  0.00    +0.164 HD
ENDROOT
BRANCH   7  15
ATOM     15  C   UNL     1       1.277  -1.611  -1.008  0.00  0.00    +0.038 A 
ATOM     16  C   UNL     1       1.148  -1.525  -2.388  0.00  0.00    +0.023 A 
ATOM     17  C   UNL     1       1.230  -2.667  -3.160  0.00  0.00    +0.002 A 
ATOM     18  C   UNL     1       1.431  -3.897  -2.560  0.00  0.00    +0.000 A 
ATOM     19  C   UNL     1       1.554  -3.986  -1.186  0.00  0.00    +0.002 A 
ATOM     20  C   UNL     1       1.478  -2.848  -0.408  0.00  0.00    +0.023 A 
ENDBRANCH   7  15
BRANCH   2  21
ATOM     21  C   UNL     1       2.728  -0.121   1.667  0.00  0.00    +0.051 C 
BRANCH  21  22
ATOM     22  C   UNL     1       3.991   0.616   2.119  0.00  0.00    +0.045 C 
BRANCH  22  23
ATOM     23  C   UNL     1       4.306   0.245   3.569  0.00  0.00    +0.229 C 
BRANCH  23  24
ATOM     24  O   UNL     1       5.485   0.933   3.991  0.00  0.00    -0.491 OA
BRANCH  24  25
ATOM     25  C   UNL     1       5.905   0.713   5.262  0.00  0.00    +0.133 A 
ATOM     26  C   UNL     1       5.196  -0.143   6.092  0.00  0.00    +0.046 A 
ATOM     27  C   UNL     1       5.628  -0.369   7.383  0.00  0.00    +0.004 A 
ATOM     28  C   UNL     1       6.763   0.262   7.864  0.00  0.00    +0.001 A 
ATOM     29  C   UNL     1       7.477   1.120   7.056  0.00  0.00    +0.017 A 
ATOM     30  C   UNL     1       7.054   1.354   5.745  0.00  0.00    +0.078 A 
BRANCH  30  31
ATOM     31  C   UNL     1       7.813   2.272   4.873  0.00  0.00    +0.248 C 
ATOM     32  O   UNL     1       7.442   2.473   3.733  0.00  0.00    -0.270 OA
ATOM     33  N   UNL     1       8.918   2.886   5.341  0.00  0.00    -0.302 N 
ATOM     34  H   UNL     1       9.253   2.704   6.373  0.00  0.00    +0.150 HD
BRANCH  33  35
ATOM     35  C   UNL     1       9.671   3.797   4.476  0.00  0.00    +0.185 C 
ATOM     36 BR   UNL     1       9.079   5.644   4.796  0.00  0.00    -0.071 Br
ENDBRANCH  33  35
ENDBRANCH  30  31
ENDBRANCH  24  25
ENDBRANCH  23  24
ENDBRANCH  22  23
ENDBRANCH  21  22
ENDBRANCH   2  21
TORSDOF 8
