REMARK  Name = ZINC37518839
REMARK  4 active torsions:
REMARK  status: ('A' for Active; 'I' for Inactive)
REMARK    1  A    between atoms: C_3  and  N_12
REMARK    2  A    between atoms: C_4  and  C_8
REMARK    3  A    between atoms: C_13  and  C_15
REMARK    4  A    between atoms: C_18  and  O_22
REMARK                            x       y       z     vdW  Elec       q    Type
REMARK                         _______ _______ _______ _____ _____    ______ ____
ROOT
ATOM      1  N   UNL     1       3.584   2.124  -0.021  0.00  0.00    -0.286 N 
ATOM      2  C   UNL     1       3.569   3.469  -0.116  0.00  0.00    +0.203 C 
ATOM      3  O   UNL     1       2.513   4.066  -0.103  0.00  0.00    -0.277 OA
ATOM      4  H   UNL     1       4.429   1.652   0.034  0.00  0.00    +0.155 HD
ENDROOT
BRANCH   1   7
ATOM      5  C   UNL     1       0.074   1.243   0.633  0.00  0.00    +0.017 A 
ATOM      6  C   UNL     1       1.261   1.950   0.617  0.00  0.00    +0.025 A 
ATOM      7  C   UNL     1       2.381   1.410  -0.003  0.00  0.00    +0.045 A 
ATOM      8  C   UNL     1       2.304   0.161  -0.604  0.00  0.00    +0.077 A 
ATOM      9  C   UNL     1       1.115  -0.542  -0.585  0.00  0.00    +0.029 A 
ATOM     10  C   UNL     1       0.001  -0.002   0.033  0.00  0.00    +0.019 A 
ATOM     11 BR   UNL     1      -1.625  -0.966   0.058  0.00  0.00    -0.050 Br
BRANCH   8  12
ATOM     12  C   UNL     1       3.517  -0.428  -1.277  0.00  0.00    +0.419 C 
ATOM     13  F   UNL     1       3.194  -1.683  -1.805  0.00  0.00    -0.166 F 
ATOM     14  F   UNL     1       3.934   0.419  -2.310  0.00  0.00    -0.166 F 
ATOM     15  F   UNL     1       4.548  -0.566  -0.343  0.00  0.00    -0.166 F 
ENDBRANCH   8  12
ENDBRANCH   1   7
BRANCH   2  16
ATOM     16  C   UNL     1       4.863   4.231  -0.238  0.00  0.00    +0.019 C 
ATOM     17  C   UNL     1       5.513   4.388   1.152  0.00  0.00    +0.023 C 
ATOM     18  C   UNL     1       6.101   5.823   1.103  0.00  0.00    +0.097 C 
ATOM     19  C   UNL     1       5.035   6.569   0.263  0.00  0.00    -0.050 C 
ATOM     20  N   UNL     1       4.601   5.585  -0.757  0.00  0.00    +0.388 N 
ATOM     21  H   UNL     1       5.118   5.728  -1.611  0.00  0.00    -0.085 HD
ATOM     22  H   UNL     1       3.614   5.695  -0.937  0.00  0.00    -0.085 HD
BRANCH  18  23
ATOM     23  O   UNL     1       6.201   6.380   2.415  0.00  0.00    -0.394 OA
ATOM     24  H   UNL     1       6.563   7.276   2.435  0.00  0.00    +0.210 HD
ENDBRANCH  18  23
ENDBRANCH   2  16
TORSDOF 4
