REMARK  Name = ZINC01292750
REMARK  2 active torsions:
REMARK  status: ('A' for Active; 'I' for Inactive)
REMARK    1  A    between atoms: C_1  and  N_2
REMARK    2  A    between atoms: N_2  and  C_14
REMARK                            x       y       z     vdW  Elec       q    Type
REMARK                         _______ _______ _______ _____ _____    ______ ____
ROOT
ATOM      1  C   UNL     1       1.046   2.993  -2.121  0.00  0.00    +0.131 C 
ATOM      2  N   UNL     1       0.083   1.900  -2.314  0.00  0.00    -0.313 N 
ATOM      3  C   UNL     1      -0.632   2.072  -3.480  0.00  0.00    +0.132 A 
ATOM      4  C   UNL     1      -0.529   1.138  -4.540  0.00  0.00    +0.041 A 
ATOM      5  C   UNL     1       0.292   0.008  -4.460  0.00  0.00    +0.028 A 
ATOM      6  C   UNL     1       0.351  -0.857  -5.513  0.00  0.00    +0.019 A 
ATOM      7  C   UNL     1      -0.395  -0.629  -6.667  0.00  0.00    +0.017 A 
ATOM      8  C   UNL     1      -1.212   0.457  -6.773  0.00  0.00    +0.029 A 
ATOM      9  C   UNL     1      -1.292   1.368  -5.711  0.00  0.00    +0.076 A 
ATOM     10  N   UNL     1      -2.068   2.461  -5.769  0.00  0.00    -0.235 NA
ATOM     11  C   UNL     1      -2.121   3.294  -4.758  0.00  0.00    +0.223 A 
ATOM     12  N   UNL     1      -1.430   3.118  -3.642  0.00  0.00    -0.220 NA
ATOM     13 BR   UNL     1       1.460  -2.385  -5.406  0.00  0.00    -0.050 Br
ENDROOT
BRANCH   2  14
ATOM     14  C   UNL     1      -0.816   1.781  -1.158  0.00  0.00    +0.097 C 
ATOM     15  C   UNL     1       0.015   1.528   0.111  0.00  0.00    +0.046 C 
ATOM     16  C   UNL     1      -0.956   1.097   1.247  0.00  0.00    +0.168 C 
ATOM     17  S   UNL     1      -2.094  -0.020   0.314  0.00  0.00    -0.029 S 
ATOM     18  O   UNL     1      -3.434   0.268   0.686  0.00  0.00    -0.174 OA
ATOM     19  O   UNL     1      -1.613  -1.355   0.406  0.00  0.00    -0.174 OA
ATOM     20  C   UNL     1      -1.797   0.607  -1.389  0.00  0.00    +0.188 C 
ENDBRANCH   2  14
TORSDOF 1
