REMARK  Name = ZINC04177838
REMARK  9 active torsions:
REMARK  status: ('A' for Active; 'I' for Inactive)
REMARK    1  A    between atoms: C_1  and  C_2
REMARK    2  A    between atoms: N_7  and  S_9
REMARK    3  A    between atoms: S_9  and  C_12
REMARK    4  A    between atoms: C_15  and  C_18
REMARK    5  A    between atoms: N_20  and  C_21
REMARK    6  A    between atoms: C_22  and  C_32
REMARK    7  A    between atoms: C_29  and  C_30
REMARK    8  A    between atoms: C_29  and  C_31
REMARK    9  A    between atoms: C_29  and  N_66
REMARK                            x       y       z     vdW  Elec       q    Type
REMARK                         _______ _______ _______ _____ _____    ______ ____
ROOT
ATOM      1  C   UNL     1      -6.758  -1.307  -0.894  0.00  0.00    +0.249 C 
ATOM      2  O   UNL     1      -7.727  -0.689  -1.290  0.00  0.00    -0.270 OA
ATOM      3  N   UNL     1      -6.925  -2.403  -0.128  0.00  0.00    -0.275 N 
ATOM      4  H   UNL     1      -6.151  -2.897   0.187  0.00  0.00    +0.156 HD
ENDROOT
BRANCH   3   5
ATOM      5  C   UNL     1      -8.200  -2.825   0.209  0.00  0.00    +0.085 A 
ATOM      6  C   UNL     1      -8.571  -3.922   0.977  0.00  0.00    +0.068 A 
ATOM      7  C   UNL     1      -9.990  -4.142   1.187  0.00  0.00    -0.027 A 
ATOM      8  C   UNL     1     -10.808  -3.244   0.591  0.00  0.00    -0.021 A 
ATOM      9  S   UNL     1      -9.720  -2.117  -0.230  0.00  0.00    -0.079 S 
ATOM     10  C   UNL     1     -12.304  -3.239   0.637  0.00  0.00    -0.035 C 
ATOM     11  C   UNL     1     -12.028  -4.934   2.345  0.00  0.00    -0.073 C 
ATOM     12  C   UNL     1     -10.577  -5.287   2.004  0.00  0.00    +0.018 C 
ATOM     13  N   UNL     1     -12.748  -4.573   1.107  0.00  0.00    +0.384 N 
ATOM     14  H   UNL     1     -12.538  -5.270   0.383  0.00  0.00    -0.081 HD
BRANCH   6  15
ATOM     15  C   UNL     1      -7.568  -4.821   1.556  0.00  0.00    +0.244 C 
ATOM     16  O   UNL     1      -7.119  -4.598   2.664  0.00  0.00    -0.270 OA
ATOM     17  N   UNL     1      -7.143  -5.894   0.860  0.00  0.00    -0.325 N 
ATOM     18  H   UNL     1      -7.501  -6.072  -0.024  0.00  0.00    +0.145 HD
ATOM     19  H   UNL     1      -6.479  -6.489   1.243  0.00  0.00    +0.145 HD
ENDBRANCH   6  15
BRANCH  13  20
ATOM     20  C   UNL     1     -14.206  -4.562   1.355  0.00  0.00    -0.074 C 
ATOM     21  C   UNL     1     -14.560  -3.521   2.418  0.00  0.00    -0.014 C 
ATOM     22  C   UNL     1     -14.930  -4.226   0.050  0.00  0.00    -0.014 C 
ENDBRANCH  13  20
ENDBRANCH   3   5
BRANCH   1  26
ATOM     23  C   UNL     1      -2.847  -0.013  -1.928  0.00  0.00    +0.106 A 
ATOM     24  C   UNL     1      -3.015  -1.141  -1.146  0.00  0.00    +0.029 A 
ATOM     25  C   UNL     1      -4.282  -1.564  -0.802  0.00  0.00    +0.015 A 
ATOM     26  C   UNL     1      -5.397  -0.857  -1.254  0.00  0.00    +0.037 A 
ATOM     27  C   UNL     1      -5.221   0.278  -2.048  0.00  0.00    +0.015 A 
ATOM     28  C   UNL     1      -3.948   0.693  -2.380  0.00  0.00    +0.029 A 
BRANCH  23  29
ATOM     29  S   UNL     1      -1.225   0.524  -2.357  0.00  0.00    +0.061 S 
ATOM     30  O   UNL     1      -1.351   1.284  -3.552  0.00  0.00    -0.153 OA
ATOM     31  O   UNL     1      -0.382  -0.616  -2.266  0.00  0.00    -0.153 OA
BRANCH  29  37
ATOM     32  C   UNL     1      -1.879   5.010  -0.075  0.00  0.00    +0.009 C 
ATOM     33  C   UNL     1      -1.712   3.490  -0.028  0.00  0.00    +0.002 C 
ATOM     34  C   UNL     1      -0.878   3.105   1.196  0.00  0.00    +0.006 C 
ATOM     35  C   UNL     1      -0.736   1.583   1.264  0.00  0.00    +0.017 C 
ATOM     36  C   UNL     1      -0.013   1.086   0.008  0.00  0.00    +0.109 C 
ATOM     37  N   UNL     1      -0.729   1.575  -1.178  0.00  0.00    -0.176 NA
ATOM     38  C   UNL     1      -0.997   3.015  -1.297  0.00  0.00    +0.112 C 
ENDBRANCH  29  37
ENDBRANCH  23  29
ENDBRANCH   1  26
TORSDOF 6
