REMARK  Name = ZINC64538266
REMARK  7 active torsions:
REMARK  status: ('A' for Active; 'I' for Inactive)
REMARK    1  A    between atoms: C_1  and  C_2
REMARK    2  A    between atoms: C_2  and  C_4
REMARK    3  A    between atoms: C_2  and  N_18
REMARK    4  A    between atoms: N_6  and  C_7
REMARK    5  A    between atoms: C_7  and  C_8
REMARK    6  A    between atoms: C_8  and  C_9
REMARK    7  A    between atoms: C_26  and  C_30
REMARK                            x       y       z     vdW  Elec       q    Type
REMARK                         _______ _______ _______ _____ _____    ______ ____
ROOT
ATOM      1  C   UNL     1       0.047   1.525  -0.029  0.00  0.00    +0.038 C 
ATOM      2  C   UNL     1       0.002  -0.004   0.002  0.00  0.00    +0.164 C 
ENDROOT
BRANCH   2   3
ATOM      3  N   UNL     1       0.711  -0.489   1.189  0.00  0.00    -0.256 N 
ATOM      4  C   UNL     1       1.798  -1.358   1.039  0.00  0.00    +0.058 A 
ATOM      5  C   UNL     1       2.035  -1.995  -0.168  0.00  0.00    +0.025 A 
ATOM      6  C   UNL     1       3.118  -2.846  -0.296  0.00  0.00    +0.002 A 
ATOM      7  C   UNL     1       3.966  -3.065   0.774  0.00  0.00    +0.002 A 
ATOM      8  C   UNL     1       3.735  -2.435   1.984  0.00  0.00    +0.025 A 
ATOM      9  C   UNL     1       2.653  -1.584   2.120  0.00  0.00    +0.050 A 
ATOM     10  N   UNL     1       2.386  -0.940   3.336  0.00  0.00    -0.325 N 
ATOM     11  C   UNL     1       0.986  -0.620   3.652  0.00  0.00    +0.262 C 
ATOM     12  C   UNL     1       0.312  -0.091   2.412  0.00  0.00    +0.250 C 
ATOM     13  O   UNL     1      -0.601   0.700   2.517  0.00  0.00    -0.273 OA
ATOM     14  H   UNL     1       3.102  -0.713   3.950  0.00  0.00    +0.147 HD
BRANCH  11  15
ATOM     15  C   UNL     1       0.268  -1.883   4.133  0.00  0.00    +0.416 C 
ATOM     16  F   UNL     1       0.904  -2.373   5.279  0.00  0.00    -0.168 F 
ATOM     17  F   UNL     1      -1.063  -1.577   4.434  0.00  0.00    -0.168 F 
ATOM     18  F   UNL     1       0.308  -2.854   3.127  0.00  0.00    -0.168 F 
ENDBRANCH  11  15
ENDBRANCH   2   3
BRANCH   2  19
ATOM     19  C   UNL     1      -1.432  -0.464   0.051  0.00  0.00    +0.234 C 
ATOM     20  O   UNL     1      -1.824  -1.131   0.985  0.00  0.00    -0.274 OA
ATOM     21  N   UNL     1      -2.280  -0.133  -0.944  0.00  0.00    -0.313 N 
ATOM     22  H   UNL     1      -1.966   0.401  -1.691  0.00  0.00    +0.149 HD
BRANCH  21  23
ATOM     23  C   UNL     1      -3.674  -0.580  -0.897  0.00  0.00    +0.108 C 
BRANCH  23  24
ATOM     24  C   UNL     1      -4.414  -0.073  -2.136  0.00  0.00    +0.052 C 
BRANCH  24  25
ATOM     25  C   UNL     1      -5.849  -0.532  -2.088  0.00  0.00    -0.040 C 
ATOM     26  C   UNL     1      -6.910   0.164  -1.620  0.00  0.00    -0.001 A 
ATOM     27  C   UNL     1      -7.042   1.505  -1.038  0.00  0.00    +0.010 A 
ATOM     28  C   UNL     1      -8.264   1.936  -0.653  0.00  0.00    +0.001 A 
ATOM     29  C   UNL     1      -9.406   1.136  -0.796  0.00  0.00    +0.002 A 
ATOM     30  C   UNL     1      -9.365  -0.107  -1.322  0.00  0.00    +0.026 A 
ATOM     31  C   UNL     1      -8.131  -0.661  -1.760  0.00  0.00    +0.043 A 
ATOM     32  N   UNL     1      -7.837  -1.822  -2.294  0.00  0.00    -0.380 N 
ATOM     33  C   UNL     1      -6.394  -1.862  -2.558  0.00  0.00    +0.144 C 
ATOM     34  H   UNL     1      -8.467  -2.533  -2.486  0.00  0.00    +0.160 HD
ENDBRANCH  24  25
ENDBRANCH  23  24
ENDBRANCH  21  23
ENDBRANCH   2  19
TORSDOF 6
