REMARK  Name = ZINC37020148
REMARK  6 active torsions:
REMARK  status: ('A' for Active; 'I' for Inactive)
REMARK    1  A    between atoms: C_1  and  C_2
REMARK    2  A    between atoms: C_2  and  O_3
REMARK    3  A    between atoms: O_3  and  C_4
REMARK    4  A    between atoms: C_5  and  N_12
REMARK    5  A    between atoms: C_13  and  C_15
REMARK    6  A    between atoms: C_18  and  O_22
REMARK                            x       y       z     vdW  Elec       q    Type
REMARK                         _______ _______ _______ _____ _____    ______ ____
ROOT
ATOM      1  N   UNL     1      -1.288  -1.862   2.527  0.00  0.00    -0.284 N 
ATOM      2  C   UNL     1      -2.289  -2.560   3.098  0.00  0.00    +0.203 C 
ATOM      3  O   UNL     1      -2.193  -3.763   3.228  0.00  0.00    -0.277 OA
ATOM      4  H   UNL     1      -1.336  -0.895   2.481  0.00  0.00    +0.155 HD
ENDROOT
BRANCH   1   6
ATOM      5  C   UNL     1       0.457  -2.046   0.859  0.00  0.00    +0.156 A 
ATOM      6  C   UNL     1      -0.178  -2.534   1.998  0.00  0.00    +0.078 A 
ATOM      7  C   UNL     1       0.292  -3.688   2.609  0.00  0.00    +0.047 A 
ATOM      8  C   UNL     1       1.388  -4.350   2.086  0.00  0.00    +0.044 A 
ATOM      9  C   UNL     1       2.019  -3.864   0.955  0.00  0.00    +0.039 A 
ATOM     10  C   UNL     1       1.552  -2.717   0.338  0.00  0.00    +0.063 A 
ATOM     11 BR   UNL     1       2.412  -2.061  -1.213  0.00  0.00    -0.046 Br
ATOM     12 CL   UNL     1       1.974  -5.794   2.851  0.00  0.00    -0.083 Cl
BRANCH   5  13
ATOM     13  O   UNL     1       0.001  -0.915   0.257  0.00  0.00    -0.489 OA
BRANCH  13  15
ATOM     14  C   UNL     1      -1.380   0.295  -1.315  0.00  0.00    +0.048 C 
ATOM     15  C   UNL     1      -0.993  -1.077  -0.758  0.00  0.00    +0.226 C 
ENDBRANCH  13  15
ENDBRANCH   5  13
ENDBRANCH   1   6
BRANCH   2  16
ATOM     16  C   UNL     1      -3.528  -1.847   3.576  0.00  0.00    +0.019 C 
ATOM     17  C   UNL     1      -4.493  -1.596   2.397  0.00  0.00    +0.023 C 
ATOM     18  C   UNL     1      -5.905  -1.802   2.984  0.00  0.00    +0.097 C 
ATOM     19  C   UNL     1      -5.674  -2.159   4.468  0.00  0.00    -0.050 C 
ATOM     20  N   UNL     1      -4.293  -2.710   4.513  0.00  0.00    +0.388 N 
ATOM     21  H   UNL     1      -4.286  -3.668   4.197  0.00  0.00    -0.085 HD
ATOM     22  H   UNL     1      -3.914  -2.641   5.445  0.00  0.00    -0.085 HD
BRANCH  18  23
ATOM     23  O   UNL     1      -6.668  -0.598   2.875  0.00  0.00    -0.394 OA
ATOM     24  H   UNL     1      -7.565  -0.668   3.228  0.00  0.00    +0.210 HD
ENDBRANCH  18  23
ENDBRANCH   2  16
TORSDOF 5
