REMARK  Name = ZINC63478459
REMARK  9 active torsions:
REMARK  status: ('A' for Active; 'I' for Inactive)
REMARK    1  A    between atoms: C_1  and  O_2
REMARK    2  A    between atoms: O_2  and  C_3
REMARK    3  A    between atoms: C_7  and  C_12
REMARK    4  A    between atoms: C_12  and  C_13
REMARK    5  A    between atoms: C_13  and  N_14
REMARK    6  A    between atoms: C_15  and  C_17
REMARK    7  A    between atoms: C_17  and  S_18
REMARK    8  A    between atoms: S_18  and  C_19
REMARK    9  A    between atoms: N_24  and  C_25
REMARK                            x       y       z     vdW  Elec       q    Type
REMARK                         _______ _______ _______ _____ _____    ______ ____
ROOT
ATOM      1  N   UNL     1       5.313  -1.753  -6.427  0.00  0.00    -0.314 N 
ATOM      2  C   UNL     1       6.657  -1.657  -6.441  0.00  0.00    +0.223 C 
ATOM      3  O   UNL     1       7.293  -1.908  -5.439  0.00  0.00    -0.275 OA
ATOM      4  H   UNL     1       4.804  -1.552  -7.228  0.00  0.00    +0.149 HD
ENDROOT
BRANCH   1   5
ATOM      5  C   UNL     1       4.620  -2.161  -5.202  0.00  0.00    +0.108 C 
BRANCH   5   6
ATOM      6  C   UNL     1       3.112  -2.190  -5.455  0.00  0.00    +0.052 C 
BRANCH   6  11
ATOM      7  C   UNL     1       0.605  -0.606  -1.053  0.00  0.00    +0.122 A 
ATOM      8  C   UNL     1       1.171   0.200  -2.059  0.00  0.00    +0.046 A 
ATOM      9  C   UNL     1       1.785  -0.338  -3.135  0.00  0.00    +0.013 A 
ATOM     10  C   UNL     1       1.862  -1.799  -3.257  0.00  0.00    -0.001 A 
ATOM     11  C   UNL     1       2.399  -2.610  -4.195  0.00  0.00    -0.040 C 
ATOM     12  C   UNL     1       2.142  -4.025  -3.725  0.00  0.00    +0.144 C 
ATOM     13  N   UNL     1       1.419  -3.902  -2.454  0.00  0.00    -0.380 N 
ATOM     14  C   UNL     1       1.260  -2.626  -2.186  0.00  0.00    +0.046 A 
ATOM     15  C   UNL     1       0.643  -1.962  -1.097  0.00  0.00    +0.071 A 
ATOM     16  H   UNL     1       1.112  -4.639  -1.904  0.00  0.00    +0.160 HD
BRANCH   7  18
ATOM     17  C   UNL     1      -0.017   1.425   0.010  0.00  0.00    +0.277 C 
ATOM     18  O   UNL     1       0.002  -0.004   0.002  0.00  0.00    -0.495 OA
ENDBRANCH   7  18
ENDBRANCH   6  11
ENDBRANCH   5   6
ENDBRANCH   1   5
BRANCH   2  19
ATOM     19  C   UNL     1       7.369  -1.237  -7.701  0.00  0.00    +0.167 C 
BRANCH  19  20
ATOM     20  S   UNL     1       9.158  -1.202  -7.401  0.00  0.00    -0.114 S 
BRANCH  20  21
ATOM     21  C   UNL     1       9.860  -0.685  -8.992  0.00  0.00    +0.203 C 
ATOM     22  N   UNL     1       9.446  -1.625 -10.063  0.00  0.00    -0.320 NA
ATOM     23  N   UNL     1       8.297  -0.934 -10.674  0.00  0.00    +0.411 N 
ATOM     24  N   UNL     1       8.687   0.480 -10.594  0.00  0.00    -0.265 NA
ATOM     25  N   UNL     1       9.322   0.629  -9.382  0.00  0.00    -0.254 N 
ATOM     26  H   UNL     1      10.188  -1.756 -10.735  0.00  0.00    +0.106 HD
ATOM     27  H   UNL     1       8.178  -1.218 -11.635  0.00  0.00    -0.031 HD
ATOM     28  H   UNL     1       9.300   0.730 -11.355  0.00  0.00    +0.125 HD
ATOM     29  H   UNL     1       7.456  -1.103 -10.143  0.00  0.00    -0.031 HD
BRANCH  25  30
ATOM     30  C   UNL     1       9.436   1.814  -8.651  0.00  0.00    +0.045 A 
ATOM     31  C   UNL     1      10.112   1.821  -7.437  0.00  0.00    +0.025 A 
ATOM     32  C   UNL     1      10.223   2.994  -6.717  0.00  0.00    +0.017 A 
ATOM     33  C   UNL     1       9.661   4.161  -7.202  0.00  0.00    +0.018 A 
ATOM     34  C   UNL     1       8.987   4.157  -8.410  0.00  0.00    +0.017 A 
ATOM     35  C   UNL     1       8.878   2.989  -9.138  0.00  0.00    +0.025 A 
ATOM     36 BR   UNL     1       9.813   5.765  -6.212  0.00  0.00    -0.050 Br
ENDBRANCH  25  30
ENDBRANCH  20  21
ENDBRANCH  19  20
ENDBRANCH   2  19
TORSDOF 8
