REMARK  Name = ZINC04087213
REMARK  5 active torsions:
REMARK  status: ('A' for Active; 'I' for Inactive)
REMARK    1  A    between atoms: C_1  and  N_2
REMARK    2  A    between atoms: C_8  and  N_13
REMARK    3  A    between atoms: C_9  and  C_10
REMARK    4  A    between atoms: C_14  and  C_16
REMARK    5  A    between atoms: C_19  and  N_21
REMARK                            x       y       z     vdW  Elec       q    Type
REMARK                         _______ _______ _______ _____ _____    ______ ____
ROOT
ATOM      1  C   UNL     1      -0.018   1.465   0.010  0.00  0.00    -0.096 C 
ATOM      2  N   UNL     1       0.002  -0.004   0.002  0.00  0.00    +0.381 N 
ATOM      3  C   UNL     1      -1.376  -0.512   0.008  0.00  0.00    -0.074 C 
ATOM      4  C   UNL     1      -1.389  -2.010  -0.313  0.00  0.00    +0.018 C 
ATOM      5  C   UNL     1      -0.409  -2.698   0.626  0.00  0.00    -0.027 A 
ATOM      6  C   UNL     1       0.522  -1.973   1.288  0.00  0.00    -0.021 A 
ATOM      7  S   UNL     1       1.416  -3.159   2.244  0.00  0.00    -0.079 S 
ATOM      8  C   UNL     1       0.605  -4.560   1.794  0.00  0.00    +0.085 A 
ATOM      9  C   UNL     1      -0.363  -4.120   0.903  0.00  0.00    +0.068 A 
ATOM     10  C   UNL     1       0.715  -0.492   1.197  0.00  0.00    -0.036 C 
ATOM     11  H   UNL     1       0.475  -0.329  -0.828  0.00  0.00    -0.082 HD
ENDROOT
BRANCH   9  12
ATOM     12  C   UNL     1      -1.299  -5.053   0.269  0.00  0.00    +0.244 C 
ATOM     13  O   UNL     1      -1.013  -5.574  -0.794  0.00  0.00    -0.270 OA
ATOM     14  N   UNL     1      -2.477  -5.334   0.861  0.00  0.00    -0.325 N 
ATOM     15  H   UNL     1      -2.705  -4.919   1.708  0.00  0.00    +0.145 HD
ATOM     16  H   UNL     1      -3.096  -5.951   0.441  0.00  0.00    +0.145 HD
ENDBRANCH   9  12
BRANCH   8  17
ATOM     17  N   UNL     1       0.848  -5.857   2.216  0.00  0.00    -0.273 N 
ATOM     18  C   UNL     1       1.840  -6.105   3.094  0.00  0.00    +0.284 C 
ATOM     19  O   UNL     1       2.522  -5.190   3.517  0.00  0.00    -0.266 OA
ATOM     20  H   UNL     1       0.305  -6.586   1.879  0.00  0.00    +0.156 HD
BRANCH  18  21
ATOM     21  C   UNL     1       2.097  -7.478   3.540  0.00  0.00    +0.192 A 
ATOM     22  C   UNL     1       3.061  -7.867   4.426  0.00  0.00    +0.057 A 
ATOM     23  C   UNL     1       2.948  -9.259   4.560  0.00  0.00    +0.076 A 
ATOM     24  C   UNL     1       1.933  -9.655   3.760  0.00  0.00    +0.280 A 
ATOM     25  O   UNL     1       1.419  -8.578   3.152  0.00  0.00    -0.429 OA
BRANCH  24  26
ATOM     26  N   UNL     1       1.463 -11.048   3.589  0.00  0.00    +0.093 N 
ATOM     27  O   UNL     1       2.000 -11.946   4.195  0.00  0.00    -0.123 OA
ATOM     28  O   UNL     1       0.541 -11.288   2.844  0.00  0.00    -0.123 OA
ENDBRANCH  24  26
ENDBRANCH  18  21
ENDBRANCH   8  17
TORSDOF 4
