REMARK  Name = ZINC02128528
REMARK  9 active torsions:
REMARK  status: ('A' for Active; 'I' for Inactive)
REMARK    1  A    between atoms: C_1  and  O_2
REMARK    2  A    between atoms: O_2  and  C_3
REMARK    3  A    between atoms: C_13  and  C_17
REMARK    4  A    between atoms: C_18  and  O_36
REMARK    5  A    between atoms: N_23  and  C_26
REMARK    6  A    between atoms: C_28  and  O_34
REMARK    7  A    between atoms: C_31  and  O_32
REMARK    8  A    between atoms: O_32  and  C_33
REMARK    9  A    between atoms: O_34  and  C_35
REMARK                            x       y       z     vdW  Elec       q    Type
REMARK                         _______ _______ _______ _____ _____    ______ ____
ROOT
ATOM      1  C   UNL     1       1.345   2.886  -0.001  0.00  0.00    +0.069 A 
ATOM      2  C   UNL     1       1.215   1.529  -0.001  0.00  0.00    +0.201 A 
ATOM      3  N   UNL     1       2.339   0.743  -0.016  0.00  0.00    -0.278 N 
ATOM      4  H   UNL     1       2.251  -0.224  -0.020  0.00  0.00    +0.173 HD
ATOM      5  C   UNL     1       3.562   1.303  -0.026  0.00  0.00    +0.337 A 
ATOM      6  O   UNL     1       4.547   0.590  -0.040  0.00  0.00    -0.246 OA
ATOM      7  N   UNL     1       3.712   2.640  -0.020  0.00  0.00    -0.225 N 
ATOM      8  C   UNL     1       2.633   3.449  -0.005  0.00  0.00    +0.267 A 
ATOM      9  O   UNL     1       2.774   4.659   0.001  0.00  0.00    -0.267 OA
ENDROOT
BRANCH   1  20
ATOM     10  C   UNL     1      -0.229   7.525   4.748  0.00  0.00    +0.121 A 
ATOM     11  C   UNL     1       0.117   6.384   5.462  0.00  0.00    +0.047 A 
ATOM     12  C   UNL     1       0.334   5.166   4.844  0.00  0.00    +0.030 A 
ATOM     13  C   UNL     1       0.191   5.121   3.459  0.00  0.00    +0.047 A 
ATOM     14  C   UNL     1      -0.163   6.284   2.727  0.00  0.00    +0.006 A 
ATOM     15  C   UNL     1      -0.378   7.508   3.369  0.00  0.00    +0.056 A 
ATOM     16  C   UNL     1      -0.223   5.878   1.341  0.00  0.00    -0.022 A 
ATOM     17  C   UNL     1       0.082   4.561   1.295  0.00  0.00    +0.011 A 
ATOM     18  N   UNL     1       0.331   4.100   2.559  0.00  0.00    -0.359 N 
ATOM     19  H   UNL     1       0.569   3.187   2.783  0.00  0.00    +0.166 HD
ATOM     20  C   UNL     1       0.125   3.770   0.009  0.00  0.00    +0.018 C 
ATOM     21  C   UNL     1      -0.870   5.729  -1.030  0.00  0.00    -0.076 C 
ATOM     22  C   UNL     1      -0.556   6.697   0.119  0.00  0.00    +0.018 C 
ATOM     23  N   UNL     1       0.196   4.711  -1.130  0.00  0.00    +0.388 N 
ATOM     24  H   UNL     1       0.083   4.189  -2.007  0.00  0.00    -0.084 HD
ATOM     25  H   UNL     1       1.111   5.178  -1.126  0.00  0.00    -0.084 HD
BRANCH  10  27
ATOM     26  C   UNL     1      -0.261   8.658   6.839  0.00  0.00    +0.277 C 
ATOM     27  O   UNL     1      -0.427   8.691   5.420  0.00  0.00    -0.495 OA
ENDBRANCH  10  27
ENDBRANCH   1  20
BRANCH   7  28
ATOM     28  C   UNL     1       4.999   3.197  -0.030  0.00  0.00    +0.099 A 
ATOM     29  C   UNL     1       5.627   3.474  -1.235  0.00  0.00    +0.075 A 
ATOM     30  C   UNL     1       6.897   4.029  -1.242  0.00  0.00    +0.122 A 
ATOM     31  C   UNL     1       7.544   4.298  -0.044  0.00  0.00    +0.049 A 
ATOM     32  C   UNL     1       6.923   4.017   1.158  0.00  0.00    +0.051 A 
ATOM     33  C   UNL     1       5.651   3.467   1.170  0.00  0.00    +0.144 A 
BRANCH  33  34
ATOM     34  O   UNL     1       5.040   3.192   2.354  0.00  0.00    -0.493 OA
ATOM     35  C   UNL     1       5.768   3.495   3.546  0.00  0.00    +0.277 C 
ENDBRANCH  33  34
BRANCH  30  36
ATOM     36  O   UNL     1       7.511   4.306  -2.423  0.00  0.00    -0.495 OA
ATOM     37  C   UNL     1       8.822   4.872  -2.356  0.00  0.00    +0.277 C 
ENDBRANCH  30  36
ENDBRANCH   7  28
BRANCH   2  38
ATOM     38  O   UNL     1      -0.011   0.963   0.007  0.00  0.00    -0.493 OA
ATOM     39  H   UNL     1       0.002  -0.004   0.002  0.00  0.00    +0.294 HD
ENDBRANCH   2  38
TORSDOF 6
