REMARK  Name = ZINC12724741
REMARK  13 active torsions:
REMARK  status: ('A' for Active; 'I' for Inactive)
REMARK    1  A    between atoms: C_1  and  C_2
REMARK    2  A    between atoms: C_2  and  C_4
REMARK    3  A    between atoms: C_2  and  S_13
REMARK    4  A    between atoms: N_9  and  C_10
REMARK    5  A    between atoms: S_13  and  C_14
REMARK    6  A    between atoms: C_17  and  C_20
REMARK    7  A    between atoms: N_18  and  N_19
REMARK    8  A    between atoms: C_20  and  O_21
REMARK    9  A    between atoms: O_21  and  C_22
REMARK   10  A    between atoms: C_25  and  C_28
REMARK   11  A    between atoms: C_28  and  C_29
REMARK   12  A    between atoms: C_28  and  C_30
REMARK   13  A    between atoms: C_28  and  C_31
REMARK                            x       y       z     vdW  Elec       q    Type
REMARK                         _______ _______ _______ _____ _____    ______ ____
ROOT
ATOM      1  C   UNL     1       3.760  -6.491  -0.096  0.00  0.00    +0.209 A 
ATOM      2  N   UNL     1       2.606  -7.101   0.051  0.00  0.00    -0.121 NA
ATOM      3  N   UNL     1       2.762  -8.369  -0.090  0.00  0.00    -0.128 NA
ATOM      4  C   UNL     1       4.014  -8.642  -0.325  0.00  0.00    +0.189 A 
ATOM      5  N   UNL     1       4.695  -7.456  -0.337  0.00  0.00    -0.225 N 
ENDROOT
BRANCH   5   6
ATOM      6  N   UNL     1       6.032  -7.275  -0.546  0.00  0.00    -0.295 N 
ATOM      7  H   UNL     1       6.542  -7.307   0.324  0.00  0.00    +0.163 HD
ATOM      8  H   UNL     1       6.391  -7.954  -1.201  0.00  0.00    +0.163 HD
ENDBRANCH   5   6
BRANCH   1   9
ATOM      9  S   UNL     1       4.048  -4.756   0.006  0.00  0.00    -0.072 S 
BRANCH   9  11
ATOM     10  C   UNL     1       1.906  -4.701   1.701  0.00  0.00    +0.029 C 
ATOM     11  C   UNL     1       2.365  -4.177   0.339  0.00  0.00    +0.137 C 
BRANCH  11  12
ATOM     12  C   UNL     1       2.345  -2.670   0.347  0.00  0.00    +0.234 C 
ATOM     13  O   UNL     1       3.374  -2.051   0.513  0.00  0.00    -0.274 OA
ATOM     14  N   UNL     1       1.183  -2.011   0.171  0.00  0.00    -0.239 N 
ATOM     15  C   UNL     1       1.164  -0.663   0.178  0.00  0.00    +0.306 C 
ATOM     16  O   UNL     1       2.196  -0.042   0.344  0.00  0.00    -0.252 OA
ATOM     17  N   UNL     1       0.002  -0.004   0.002  0.00  0.00    -0.296 N 
ATOM     18  H   UNL     1       0.359  -2.506   0.039  0.00  0.00    +0.159 HD
ATOM     19  H   UNL     1      -0.821  -0.500  -0.130  0.00  0.00    +0.151 HD
BRANCH  17  20
ATOM     20  C   UNL     1      -0.018   1.461   0.010  0.00  0.00    +0.075 C 
ATOM     21  C   UNL     1      -1.141   2.148   0.790  0.00  0.00    +0.024 C 
ATOM     22  C   UNL     1      -1.155   2.156  -0.741  0.00  0.00    +0.024 C 
ENDBRANCH  17  20
ENDBRANCH  11  12
ENDBRANCH   9  11
ENDBRANCH   1   9
BRANCH   4  23
ATOM     23  C   UNL     1       4.603 -10.012  -0.542  0.00  0.00    +0.306 C 
BRANCH  23  24
ATOM     24  O   UNL     1       5.012 -10.560   0.713  0.00  0.00    -0.484 OA
BRANCH  24  25
ATOM     25  C   UNL     1       5.569 -11.800   0.693  0.00  0.00    +0.121 A 
ATOM     26  C   UNL     1       5.712 -12.478  -0.508  0.00  0.00    +0.046 A 
ATOM     27  C   UNL     1       6.284 -13.735  -0.526  0.00  0.00    +0.008 A 
ATOM     28  C   UNL     1       6.701 -14.323   0.654  0.00  0.00    -0.042 A 
ATOM     29  C   UNL     1       6.553 -13.652   1.853  0.00  0.00    +0.008 A 
ATOM     30  C   UNL     1       5.988 -12.392   1.876  0.00  0.00    +0.046 A 
BRANCH  28  31
ATOM     31  C   UNL     1       7.317 -15.698   0.632  0.00  0.00    -0.013 C 
ATOM     32  C   UNL     1       6.476 -16.648   1.487  0.00  0.00    +0.015 C 
ATOM     33  C   UNL     1       7.364 -16.214  -0.808  0.00  0.00    +0.015 C 
ATOM     34  C   UNL     1       8.739 -15.629   1.195  0.00  0.00    +0.015 C 
ENDBRANCH  28  31
ENDBRANCH  24  25
ENDBRANCH  23  24
ENDBRANCH   4  23
TORSDOF 9
