REMARK  Name = ZINC63818221
REMARK  7 active torsions:
REMARK  status: ('A' for Active; 'I' for Inactive)
REMARK    1  A    between atoms: C_1  and  N_2
REMARK    2  A    between atoms: C_6  and  N_16
REMARK    3  A    between atoms: C_10  and  C_12
REMARK    4  A    between atoms: C_17  and  C_19
REMARK    5  A    between atoms: N_21  and  C_22
REMARK    6  A    between atoms: C_22  and  C_23
REMARK    7  A    between atoms: C_23  and  C_24
REMARK                            x       y       z     vdW  Elec       q    Type
REMARK                         _______ _______ _______ _____ _____    ______ ____
ROOT
ATOM      1  N   UNL     1       0.035  -3.843  -4.023  0.00  0.00    -0.278 N 
ATOM      2  C   UNL     1      -0.077  -3.525  -5.328  0.00  0.00    +0.303 C 
ATOM      3  O   UNL     1      -0.095  -2.360  -5.669  0.00  0.00    -0.265 OA
ATOM      4  H   UNL     1       0.126  -4.771  -3.756  0.00  0.00    +0.155 HD
ENDROOT
BRANCH   1  10
ATOM      5  C   UNL     1      -0.519   1.335   0.134  0.00  0.00    +0.131 C 
ATOM      6  N   UNL     1       0.130   0.032  -0.034  0.00  0.00    -0.306 N 
ATOM      7  C   UNL     1      -0.011  -0.832  -1.131  0.00  0.00    +0.052 A 
ATOM      8  C   UNL     1      -0.762  -0.698  -2.293  0.00  0.00    +0.027 A 
ATOM      9  C   UNL     1      -0.747  -1.694  -3.249  0.00  0.00    +0.025 A 
ATOM     10  C   UNL     1       0.021  -2.835  -3.054  0.00  0.00    +0.036 A 
ATOM     11  C   UNL     1       0.774  -2.974  -1.896  0.00  0.00    +0.048 A 
ATOM     12  C   UNL     1       0.760  -1.974  -0.932  0.00  0.00    +0.052 A 
ATOM     13  N   UNL     1       1.426  -1.889   0.299  0.00  0.00    -0.317 N 
ATOM     14  C   UNL     1       1.054  -0.608   0.910  0.00  0.00    +0.265 C 
ATOM     15  H   UNL     1       2.025  -2.553   0.675  0.00  0.00    +0.148 HD
BRANCH  14  16
ATOM     16  C   UNL     1       2.294   0.266   1.109  0.00  0.00    +0.424 C 
ATOM     17  F   UNL     1       1.911   1.512   1.617  0.00  0.00    -0.167 F 
ATOM     18  F   UNL     1       3.163  -0.358   2.011  0.00  0.00    -0.167 F 
ATOM     19  F   UNL     1       2.943   0.442  -0.117  0.00  0.00    -0.167 F 
ENDBRANCH  14  16
ENDBRANCH   1  10
BRANCH   2  20
ATOM     20  C   UNL     1      -0.180  -4.606  -6.353  0.00  0.00    +0.299 C 
ATOM     21  O   UNL     1      -0.163  -5.770  -6.012  0.00  0.00    -0.265 OA
ATOM     22  N   UNL     1      -0.293  -4.288  -7.658  0.00  0.00    -0.307 N 
ATOM     23  H   UNL     1      -0.307  -3.357  -7.931  0.00  0.00    +0.149 HD
BRANCH  22  24
ATOM     24  C   UNL     1      -0.394  -5.348  -8.664  0.00  0.00    +0.109 C 
BRANCH  24  25
ATOM     25  C   UNL     1      -0.511  -4.721 -10.055  0.00  0.00    +0.052 C 
BRANCH  25  26
ATOM     26  C   UNL     1      -0.615  -5.811 -11.090  0.00  0.00    -0.040 C 
ATOM     27  C   UNL     1      -1.749  -6.319 -11.625  0.00  0.00    +0.002 A 
ATOM     28  C   UNL     1      -3.170  -6.019 -11.411  0.00  0.00    +0.048 A 
ATOM     29  C   UNL     1      -4.099  -6.712 -12.111  0.00  0.00    +0.124 A 
ATOM     30  C   UNL     1      -3.738  -7.707 -13.033  0.00  0.00    +0.040 A 
ATOM     31  C   UNL     1      -2.453  -8.038 -13.282  0.00  0.00    +0.029 A 
ATOM     32  C   UNL     1      -1.395  -7.373 -12.603  0.00  0.00    +0.043 A 
ATOM     33  N   UNL     1      -0.093  -7.511 -12.670  0.00  0.00    -0.380 N 
ATOM     34  C   UNL     1       0.527  -6.555 -11.746  0.00  0.00    +0.144 C 
ATOM     35  F   UNL     1      -5.408  -6.439 -11.916  0.00  0.00    -0.205 F 
ATOM     36  H   UNL     1       0.381  -8.138 -13.238  0.00  0.00    +0.160 HD
ENDBRANCH  25  26
ENDBRANCH  24  25
ENDBRANCH  22  24
ENDBRANCH   2  20
TORSDOF 6
