REMARK  Name = ZINC57945364
REMARK  14 active torsions:
REMARK  status: ('A' for Active; 'I' for Inactive)
REMARK    1  A    between atoms: C_1  and  C_2
REMARK    2  A    between atoms: C_6  and  C_29
REMARK    3  A    between atoms: C_7  and  O_8
REMARK    4  A    between atoms: O_8  and  C_9
REMARK    5  A    between atoms: C_9  and  C_10
REMARK    6  A    between atoms: C_10  and  C_12
REMARK    7  A    between atoms: C_10  and  O_28
REMARK    8  A    between atoms: C_12  and  N_13
REMARK    9  A    between atoms: N_13  and  C_14
REMARK   10  A    between atoms: N_13  and  C_15
REMARK   11  A    between atoms: C_15  and  C_17
REMARK   12  A    between atoms: C_15  and  C_18
REMARK   13  A    between atoms: C_21  and  S_24
REMARK   14  A    between atoms: S_24  and  N_27
REMARK                            x       y       z     vdW  Elec       q    Type
REMARK                         _______ _______ _______ _____ _____    ______ ____
ROOT
ATOM      1  N   UNL     1      -2.206   2.179   6.093  0.00  0.00    +0.384 N 
ATOM      2  C   UNL     1      -1.541   1.298   7.062  0.00  0.00    -0.095 C 
ATOM      3  H   UNL     1      -1.608   2.964   5.886  0.00  0.00    -0.081 HD
ENDROOT
BRANCH   1   4
ATOM      4  C   UNL     1      -3.472   2.663   6.660  0.00  0.00    -0.041 C 
ATOM      5  C   UNL     1      -3.189   3.441   7.946  0.00  0.00    -0.008 C 
BRANCH   4   6
ATOM      6  C   UNL     1      -4.155   3.566   5.666  0.00  0.00    -0.061 A 
ATOM      7  C   UNL     1      -3.410   4.457   4.916  0.00  0.00    +0.004 A 
ATOM      8  C   UNL     1      -4.036   5.286   4.004  0.00  0.00    +0.029 A 
ATOM      9  C   UNL     1      -5.407   5.223   3.841  0.00  0.00    +0.105 A 
ATOM     10  C   UNL     1      -6.152   4.332   4.590  0.00  0.00    +0.029 A 
ATOM     11  C   UNL     1      -5.525   3.500   5.499  0.00  0.00    +0.004 A 
BRANCH   9  12
ATOM     12  S   UNL     1      -6.206   6.281   2.680  0.00  0.00    +0.056 S 
ATOM     13  O   UNL     1      -7.554   6.410   3.108  0.00  0.00    -0.153 OA
ATOM     14  O   UNL     1      -5.353   7.403   2.499  0.00  0.00    -0.153 OA
BRANCH  12  15
ATOM     15  N   UNL     1      -6.244   5.477   1.232  0.00  0.00    -0.204 NA
ATOM     16  H   UNL     1      -6.967   5.641   0.606  0.00  0.00    +0.144 HD
ATOM     17  H   UNL     1      -5.545   4.843   1.011  0.00  0.00    +0.144 HD
ENDBRANCH  12  15
ENDBRANCH   9  12
ENDBRANCH   4   6
ENDBRANCH   1   4
BRANCH   1  18
ATOM     18  C   UNL     1      -2.477   1.431   4.857  0.00  0.00    -0.043 C 
BRANCH  18  19
ATOM     19  C   UNL     1      -1.154   1.073   4.177  0.00  0.00    +0.135 C 
BRANCH  19  20
ATOM     20  O   UNL     1      -0.444   0.131   4.984  0.00  0.00    -0.390 OA
ATOM     21  H   UNL     1      -0.921  -0.697   5.134  0.00  0.00    +0.210 HD
ENDBRANCH  19  20
BRANCH  19  22
ATOM     22  C   UNL     1      -1.437   0.459   2.805  0.00  0.00    +0.258 C 
BRANCH  22  23
ATOM     23  O   UNL     1      -0.202   0.232   2.122  0.00  0.00    -0.489 OA
BRANCH  23  30
ATOM     24  C   UNL     1      -0.404   2.005  -0.069  0.00  0.00    +0.047 C 
ATOM     25  C   UNL     1      -0.376   0.507  -0.235  0.00  0.00    -0.009 A 
ATOM     26  C   UNL     1      -0.444  -0.049  -1.498  0.00  0.00    +0.007 A 
ATOM     27  C   UNL     1      -0.419  -1.423  -1.651  0.00  0.00    +0.001 A 
ATOM     28  C   UNL     1      -0.325  -2.243  -0.542  0.00  0.00    +0.007 A 
ATOM     29  C   UNL     1      -0.256  -1.692   0.723  0.00  0.00    -0.009 A 
ATOM     30  C   UNL     1      -0.276  -0.313   0.879  0.00  0.00    +0.126 A 
ATOM     31  C   UNL     1      -0.154  -2.586   1.931  0.00  0.00    +0.047 C 
ENDBRANCH  23  30
ENDBRANCH  22  23
ENDBRANCH  19  22
ENDBRANCH  18  19
ENDBRANCH   1  18
TORSDOF 10
