REMARK  Name = ZINC14070238
REMARK  13 active torsions:
REMARK  status: ('A' for Active; 'I' for Inactive)
REMARK    1  A    between atoms: C_1  and  C_2
REMARK    2  A    between atoms: C_2  and  C_3
REMARK    3  A    between atoms: C_3  and  C_5
REMARK    4  A    between atoms: C_3  and  C_6
REMARK    5  A    between atoms: C_11  and  N_12
REMARK    6  A    between atoms: C_13  and  C_15
REMARK    7  A    between atoms: C_15  and  N_16
REMARK    8  A    between atoms: C_19  and  C_23
REMARK    9  A    between atoms: C_19  and  C_31
REMARK   10  A    between atoms: C_26  and  O_29
REMARK   11  A    between atoms: O_29  and  C_30
REMARK   12  A    between atoms: C_34  and  O_37
REMARK   13  A    between atoms: O_37  and  C_38
REMARK                            x       y       z     vdW  Elec       q    Type
REMARK                         _______ _______ _______ _____ _____    ______ ____
ROOT
ATOM      1  N   UNL     1       2.353   1.007   0.066  0.00  0.00    -0.215 N 
ATOM      2  C   UNL     1       3.268   0.861   1.044  0.00  0.00    +0.256 C 
ATOM      3  O   UNL     1       3.127   1.115   2.222  0.00  0.00    -0.272 OA
ATOM      4  C   UNL     1       4.508   0.312   0.368  0.00  0.00    +0.164 C 
ATOM      5  N   UNL     1       4.113   0.209  -1.048  0.00  0.00    -0.278 N 
ATOM      6  C   UNL     1       2.840   0.637  -1.124  0.00  0.00    +0.310 C 
ATOM      7  O   UNL     1       2.204   0.682  -2.159  0.00  0.00    -0.252 OA
ATOM      8  H   UNL     1       4.664  -0.106  -1.781  0.00  0.00    +0.152 HD
ENDROOT
BRANCH   4   9
ATOM      9  C   UNL     1       4.861  -1.045   0.920  0.00  0.00    -0.011 A 
ATOM     10  C   UNL     1       5.452  -1.990   0.102  0.00  0.00    +0.010 A 
ATOM     11  C   UNL     1       5.782  -3.233   0.608  0.00  0.00    +0.046 A 
ATOM     12  C   UNL     1       5.508  -3.537   1.933  0.00  0.00    +0.120 A 
ATOM     13  C   UNL     1       4.910  -2.588   2.750  0.00  0.00    +0.046 A 
ATOM     14  C   UNL     1       4.588  -1.345   2.242  0.00  0.00    +0.010 A 
BRANCH  12  15
ATOM     15  O   UNL     1       5.826  -4.761   2.431  0.00  0.00    -0.495 OA
ATOM     16  C   UNL     1       6.440  -5.687   1.533  0.00  0.00    +0.277 C 
ENDBRANCH  12  15
ENDBRANCH   4   9
BRANCH   4  17
ATOM     17  C   UNL     1       5.664   1.265   0.528  0.00  0.00    -0.011 A 
ATOM     18  C   UNL     1       6.608   1.046   1.515  0.00  0.00    +0.010 A 
ATOM     19  C   UNL     1       7.672   1.915   1.660  0.00  0.00    +0.046 A 
ATOM     20  C   UNL     1       7.787   3.014   0.822  0.00  0.00    +0.120 A 
ATOM     21  C   UNL     1       6.836   3.235  -0.163  0.00  0.00    +0.046 A 
ATOM     22  C   UNL     1       5.777   2.360  -0.308  0.00  0.00    +0.010 A 
BRANCH  20  23
ATOM     23  O   UNL     1       8.829   3.874   0.967  0.00  0.00    -0.495 OA
ATOM     24  C   UNL     1       9.770   3.584   2.002  0.00  0.00    +0.277 C 
ENDBRANCH  20  23
ENDBRANCH   4  17
BRANCH   1  25
ATOM     25  C   UNL     1       0.995   1.514   0.277  0.00  0.00    +0.214 C 
BRANCH  25  27
ATOM     26  N   UNL     1      -1.240   0.590   0.799  0.00  0.00    -0.284 N 
ATOM     27  C   UNL     1       0.069   0.362   0.574  0.00  0.00    +0.235 C 
ATOM     28  O   UNL     1       0.502  -0.771   0.606  0.00  0.00    -0.274 OA
ATOM     29  H   UNL     1      -1.570   1.500   0.859  0.00  0.00    +0.155 HD
BRANCH  26  35
ATOM     30  C   UNL     1      -3.202  -0.387   1.813  0.00  0.00    -0.023 A 
ATOM     31  C   UNL     1      -4.075  -1.448   1.951  0.00  0.00    +0.006 A 
ATOM     32  C   UNL     1      -3.868  -2.613   1.235  0.00  0.00    +0.000 A 
ATOM     33  C   UNL     1      -2.790  -2.717   0.374  0.00  0.00    +0.002 A 
ATOM     34  C   UNL     1      -1.917  -1.657   0.228  0.00  0.00    +0.023 A 
ATOM     35  C   UNL     1      -2.123  -0.485   0.946  0.00  0.00    +0.037 A 
BRANCH  30  36
ATOM     36  C   UNL     1      -3.425   0.880   2.599  0.00  0.00    +0.017 C 
ATOM     37  C   UNL     1      -3.264   0.588   4.092  0.00  0.00    +0.012 C 
BRANCH  36  39
ATOM     38  C   UNL     1      -5.020   2.754   3.029  0.00  0.00    +0.004 C 
ATOM     39  C   UNL     1      -4.837   1.405   2.331  0.00  0.00    +0.004 C 
ENDBRANCH  36  39
ENDBRANCH  30  36
ENDBRANCH  26  35
ENDBRANCH  25  27
ENDBRANCH   1  25
TORSDOF 9
