REMARK  Name = ZINC34850683
REMARK  15 active torsions:
REMARK  status: ('A' for Active; 'I' for Inactive)
REMARK    1  A    between atoms: C_1  and  C_2
REMARK    2  A    between atoms: C_2  and  N_3
REMARK    3  A    between atoms: N_3  and  C_4
REMARK    4  A    between atoms: N_3  and  C_25
REMARK    5  A    between atoms: C_4  and  C_5
REMARK    6  A    between atoms: C_5  and  C_7
REMARK    7  A    between atoms: C_5  and  O_24
REMARK    8  A    between atoms: C_7  and  O_8
REMARK    9  A    between atoms: O_8  and  C_9
REMARK   10  A    between atoms: C_9  and  C_10
REMARK   11  A    between atoms: C_9  and  C_17
REMARK   12  A    between atoms: C_25  and  C_26
REMARK   13  A    between atoms: C_26  and  C_28
REMARK   14  A    between atoms: C_26  and  O_35
REMARK   15  A    between atoms: C_32  and  O_34
REMARK                            x       y       z     vdW  Elec       q    Type
REMARK                         _______ _______ _______ _____ _____    ______ ____
ROOT
ATOM      1  C   UNL     1      -2.638   1.254  -1.488  0.00  0.00    +0.124 C 
ENDROOT
BRANCH   1   2
ATOM      2  O   UNL     1      -3.346   1.791  -0.368  0.00  0.00    -0.391 OA
ATOM      3  H   UNL     1      -4.198   1.366  -0.201  0.00  0.00    +0.210 HD
ENDBRANCH   1   2
BRANCH   1   4
ATOM      4  C   UNL     1      -2.364  -0.233  -1.253  0.00  0.00    -0.045 C 
BRANCH   4   5
ATOM      5  N   UNL     1      -1.566  -0.396  -0.030  0.00  0.00    +0.383 N 
ATOM      6  H   UNL     1      -2.034   0.059   0.739  0.00  0.00    -0.082 HD
BRANCH   5   8
ATOM      7  C   UNL     1       0.520  -0.568  -1.301  0.00  0.00    -0.017 C 
ATOM      8  C   UNL     1      -0.242   0.209  -0.225  0.00  0.00    -0.082 C 
ENDBRANCH   5   8
BRANCH   5   9
ATOM      9  C   UNL     1      -1.412  -1.826   0.266  0.00  0.00    -0.042 C 
BRANCH   9  10
ATOM     10  C   UNL     1      -0.730  -1.994   1.626  0.00  0.00    +0.128 C 
BRANCH  10  11
ATOM     11  C   UNL     1      -0.722  -3.453   2.007  0.00  0.00    -0.017 A 
ATOM     12  C   UNL     1       0.288  -4.280   1.552  0.00  0.00    +0.006 A 
ATOM     13  C   UNL     1       0.298  -5.618   1.899  0.00  0.00    +0.004 A 
ATOM     14  C   UNL     1      -0.702  -6.132   2.702  0.00  0.00    +0.045 A 
ATOM     15  C   UNL     1      -1.716  -5.304   3.160  0.00  0.00    +0.117 A 
ATOM     16  C   UNL     1      -1.721  -3.960   2.815  0.00  0.00    +0.051 A 
BRANCH  15  17
ATOM     17  O   UNL     1      -2.701  -5.807   3.950  0.00  0.00    -0.507 OA
ATOM     18  H   UNL     1      -2.507  -5.763   4.896  0.00  0.00    +0.292 HD
ENDBRANCH  15  17
ENDBRANCH  10  11
BRANCH  10  19
ATOM     19  O   UNL     1       0.614  -1.516   1.547  0.00  0.00    -0.389 OA
ATOM     20  H   UNL     1       1.159  -1.978   0.895  0.00  0.00    +0.210 HD
ENDBRANCH  10  19
ENDBRANCH   9  10
ENDBRANCH   5   9
ENDBRANCH   4   5
ENDBRANCH   1   4
BRANCH   1  21
ATOM     21  C   UNL     1      -3.482   1.423  -2.753  0.00  0.00    +0.190 C 
BRANCH  21  22
ATOM     22  O   UNL     1      -3.641   2.814  -3.037  0.00  0.00    -0.365 OA
BRANCH  22  23
ATOM     23  C   UNL     1      -4.418   3.084  -4.206  0.00  0.00    +0.178 C 
BRANCH  23  24
ATOM     24  C   UNL     1      -5.133   4.400  -4.041  0.00  0.00    -0.014 A 
ATOM     25  C   UNL     1      -4.484   5.470  -3.455  0.00  0.00    +0.009 A 
ATOM     26  C   UNL     1      -5.138   6.678  -3.304  0.00  0.00    +0.039 A 
ATOM     27  C   UNL     1      -6.445   6.816  -3.740  0.00  0.00    +0.123 A 
ATOM     28  C   UNL     1      -7.094   5.744  -4.327  0.00  0.00    +0.039 A 
ATOM     29  C   UNL     1      -6.436   4.539  -4.482  0.00  0.00    +0.009 A 
ATOM     30  F   UNL     1      -7.085   7.997  -3.592  0.00  0.00    -0.205 F 
ENDBRANCH  23  24
BRANCH  23  31
ATOM     31  C   UNL     1      -3.512   3.151  -5.408  0.00  0.00    -0.014 A 
ATOM     32  C   UNL     1      -2.237   3.671  -5.283  0.00  0.00    +0.009 A 
ATOM     33  C   UNL     1      -1.404   3.733  -6.384  0.00  0.00    +0.039 A 
ATOM     34  C   UNL     1      -1.847   3.275  -7.613  0.00  0.00    +0.123 A 
ATOM     35  C   UNL     1      -3.125   2.755  -7.737  0.00  0.00    +0.039 A 
ATOM     36  C   UNL     1      -3.954   2.689  -6.633  0.00  0.00    +0.009 A 
ATOM     37  F   UNL     1      -1.035   3.335  -8.690  0.00  0.00    -0.205 F 
ENDBRANCH  23  31
ENDBRANCH  22  23
ENDBRANCH  21  22
ENDBRANCH   1  21
TORSDOF 14
