REMARK  Name = ZINC59157101
REMARK  12 active torsions:
REMARK  status: ('A' for Active; 'I' for Inactive)
REMARK    1  A    between atoms: C_1  and  C_2
REMARK    2  A    between atoms: C_3  and  C_17
REMARK    3  A    between atoms: C_4  and  C_16
REMARK    4  A    between atoms: N_5  and  C_7
REMARK    5  A    between atoms: C_11  and  N_13
REMARK    6  A    between atoms: N_18  and  N_19
REMARK    7  A    between atoms: C_20  and  C_22
REMARK    8  A    between atoms: C_22  and  C_24
REMARK    9  A    between atoms: C_22  and  N_28
REMARK   10  A    between atoms: C_24  and  C_25
REMARK   11  A    between atoms: C_25  and  C_26
REMARK   12  A    between atoms: C_25  and  C_27
REMARK                            x       y       z     vdW  Elec       q    Type
REMARK                         _______ _______ _______ _____ _____    ______ ____
ROOT
ATOM      1  C   UNL     1      -0.354   1.477   0.034  0.00  0.00    +0.068 C 
ATOM      2  C   UNL     1      -0.144  -0.015   0.013  0.00  0.00    +0.069 A 
ATOM      3  C   UNL     1      -0.144  -0.836  -1.137  0.00  0.00    +0.038 A 
ATOM      4  C   UNL     1       0.082  -2.129  -0.718  0.00  0.00    +0.051 A 
ATOM      5  N   UNL     1       0.215  -2.099   0.626  0.00  0.00    -0.236 N 
ATOM      6  N   UNL     1       0.076  -0.773   1.053  0.00  0.00    -0.171 NA
ATOM      7  C   UNL     1       0.166  -3.351  -1.596  0.00  0.00    +0.066 C 
ENDROOT
BRANCH   5   8
ATOM      8  C   UNL     1       0.457  -3.206   1.451  0.00  0.00    +0.068 A 
ATOM      9  C   UNL     1      -0.225  -3.338   2.654  0.00  0.00    +0.028 A 
ATOM     10  C   UNL     1       0.015  -4.430   3.465  0.00  0.00    +0.004 A 
ATOM     11  C   UNL     1       0.933  -5.391   3.080  0.00  0.00    +0.033 A 
ATOM     12  C   UNL     1       1.613  -5.261   1.883  0.00  0.00    +0.128 A 
ATOM     13  C   UNL     1       1.373  -4.174   1.065  0.00  0.00    +0.060 A 
BRANCH  12  14
ATOM     14  N   UNL     1       2.595  -6.291   1.476  0.00  0.00    +0.056 N 
ATOM     15  O   UNL     1       2.801  -7.245   2.189  0.00  0.00    -0.126 OA
ATOM     16  O   UNL     1       3.189  -6.179   0.429  0.00  0.00    -0.126 OA
ENDBRANCH  12  14
ENDBRANCH   5   8
BRANCH   3  17
ATOM     17  C   UNL     1      -0.350  -0.391  -2.529  0.00  0.00    +0.142 C 
ATOM     18  N   UNL     1      -0.554   0.865  -2.785  0.00  0.00    -0.188 NA
BRANCH  18  19
ATOM     19  N   UNL     1      -0.749   1.287  -4.107  0.00  0.00    -0.208 N 
ATOM     20  C   UNL     1      -0.961   2.591  -4.373  0.00  0.00    +0.218 C 
ATOM     21  O   UNL     1      -0.983   3.399  -3.469  0.00  0.00    -0.276 OA
ATOM     22  H   UNL     1      -0.731   0.641  -4.830  0.00  0.00    +0.177 HD
BRANCH  20  23
ATOM     23  C   UNL     1      -1.170   3.045  -5.795  0.00  0.00    +0.015 C 
BRANCH  23  24
ATOM     24  N   UNL     1      -1.837   4.354  -5.797  0.00  0.00    +0.386 N 
ATOM     25  H   UNL     1      -1.262   5.026  -5.311  0.00  0.00    -0.089 HD
ATOM     26  H   UNL     1      -1.977   4.658  -6.749  0.00  0.00    -0.089 HD
ATOM     27  H   UNL     1      -2.730   4.278  -5.333  0.00  0.00    -0.089 HD
ENDBRANCH  23  24
BRANCH  23  28
ATOM     28  C   UNL     1       0.183   3.161  -6.498  0.00  0.00    -0.004 C 
BRANCH  28  29
ATOM     29  C   UNL     1      -0.036   3.501  -7.974  0.00  0.00    -0.018 C 
ATOM     30  C   UNL     1       1.317   3.739  -8.649  0.00  0.00    +0.007 C 
ATOM     31  C   UNL     1      -0.752   2.338  -8.664  0.00  0.00    +0.007 C 
ENDBRANCH  28  29
ENDBRANCH  23  28
ENDBRANCH  20  23
ENDBRANCH  18  19
ENDBRANCH   3  17
TORSDOF 8
