REMARK  Name = ZINC15099664
REMARK  13 active torsions:
REMARK  status: ('A' for Active; 'I' for Inactive)
REMARK    1  A    between atoms: C_1  and  C_2
REMARK    2  A    between atoms: C_7  and  O_8
REMARK    3  A    between atoms: O_8  and  C_9
REMARK    4  A    between atoms: C_9  and  C_10
REMARK    5  A    between atoms: C_10  and  N_55
REMARK    6  A    between atoms: C_11  and  N_55
REMARK    7  A    between atoms: C_12  and  C_13
REMARK    8  A    between atoms: C_12  and  N_55
REMARK    9  A    between atoms: N_15  and  C_16
REMARK   10  A    between atoms: C_18  and  S_24
REMARK   11  A    between atoms: C_20  and  C_23
REMARK   12  A    between atoms: C_21  and  C_22
REMARK   13  A    between atoms: S_24  and  N_27
REMARK                            x       y       z     vdW  Elec       q    Type
REMARK                         _______ _______ _______ _____ _____    ______ ____
ROOT
ATOM      1  C   UNL     1      -3.767  -0.635   3.094  0.00  0.00    +0.201 C 
ATOM      2  O   UNL     1      -3.144  -0.974   2.109  0.00  0.00    -0.278 OA
ATOM      3  N   UNL     1      -3.491   0.539   3.695  0.00  0.00    -0.287 N 
ATOM      4  H   UNL     1      -3.943   0.779   4.519  0.00  0.00    +0.155 HD
ENDROOT
BRANCH   3   5
ATOM      5  C   UNL     1      -2.553   1.410   3.131  0.00  0.00    +0.038 A 
ATOM      6  C   UNL     1      -1.440   0.903   2.473  0.00  0.00    +0.052 A 
ATOM      7  C   UNL     1      -0.516   1.766   1.918  0.00  0.00    +0.107 A 
ATOM      8  C   UNL     1      -0.695   3.134   2.022  0.00  0.00    +0.032 A 
ATOM      9  C   UNL     1      -1.804   3.641   2.672  0.00  0.00    -0.044 A 
ATOM     10  C   UNL     1      -2.732   2.784   3.230  0.00  0.00    -0.026 A 
ATOM     11  C   UNL     1      -3.939   3.338   3.943  0.00  0.00    +0.046 C 
ATOM     12  C   UNL     1      -1.998   5.132   2.778  0.00  0.00    +0.044 C 
BRANCH   7  13
ATOM     13  S   UNL     1       0.896   1.124   1.083  0.00  0.00    +0.056 S 
ATOM     14  O   UNL     1       1.117  -0.180   1.601  0.00  0.00    -0.153 OA
ATOM     15  O   UNL     1       1.890   2.139   1.126  0.00  0.00    -0.153 OA
BRANCH  13  16
ATOM     16  N   UNL     1       0.481   0.937  -0.509  0.00  0.00    -0.204 NA
ATOM     17  H   UNL     1      -0.411   1.173  -0.809  0.00  0.00    +0.144 HD
ATOM     18  H   UNL     1       1.129   0.592  -1.143  0.00  0.00    +0.144 HD
ENDBRANCH  13  16
ENDBRANCH   7  13
ENDBRANCH   3   5
BRANCH   1  19
ATOM     19  C   UNL     1      -4.849  -1.528   3.644  0.00  0.00    +0.019 C 
BRANCH  19  21
ATOM     20  C   UNL     1      -5.425  -2.411   1.464  0.00  0.00    -0.095 C 
ATOM     21  N   UNL     1      -4.928  -2.749   2.815  0.00  0.00    +0.386 N 
ATOM     22  H   UNL     1      -3.989  -3.157   2.732  0.00  0.00    -0.081 HD
BRANCH  21  23
ATOM     23  C   UNL     1      -5.826  -3.735   3.451  0.00  0.00    -0.037 C 
BRANCH  23  24
ATOM     24  C   UNL     1      -5.716  -5.062   2.697  0.00  0.00    +0.210 C 
BRANCH  24  25
ATOM     25  O   UNL     1      -4.390  -5.578   2.833  0.00  0.00    -0.494 OA
BRANCH  25  32
ATOM     26  C   UNL     1      -1.775  -6.616   3.089  0.00  0.00    +0.047 C 
ATOM     27  C   UNL     1      -2.856  -7.319   2.308  0.00  0.00    -0.009 A 
ATOM     28  C   UNL     1      -2.586  -8.520   1.682  0.00  0.00    +0.007 A 
ATOM     29  C   UNL     1      -3.577  -9.166   0.966  0.00  0.00    +0.000 A 
ATOM     30  C   UNL     1      -4.840  -8.611   0.875  0.00  0.00    +0.004 A 
ATOM     31  C   UNL     1      -5.116  -7.413   1.504  0.00  0.00    +0.046 A 
ATOM     32  C   UNL     1      -4.122  -6.760   2.218  0.00  0.00    +0.123 A 
ENDBRANCH  25  32
ENDBRANCH  24  25
ENDBRANCH  23  24
ENDBRANCH  21  23
ENDBRANCH  19  21
ENDBRANCH   1  19
TORSDOF 9
