REMARK  Name = ZINC39700273
REMARK  13 active torsions:
REMARK  status: ('A' for Active; 'I' for Inactive)
REMARK    1  A    between atoms: C_1  and  C_2
REMARK    2  A    between atoms: C_2  and  O_3
REMARK    3  A    between atoms: O_3  and  C_4
REMARK    4  A    between atoms: C_7  and  N_10
REMARK    5  A    between atoms: N_10  and  C_11
REMARK    6  A    between atoms: C_11  and  N_13
REMARK    7  A    between atoms: N_13  and  C_14
REMARK    8  A    between atoms: C_14  and  C_16
REMARK    9  A    between atoms: C_14  and  C_17
REMARK   10  A    between atoms: C_17  and  C_19
REMARK   11  A    between atoms: C_17  and  N_24
REMARK   12  A    between atoms: N_27  and  C_30
REMARK   13  A    between atoms: C_30  and  C_31
REMARK                            x       y       z     vdW  Elec       q    Type
REMARK                         _______ _______ _______ _____ _____    ______ ____
ROOT
ATOM      1  C   UNL     1       1.602  -9.682  -4.697  0.00  0.00    +0.113 C 
ENDROOT
BRANCH   1   2
ATOM      2  N   UNL     1       2.250 -10.510  -5.723  0.00  0.00    -0.297 NA
ATOM      3  C   UNL     1       1.933 -10.021  -7.073  0.00  0.00    +0.066 C 
ATOM      4  C   UNL     1       2.673 -10.871  -8.107  0.00  0.00    -0.063 C 
ATOM      5  N   UNL     1       2.265 -12.276  -7.969  0.00  0.00    +0.384 N 
ATOM      6  C   UNL     1       2.611 -12.758  -6.625  0.00  0.00    -0.063 C 
ATOM      7  C   UNL     1       1.870 -11.923  -5.578  0.00  0.00    +0.066 C 
ATOM      8  H   UNL     1       1.269 -12.352  -8.107  0.00  0.00    -0.081 HD
BRANCH   5   9
ATOM      9  C   UNL     1       2.962 -13.089  -8.974  0.00  0.00    -0.043 C 
BRANCH   9  10
ATOM     10  C   UNL     1       2.454 -14.507  -8.914  0.00  0.00    -0.064 A 
ATOM     11  C   UNL     1       3.063 -15.424  -8.079  0.00  0.00    +0.002 A 
ATOM     12  C   UNL     1       2.597 -16.724  -8.023  0.00  0.00    +0.000 A 
ATOM     13  C   UNL     1       1.521 -17.107  -8.803  0.00  0.00    +0.000 A 
ATOM     14  C   UNL     1       0.912 -16.189  -9.638  0.00  0.00    +0.000 A 
ATOM     15  C   UNL     1       1.375 -14.888  -9.690  0.00  0.00    +0.002 A 
ENDBRANCH   9  10
ENDBRANCH   5   9
ENDBRANCH   1   2
BRANCH   1  16
ATOM     16  C   UNL     1       0.111  -9.894  -4.749  0.00  0.00    +0.009 A 
ATOM     17  C   UNL     1      -0.747 -10.173  -3.737  0.00  0.00    +0.013 A 
ATOM     18  C   UNL     1      -2.091 -10.327  -4.022  0.00  0.00    +0.008 A 
ATOM     19  C   UNL     1      -2.511 -10.194  -5.304  0.00  0.00    +0.045 A 
ATOM     20  S   UNL     1      -0.985  -9.835  -6.157  0.00  0.00    -0.100 S 
ENDBRANCH   1  16
BRANCH   1  21
ATOM     21  C   UNL     1       1.918  -8.208  -4.958  0.00  0.00    +0.091 C 
ATOM     22  C   UNL     1       3.432  -7.993  -4.905  0.00  0.00    +0.030 C 
BRANCH  21  23
ATOM     23  N   UNL     1       1.272  -7.383  -3.934  0.00  0.00    -0.322 N 
ATOM     24  H   UNL     1       1.062  -7.762  -3.066  0.00  0.00    +0.148 HD
BRANCH  23  25
ATOM     25  C   UNL     1       0.968  -6.096  -4.199  0.00  0.00    +0.135 C 
ATOM     26  S   UNL     1       1.338  -5.427  -5.731  0.00  0.00    -0.019 S 
BRANCH  25  27
ATOM     27  N   UNL     1       0.374  -5.337  -3.257  0.00  0.00    -0.297 N 
ATOM     28  H   UNL     1       0.227  -5.694  -2.368  0.00  0.00    +0.154 HD
BRANCH  27  32
ATOM     29  C   UNL     1      -0.834  -1.451  -4.169  0.00  0.00    +0.121 A 
ATOM     30  C   UNL     1      -1.025  -2.471  -5.090  0.00  0.00    +0.047 A 
ATOM     31  C   UNL     1      -0.625  -3.758  -4.789  0.00  0.00    +0.027 A 
ATOM     32  C   UNL     1      -0.032  -4.031  -3.564  0.00  0.00    +0.033 A 
ATOM     33  C   UNL     1       0.160  -3.010  -2.643  0.00  0.00    +0.027 A 
ATOM     34  C   UNL     1      -0.236  -1.723  -2.947  0.00  0.00    +0.047 A 
BRANCH  29  35
ATOM     35  O   UNL     1      -1.228  -0.184  -4.466  0.00  0.00    -0.492 OA
BRANCH  35  37
ATOM     36  C   UNL     1      -2.210   1.499  -5.896  0.00  0.00    +0.048 C 
ATOM     37  C   UNL     1      -1.837   0.023  -5.742  0.00  0.00    +0.225 C 
ENDBRANCH  35  37
ENDBRANCH  29  35
ENDBRANCH  27  32
ENDBRANCH  25  27
ENDBRANCH  23  25
ENDBRANCH  21  23
ENDBRANCH   1  21
TORSDOF 11
