REMARK  Name = ZINC40720016
REMARK  13 active torsions:
REMARK  status: ('A' for Active; 'I' for Inactive)
REMARK    1  A    between atoms: C_1  and  O_2
REMARK    2  A    between atoms: O_2  and  C_3
REMARK    3  A    between atoms: C_5  and  C_20
REMARK    4  A    between atoms: C_8  and  O_9
REMARK    5  A    between atoms: O_9  and  C_10
REMARK    6  A    between atoms: C_10  and  C_11
REMARK    7  A    between atoms: C_20  and  N_21
REMARK    8  A    between atoms: N_21  and  C_22
REMARK    9  A    between atoms: C_22  and  C_23
REMARK   10  A    between atoms: C_23  and  N_24
REMARK   11  A    between atoms: N_24  and  C_25
REMARK   12  A    between atoms: C_25  and  C_26
REMARK   13  A    between atoms: C_26  and  O_27
REMARK                            x       y       z     vdW  Elec       q    Type
REMARK                         _______ _______ _______ _____ _____    ______ ____
ROOT
ATOM      1  C   UNL     1       0.626  -0.619   1.042  0.00  0.00    +0.163 A 
ATOM      2  C   UNL     1       1.202   0.137   2.051  0.00  0.00    +0.051 A 
ATOM      3  C   UNL     1       1.837  -0.489   3.108  0.00  0.00    -0.060 A 
ATOM      4  C   UNL     1       1.899  -1.869   3.161  0.00  0.00    +0.021 A 
ATOM      5  C   UNL     1       1.326  -2.630   2.158  0.00  0.00    +0.063 A 
ATOM      6  C   UNL     1       0.683  -2.008   1.099  0.00  0.00    +0.176 A 
ATOM      7 BR   UNL     1       1.414  -4.517   2.234  0.00  0.00    -0.046 Br
ENDROOT
BRANCH   1   9
ATOM      8  C   UNL     1      -0.017   1.425   0.010  0.00  0.00    +0.277 C 
ATOM      9  O   UNL     1       0.002  -0.004   0.002  0.00  0.00    -0.491 OA
ENDBRANCH   1   9
BRANCH   6  10
ATOM     10  O   UNL     1       0.114  -2.754   0.114  0.00  0.00    -0.483 OA
BRANCH  10  11
ATOM     11  C   UNL     1       0.939  -3.091  -1.003  0.00  0.00    +0.266 C 
BRANCH  11  12
ATOM     12  C   UNL     1       0.145  -3.913  -1.984  0.00  0.00    +0.008 A 
ATOM     13  C   UNL     1      -1.178  -4.217  -1.720  0.00  0.00    +0.011 A 
ATOM     14  C   UNL     1      -1.908  -4.971  -2.619  0.00  0.00    +0.039 A 
ATOM     15  C   UNL     1      -1.314  -5.423  -3.786  0.00  0.00    +0.125 A 
ATOM     16  C   UNL     1       0.010  -5.119  -4.051  0.00  0.00    +0.058 A 
ATOM     17  C   UNL     1       0.738  -4.359  -3.152  0.00  0.00    +0.050 A 
ATOM     18 CL   UNL     1       2.397  -3.973  -3.486  0.00  0.00    -0.083 Cl
ATOM     19  F   UNL     1      -2.027  -6.161  -4.665  0.00  0.00    -0.205 F 
ENDBRANCH  11  12
ENDBRANCH  10  11
ENDBRANCH   6  10
BRANCH   3  20
ATOM     20  C   UNL     1       2.463   0.335   4.203  0.00  0.00    -0.047 C 
BRANCH  20  21
ATOM     21  N   UNL     1       1.472   0.577   5.261  0.00  0.00    +0.383 N 
ATOM     22  H   UNL     1       0.683   1.073   4.876  0.00  0.00    -0.085 HD
ATOM     23  H   UNL     1       1.162  -0.306   5.639  0.00  0.00    -0.085 HD
BRANCH  21  24
ATOM     24  C   UNL     1       2.083   1.380   6.329  0.00  0.00    -0.067 C 
BRANCH  24  25
ATOM     25  C   UNL     1       1.051   1.631   7.431  0.00  0.00    +0.062 C 
BRANCH  25  26
ATOM     26  N   UNL     1       1.661   2.434   8.498  0.00  0.00    -0.316 NA
ATOM     27  H   UNL     1       2.492   1.988   8.857  0.00  0.00    +0.122 HD
BRANCH  26  28
ATOM     28  C   UNL     1       0.698   2.697   9.576  0.00  0.00    +0.108 C 
BRANCH  28  29
ATOM     29  C   UNL     1       1.369   3.533  10.667  0.00  0.00    +0.171 C 
BRANCH  29  30
ATOM     30  O   UNL     1       1.707   4.819  10.142  0.00  0.00    -0.394 OA
ATOM     31  H   UNL     1       2.137   5.404  10.780  0.00  0.00    +0.209 HD
ENDBRANCH  29  30
ENDBRANCH  28  29
ENDBRANCH  26  28
ENDBRANCH  25  26
ENDBRANCH  24  25
ENDBRANCH  21  24
ENDBRANCH  20  21
ENDBRANCH   3  20
TORSDOF 12
