REMARK  Name = ZINC43272926
REMARK  5 active torsions:
REMARK  status: ('A' for Active; 'I' for Inactive)
REMARK    1  A    between atoms: C_1  and  C_2
REMARK    2  A    between atoms: C_8  and  C_12
REMARK    3  A    between atoms: C_12  and  N_13
REMARK    4  A    between atoms: N_16  and  C_19
REMARK    5  A    between atoms: C_19  and  C_20
REMARK                            x       y       z     vdW  Elec       q    Type
REMARK                         _______ _______ _______ _____ _____    ______ ____
ROOT
ATOM      1  N   UNL     1       1.060  -6.615  -1.296  0.00  0.00    +0.385 N 
ATOM      2  C   UNL     1       2.308  -5.844  -1.363  0.00  0.00    -0.063 C 
ATOM      3  C   UNL     1       3.022  -6.141  -2.684  0.00  0.00    +0.066 C 
ATOM      4  N   UNL     1       3.309  -7.580  -2.769  0.00  0.00    -0.301 NA
ATOM      5  C   UNL     1       2.070  -8.366  -2.679  0.00  0.00    +0.066 C 
ATOM      6  C   UNL     1       1.365  -8.050  -1.358  0.00  0.00    -0.063 C 
ATOM      7  H   UNL     1       0.468  -6.363  -2.074  0.00  0.00    -0.081 HD
ENDROOT
BRANCH   1   8
ATOM      8  C   UNL     1       0.366  -6.315  -0.036  0.00  0.00    -0.022 C 
BRANCH   8  16
ATOM      9  C   UNL     1      -0.018   1.503   0.010  0.00  0.00    +0.075 C 
ATOM     10  C   UNL     1       0.002  -0.004   0.002  0.00  0.00    +0.099 A 
ATOM     11  N   UNL     1      -0.997  -0.834   0.002  0.00  0.00    -0.159 NA
ATOM     12  N   UNL     1      -0.801  -2.212  -0.007  0.00  0.00    -0.171 N 
ATOM     13  C   UNL     1      -1.762  -3.182  -0.009  0.00  0.00    +0.275 A 
ATOM     14  O   UNL     1      -2.943  -2.873  -0.002  0.00  0.00    -0.266 OA
ATOM     15  C   UNL     1      -1.391  -4.527  -0.018  0.00  0.00    +0.093 A 
ATOM     16  C   UNL     1      -0.055  -4.869  -0.026  0.00  0.00    +0.033 A 
ATOM     17  N   UNL     1       0.855  -3.898  -0.024  0.00  0.00    -0.228 NA
ATOM     18  C   UNL     1       0.499  -2.639  -0.015  0.00  0.00    +0.199 A 
ATOM     19  S   UNL     1       1.406  -1.108  -0.018  0.00  0.00    -0.033 S 
ENDBRANCH   8  16
ENDBRANCH   1   8
BRANCH   4  20
ATOM     20  C   UNL     1       4.045  -7.897  -4.000  0.00  0.00    +0.126 C 
BRANCH  20  21
ATOM     21  C   UNL     1       4.534  -9.322  -3.940  0.00  0.00    +0.005 A 
ATOM     22  C   UNL     1       3.919 -10.453  -4.361  0.00  0.00    +0.014 A 
ATOM     23  C   UNL     1       4.564 -11.666  -4.202  0.00  0.00    +0.028 A 
ATOM     24  C   UNL     1       5.794 -11.686  -3.630  0.00  0.00    +0.078 A 
ATOM     25  S   UNL     1       6.077  -9.954  -3.301  0.00  0.00    -0.080 S 
ATOM     26 CL   UNL     1       6.827 -13.043  -3.306  0.00  0.00    -0.076 Cl
ENDBRANCH  20  21
ENDBRANCH   4  20
TORSDOF 4
