REMARK  Name = ZINC13004574
REMARK  3 active torsions:
REMARK  status: ('A' for Active; 'I' for Inactive)
REMARK    1  A    between atoms: C_1  and  C_2
REMARK    2  A    between atoms: N_11  and  S_12
REMARK    3  A    between atoms: S_12  and  C_15
REMARK                            x       y       z     vdW  Elec       q    Type
REMARK                         _______ _______ _______ _____ _____    ______ ____
ROOT
ATOM      1  S   UNL     1       3.572  -0.137  -1.442  0.00  0.00    +0.062 S 
ATOM      2  O   UNL     1       4.721   0.563  -0.985  0.00  0.00    -0.153 OA
ATOM      3  O   UNL     1       3.564  -1.544  -1.636  0.00  0.00    -0.153 OA
ENDROOT
BRANCH   1   4
ATOM      4  C   UNL     1       3.120   0.587  -2.983  0.00  0.00    +0.109 A 
ATOM      5  C   UNL     1       3.613   1.831  -3.331  0.00  0.00    +0.032 A 
ATOM      6  C   UNL     1       3.263   2.405  -4.540  0.00  0.00    +0.051 A 
ATOM      7  C   UNL     1       2.416   1.730  -5.402  0.00  0.00    +0.162 A 
ATOM      8  C   UNL     1       1.921   0.481  -5.052  0.00  0.00    +0.164 A 
ATOM      9  C   UNL     1       2.278  -0.094  -3.844  0.00  0.00    +0.078 A 
ATOM     10  O   UNL     1       1.087  -0.177  -5.908  0.00  0.00    -0.488 OA
ATOM     11  C   UNL     1       1.676  -0.635  -7.127  0.00  0.00    +0.232 C 
ATOM     12  C   UNL     1       1.688   0.473  -8.169  0.00  0.00    +0.082 C 
ATOM     13  C   UNL     1       2.575   1.639  -7.763  0.00  0.00    +0.232 C 
ATOM     14  O   UNL     1       2.061   2.285  -6.596  0.00  0.00    -0.488 OA
ENDBRANCH   1   4
BRANCH   1  24
ATOM     15  C   UNL     1       3.602   2.263   0.092  0.00  0.00    +0.031 C 
ATOM     16  C   UNL     1       2.285   1.510   0.291  0.00  0.00    +0.107 C 
ATOM     17  C   UNL     1       2.046   1.271   1.780  0.00  0.00    -0.019 A 
ATOM     18  C   UNL     1       2.183   2.268   2.746  0.00  0.00    +0.013 A 
ATOM     19  C   UNL     1       1.949   1.985   4.048  0.00  0.00    +0.046 A 
ATOM     20  S   UNL     1       1.520   0.253   3.977  0.00  0.00    -0.101 S 
ATOM     21  C   UNL     1       1.678   0.038   2.224  0.00  0.00    -0.004 A 
ATOM     22  C   UNL     1       1.466  -1.202   1.417  0.00  0.00    +0.060 C 
ATOM     23  C   UNL     1       1.331  -0.810  -0.062  0.00  0.00    +0.115 C 
ATOM     24  N   UNL     1       2.356   0.199  -0.368  0.00  0.00    -0.169 NA
ENDBRANCH   1  24
TORSDOF 2
