REMARK  Name = ZINC39670205
REMARK  10 active torsions:
REMARK  status: ('A' for Active; 'I' for Inactive)
REMARK    1  A    between atoms: C_1  and  C_2
REMARK    2  A    between atoms: C_2  and  C_3
REMARK    3  A    between atoms: C_3  and  C_4
REMARK    4  A    between atoms: C_4  and  C_5
REMARK    5  A    between atoms: C_5  and  C_7
REMARK    6  A    between atoms: C_5  and  C_8
REMARK    7  A    between atoms: C_12  and  C_21
REMARK    8  A    between atoms: N_23  and  C_24
REMARK    9  A    between atoms: C_24  and  C_25
REMARK   10  A    between atoms: C_30  and  C_34
REMARK                            x       y       z     vdW  Elec       q    Type
REMARK                         _______ _______ _______ _____ _____    ______ ____
ROOT
ATOM      1  C   UNL     1       1.879  -3.937   2.212  0.00  0.00    +0.218 C 
ATOM      2  O   UNL     1       1.608  -4.583   1.222  0.00  0.00    -0.275 OA
ATOM      3  N   UNL     1       2.328  -4.559   3.321  0.00  0.00    -0.300 N 
ATOM      4  C   UNL     1       2.599  -3.962   4.650  0.00  0.00    +0.121 C 
ATOM      5  C   UNL     1       2.101  -5.019   5.661  0.00  0.00    +0.100 C 
ATOM      6  C   UNL     1       2.147  -6.350   4.892  0.00  0.00    -0.004 C 
ATOM      7  C   UNL     1       2.656  -5.995   3.487  0.00  0.00    +0.115 C 
ATOM      8  C   UNL     1       0.749  -6.956   4.802  0.00  0.00    -0.010 C 
ATOM      9  C   UNL     1       0.829  -8.306   4.083  0.00  0.00    -0.082 C 
ATOM     10  N   UNL     1       1.727  -9.203   4.821  0.00  0.00    +0.379 N 
ATOM     11  C   UNL     1       3.090  -8.657   4.822  0.00  0.00    -0.082 C 
ATOM     12  C   UNL     1       3.106  -7.322   5.572  0.00  0.00    -0.010 C 
ATOM     13  H   UNL     1       1.402  -9.295   5.771  0.00  0.00    -0.086 HD
ATOM     14  H   UNL     1       1.730 -10.110   4.379  0.00  0.00    -0.086 HD
ENDROOT
BRANCH   5  15
ATOM     15  C   UNL     1       0.692  -4.708   6.094  0.00  0.00    +0.219 C 
ATOM     16  O   UNL     1      -0.040  -4.072   5.366  0.00  0.00    -0.275 OA
ATOM     17  N   UNL     1       0.244  -5.137   7.291  0.00  0.00    -0.309 N 
ATOM     18  H   UNL     1       0.829  -5.646   7.873  0.00  0.00    +0.149 HD
BRANCH  17  19
ATOM     19  C   UNL     1      -1.126  -4.835   7.712  0.00  0.00    +0.159 C 
BRANCH  19  20
ATOM     20  C   UNL     1      -1.373  -5.423   9.077  0.00  0.00    +0.051 A 
ATOM     21  C   UNL     1      -1.933  -6.627   9.327  0.00  0.00    +0.115 A 
ATOM     22  N   UNL     1      -1.975  -6.779  10.686  0.00  0.00    -0.308 N 
ATOM     23  C   UNL     1      -2.430  -7.785  11.489  0.00  0.00    +0.093 A 
ATOM     24  C   UNL     1      -2.351  -7.681  12.832  0.00  0.00    +0.021 A 
ATOM     25  C   UNL     1      -1.799  -6.532  13.423  0.00  0.00    -0.046 A 
ATOM     26  C   UNL     1      -1.342  -5.522  12.634  0.00  0.00    +0.048 A 
ATOM     27  C   UNL     1      -1.431  -5.646  11.233  0.00  0.00    +0.116 A 
ATOM     28  N   UNL     1      -1.070  -4.844  10.241  0.00  0.00    -0.342 N 
ATOM     29  C   UNL     1      -1.714  -6.418  14.923  0.00  0.00    +0.044 C 
ATOM     30  H   UNL     1      -0.655  -3.974  10.345  0.00  0.00    +0.167 HD
ENDBRANCH  19  20
ENDBRANCH  17  19
ENDBRANCH   5  15
BRANCH   1  31
ATOM     31  C   UNL     1       1.713  -2.439   2.203  0.00  0.00    +0.072 C 
ATOM     32  C   UNL     1       0.506  -2.064   1.340  0.00  0.00    +0.017 C 
BRANCH  31  33
ATOM     33  C   UNL     1       2.973  -1.790   1.627  0.00  0.00    +0.012 C 
BRANCH  33  34
ATOM     34  C   UNL     1       2.857  -0.268   1.732  0.00  0.00    +0.000 C 
BRANCH  34  36
ATOM     35  C   UNL     1       4.001   1.902   1.262  0.00  0.00    +0.004 C 
ATOM     36  C   UNL     1       4.117   0.380   1.156  0.00  0.00    -0.003 C 
ENDBRANCH  34  36
ENDBRANCH  33  34
ENDBRANCH  31  33
ENDBRANCH   1  31
TORSDOF 7
