REMARK  Name = ZINC58835036
REMARK  10 active torsions:
REMARK  status: ('A' for Active; 'I' for Inactive)
REMARK    1  A    between atoms: C_1  and  C_2
REMARK    2  A    between atoms: C_5  and  C_12
REMARK    3  A    between atoms: C_7  and  N_8
REMARK    4  A    between atoms: C_9  and  C_11
REMARK    5  A    between atoms: N_14  and  N_15
REMARK    6  A    between atoms: N_15  and  C_16
REMARK    7  A    between atoms: C_16  and  N_18
REMARK    8  A    between atoms: N_18  and  C_19
REMARK    9  A    between atoms: C_19  and  C_20
REMARK   10  A    between atoms: C_20  and  C_21
REMARK                            x       y       z     vdW  Elec       q    Type
REMARK                         _______ _______ _______ _____ _____    ______ ____
ROOT
ATOM      1  C   UNL     1       0.085  -4.266  -0.011  0.00  0.00    +0.260 C 
ATOM      2  O   UNL     1       0.094  -4.879   1.039  0.00  0.00    -0.269 OA
ATOM      3  N   UNL     1       0.096  -4.934  -1.181  0.00  0.00    -0.231 N 
ATOM      4  H   UNL     1       0.088  -4.445  -2.019  0.00  0.00    +0.173 HD
ENDROOT
BRANCH   1   9
ATOM      5  C   UNL     1      -0.009   1.493   0.004  0.00  0.00    +0.045 C 
ATOM      6  C   UNL     1       0.015  -0.014   0.002  0.00  0.00    -0.029 A 
ATOM      7  C   UNL     1       0.027  -0.702  -1.198  0.00  0.00    +0.006 A 
ATOM      8  C   UNL     1       0.050  -2.081  -1.207  0.00  0.00    +0.013 A 
ATOM      9  C   UNL     1       0.061  -2.788  -0.003  0.00  0.00    +0.040 A 
ATOM     10  C   UNL     1       0.049  -2.094   1.207  0.00  0.00    +0.036 A 
ATOM     11  C   UNL     1       0.032  -0.708   1.206  0.00  0.00    +0.037 A 
BRANCH  11  12
ATOM     12  N   UNL     1       0.025  -0.007   2.417  0.00  0.00    -0.285 N 
ATOM     13  C   UNL     1      -0.632  -0.508   3.482  0.00  0.00    +0.214 C 
ATOM     14  O   UNL     1      -1.149  -1.604   3.415  0.00  0.00    -0.276 OA
ATOM     15  C   UNL     1      -0.725   0.292   4.755  0.00  0.00    +0.109 C 
ATOM     16  H   UNL     1       0.493   0.839   2.491  0.00  0.00    +0.155 HD
ENDBRANCH  11  12
ENDBRANCH   1   9
BRANCH   3  17
ATOM     17  N   UNL     1       0.118  -6.335  -1.188  0.00  0.00    -0.246 N 
ATOM     18  H   UNL     1       0.126  -6.824  -0.351  0.00  0.00    +0.172 HD
BRANCH  17  19
ATOM     19  C   UNL     1       0.130  -7.003  -2.359  0.00  0.00    +0.147 C 
ATOM     20  S   UNL     1       0.157  -8.714  -2.368  0.00  0.00    -0.017 S 
BRANCH  19  21
ATOM     21  N   UNL     1       0.119  -6.323  -3.523  0.00  0.00    -0.325 N 
ATOM     22  H   UNL     1       0.104  -5.353  -3.518  0.00  0.00    +0.148 HD
BRANCH  21  23
ATOM     23  C   UNL     1       0.132  -7.049  -4.795  0.00  0.00    +0.108 C 
BRANCH  23  24
ATOM     24  C   UNL     1       0.116  -6.049  -5.953  0.00  0.00    +0.061 C 
BRANCH  24  25
ATOM     25  C   UNL     1       0.129  -6.795  -7.262  0.00  0.00    -0.009 A 
ATOM     26  C   UNL     1      -0.917  -7.231  -8.007  0.00  0.00    +0.011 A 
ATOM     27  C   UNL     1      -0.665  -7.902  -9.188  0.00  0.00    +0.008 A 
ATOM     28  C   UNL     1       0.620  -8.105  -9.568  0.00  0.00    +0.045 A 
ATOM     29  S   UNL     1       1.525  -7.330  -8.238  0.00  0.00    -0.102 S 
ENDBRANCH  24  25
ENDBRANCH  23  24
ENDBRANCH  21  23
ENDBRANCH  19  21
ENDBRANCH  17  19
ENDBRANCH   3  17
TORSDOF 8
