REMARK  Name = ZINC27238329
REMARK  13 active torsions:
REMARK  status: ('A' for Active; 'I' for Inactive)
REMARK    1  A    between atoms: C_1  and  C_2
REMARK    2  A    between atoms: C_2  and  O_3
REMARK    3  A    between atoms: O_3  and  C_4
REMARK    4  A    between atoms: C_7  and  C_10
REMARK    5  A    between atoms: C_10  and  C_11
REMARK    6  A    between atoms: C_10  and  C_18
REMARK    7  A    between atoms: C_10  and  O_37
REMARK    8  A    between atoms: C_15  and  C_17
REMARK    9  A    between atoms: C_18  and  C_20
REMARK   10  A    between atoms: C_18  and  O_28
REMARK   11  A    between atoms: C_20  and  N_21
REMARK   12  A    between atoms: O_28  and  C_29
REMARK   13  A    between atoms: C_34  and  C_35
REMARK                            x       y       z     vdW  Elec       q    Type
REMARK                         _______ _______ _______ _____ _____    ______ ____
ROOT
ATOM      1  C   UNL     1      -2.752   5.037   4.367  0.00  0.00    +0.151 C 
ENDROOT
BRANCH   1   2
ATOM      2  C   UNL     1      -3.330   3.667   4.125  0.00  0.00    -0.008 A 
ATOM      3  C   UNL     1      -2.558   2.687   3.528  0.00  0.00    +0.007 A 
ATOM      4  C   UNL     1      -3.087   1.429   3.308  0.00  0.00    +0.001 A 
ATOM      5  C   UNL     1      -4.391   1.153   3.678  0.00  0.00    +0.003 A 
ATOM      6  C   UNL     1      -5.163   2.134   4.270  0.00  0.00    -0.050 A 
ATOM      7  C   UNL     1      -4.633   3.391   4.493  0.00  0.00    +0.010 A 
ATOM      8  C   UNL     1      -6.584   1.833   4.673  0.00  0.00    +0.044 C 
ENDBRANCH   1   2
BRANCH   1  12
ATOM      9  C   UNL     1       0.418   4.761   7.221  0.00  0.00    +0.121 A 
ATOM     10  C   UNL     1      -0.806   5.300   7.591  0.00  0.00    +0.046 A 
ATOM     11  C   UNL     1      -1.829   5.388   6.667  0.00  0.00    +0.010 A 
ATOM     12  C   UNL     1      -1.634   4.940   5.374  0.00  0.00    -0.008 A 
ATOM     13  C   UNL     1      -0.418   4.397   5.003  0.00  0.00    +0.010 A 
ATOM     14  C   UNL     1       0.610   4.312   5.922  0.00  0.00    +0.046 A 
BRANCH   9  15
ATOM     15  O   UNL     1       1.426   4.674   8.128  0.00  0.00    -0.492 OA
BRANCH  15  17
ATOM     16  C   UNL     1       3.664   4.093   8.828  0.00  0.00    +0.048 C 
ATOM     17  C   UNL     1       2.658   4.108   7.676  0.00  0.00    +0.225 C 
ENDBRANCH  15  17
ENDBRANCH   9  15
ENDBRANCH   1  12
BRANCH   1  18
ATOM     18  O   UNL     1      -3.772   5.902   4.871  0.00  0.00    -0.376 OA
ATOM     19  H   UNL     1      -4.673   6.096   4.271  0.00  0.00    +0.211 HD
ENDBRANCH   1  18
BRANCH   1  20
ATOM     20  C   UNL     1      -2.208   5.601   3.054  0.00  0.00    +0.198 C 
BRANCH  20  21
ATOM     21  C   UNL     1      -3.349   5.731   2.043  0.00  0.00    -0.030 C 
BRANCH  21  22
ATOM     22  N   UNL     1      -4.380   6.628   2.582  0.00  0.00    +0.382 N 
ATOM     23  C   UNL     1      -3.967   8.044   2.463  0.00  0.00    -0.079 C 
ATOM     24  C   UNL     1      -4.290   8.633   1.116  0.00  0.00    -0.019 C 
ATOM     25  C   UNL     1      -5.662   9.333   1.204  0.00  0.00    -0.002 C 
ATOM     26  C   UNL     1      -6.768   8.383   1.141  0.00  0.00    -0.002 C 
ATOM     27  C   UNL     1      -6.736   7.373   2.307  0.00  0.00    -0.019 C 
ATOM     28  C   UNL     1      -5.706   6.321   1.999  0.00  0.00    -0.079 C 
ATOM     29  H   UNL     1      -4.484   6.442   3.661  0.00  0.00    -0.082 HD
ENDBRANCH  21  22
ENDBRANCH  20  21
BRANCH  20  30
ATOM     30  O   UNL     1      -1.632   6.888   3.290  0.00  0.00    -0.487 OA
BRANCH  30  31
ATOM     31  C   UNL     1      -0.638   7.283   2.450  0.00  0.00    +0.124 A 
ATOM     32  C   UNL     1      -0.295   6.495   1.361  0.00  0.00    +0.047 A 
ATOM     33  C   UNL     1       0.712   6.900   0.507  0.00  0.00    +0.023 A 
ATOM     34  C   UNL     1       1.385   8.086   0.742  0.00  0.00    +0.041 A 
ATOM     35  C   UNL     1       1.047   8.871   1.830  0.00  0.00    +0.027 A 
ATOM     36  C   UNL     1       0.038   8.471   2.685  0.00  0.00    -0.007 A 
ATOM     37  C   UNL     1      -0.330   9.326   3.870  0.00  0.00    +0.047 C 
ATOM     38 CL   UNL     1       2.654   8.590  -0.330  0.00  0.00    -0.084 Cl
ENDBRANCH  30  31
ENDBRANCH  20  30
ENDBRANCH   1  20
TORSDOF 10
