REMARK  Name = ZINC09945831
REMARK  11 active torsions:
REMARK  status: ('A' for Active; 'I' for Inactive)
REMARK    1  A    between atoms: C_1  and  C_2
REMARK    2  A    between atoms: C_2  and  C_3
REMARK    3  A    between atoms: C_3  and  C_35
REMARK    4  A    between atoms: N_6  and  C_10
REMARK    5  A    between atoms: C_10  and  C_11
REMARK    6  A    between atoms: C_11  and  O_13
REMARK    7  A    between atoms: O_13  and  C_14
REMARK    8  A    between atoms: C_14  and  C_15
REMARK    9  A    between atoms: C_18  and  C_30
REMARK   10  A    between atoms: C_21  and  C_23
REMARK   11  A    between atoms: C_26  and  C_29
REMARK                            x       y       z     vdW  Elec       q    Type
REMARK                         _______ _______ _______ _____ _____    ______ ____
ROOT
ATOM      1  C   UNL     1       5.565  -3.676  -0.069  0.00  0.00    +0.273 C 
ATOM      2  O   UNL     1       6.750  -3.936  -0.081  0.00  0.00    -0.270 OA
ATOM      3  N   UNL     1       5.157  -2.392  -0.059  0.00  0.00    -0.179 N 
ATOM      4  C   UNL     1       6.039  -1.214  -0.061  0.00  0.00    +0.173 C 
ATOM      5  C   UNL     1       5.056  -0.027  -0.046  0.00  0.00    +0.090 C 
ATOM      6  C   UNL     1       3.693  -0.682  -0.036  0.00  0.00    +0.069 C 
ATOM      7  N   UNL     1       3.832  -1.963  -0.038  0.00  0.00    -0.181 NA
ENDROOT
BRANCH   6   8
ATOM      8  C   UNL     1       2.404   0.034  -0.021  0.00  0.00    -0.002 A 
ATOM      9  C   UNL     1       1.204  -0.681  -0.013  0.00  0.00    +0.010 A 
ATOM     10  C   UNL     1       0.002  -0.004   0.002  0.00  0.00    +0.004 A 
ATOM     11  C   UNL     1      -0.017   1.379   0.010  0.00  0.00    -0.050 A 
ATOM     12  C   UNL     1       1.168   2.094   0.002  0.00  0.00    +0.004 A 
ATOM     13  C   UNL     1       2.377   1.431  -0.013  0.00  0.00    +0.010 A 
ATOM     14  C   UNL     1      -1.334   2.111   0.020  0.00  0.00    +0.044 C 
ENDBRANCH   6   8
BRANCH   4  15
ATOM     15  C   UNL     1       6.907  -1.199   1.171  0.00  0.00    +0.128 A 
ATOM     16  C   UNL     1       8.171  -0.743   1.236  0.00  0.00    +0.046 A 
ATOM     17  C   UNL     1       8.601  -0.918   2.572  0.00  0.00    +0.041 A 
ATOM     18  C   UNL     1       7.574  -1.471   3.242  0.00  0.00    +0.195 A 
ATOM     19  O   UNL     1       6.549  -1.633   2.390  0.00  0.00    -0.466 OA
ENDBRANCH   4  15
BRANCH   1  20
ATOM     20  C   UNL     1       4.550  -4.790  -0.065  0.00  0.00    +0.329 C 
BRANCH  20  21
ATOM     21  O   UNL     1       5.234  -6.070  -0.078  0.00  0.00    -0.454 OA
BRANCH  21  22
ATOM     22  C   UNL     1       4.468  -7.171  -0.076  0.00  0.00    +0.326 C 
ATOM     23  O   UNL     1       3.264  -7.069  -0.065  0.00  0.00    -0.249 OA
BRANCH  22  24
ATOM     24  C   UNL     1       5.108  -8.536  -0.089  0.00  0.00    +0.238 C 
BRANCH  24  28
ATOM     25  C   UNL     1       2.498 -11.104  -0.712  0.00  0.00    +0.110 C 
ATOM     26  C   UNL     1       3.516 -10.091  -1.197  0.00  0.00    +0.247 C 
ATOM     27  O   UNL     1       3.781  -9.812  -2.347  0.00  0.00    -0.273 OA
ATOM     28  N   UNL     1       4.065  -9.565  -0.085  0.00  0.00    -0.213 N 
ATOM     29  C   UNL     1       3.545 -10.102   1.024  0.00  0.00    +0.310 C 
ATOM     30  O   UNL     1       3.884  -9.791   2.149  0.00  0.00    -0.252 OA
ATOM     31  N   UNL     1       2.602 -11.023   0.755  0.00  0.00    -0.285 N 
ATOM     32  C   UNL     1       2.858 -12.507  -1.204  0.00  0.00    +0.041 C 
ATOM     33  H   UNL     1       2.091 -11.536   1.401  0.00  0.00    +0.151 HD
BRANCH  25  35
ATOM     34  C   UNL     1       0.072 -11.684  -0.569  0.00  0.00    +0.006 C 
ATOM     35  C   UNL     1       1.092 -10.717  -1.174  0.00  0.00    +0.031 C 
ENDBRANCH  25  35
ENDBRANCH  24  28
ENDBRANCH  22  24
ENDBRANCH  21  22
ENDBRANCH  20  21
ENDBRANCH   1  20
TORSDOF 8
