REMARK  Name = ZINC42362400
REMARK  7 active torsions:
REMARK  status: ('A' for Active; 'I' for Inactive)
REMARK    1  A    between atoms: C_1  and  N_2
REMARK    2  A    between atoms: N_2  and  C_3
REMARK    3  A    between atoms: N_2  and  C_14
REMARK    4  A    between atoms: C_3  and  C_4
REMARK    5  A    between atoms: C_7  and  C_10
REMARK    6  A    between atoms: N_11  and  O_12
REMARK    7  A    between atoms: C_14  and  C_15
REMARK                            x       y       z     vdW  Elec       q    Type
REMARK                         _______ _______ _______ _____ _____    ______ ____
ROOT
ATOM      1  C   UNL     1      -0.059  -0.109   2.429  0.00  0.00    -0.064 A 
ATOM      2  C   UNL     1       0.191   1.101   3.051  0.00  0.00    +0.002 A 
ATOM      3  C   UNL     1      -0.513   1.456   4.184  0.00  0.00    +0.011 A 
ATOM      4  C   UNL     1      -1.478   0.592   4.702  0.00  0.00    +0.018 A 
ATOM      5  C   UNL     1      -1.725  -0.627   4.070  0.00  0.00    +0.011 A 
ATOM      6  C   UNL     1      -1.019  -0.968   2.934  0.00  0.00    +0.002 A 
ENDROOT
BRANCH   4   7
ATOM      7  C   UNL     1      -2.236   0.966   5.917  0.00  0.00    +0.162 C 
ATOM      8  N   UNL     1      -2.002   2.103   6.504  0.00  0.00    -0.072 NA
ATOM      9  N   UNL     1      -3.193   0.106   6.428  0.00  0.00    -0.340 N 
ATOM     10  H   UNL     1      -3.367  -0.742   5.990  0.00  0.00    +0.144 HD
ATOM     11  H   UNL     1      -3.689   0.352   7.224  0.00  0.00    +0.144 HD
BRANCH   8  12
ATOM     12  O   UNL     1      -2.727   2.461   7.667  0.00  0.00    -0.408 OA
ATOM     13  H   UNL     1      -2.484   3.323   8.031  0.00  0.00    +0.328 HD
ENDBRANCH   8  12
ENDBRANCH   4   7
BRANCH   1  14
ATOM     14  C   UNL     1       0.713  -0.491   1.192  0.00  0.00    -0.043 C 
BRANCH  14  16
ATOM     15  C   UNL     1      -0.018   1.465   0.010  0.00  0.00    -0.095 C 
ATOM     16  N   UNL     1       0.002  -0.004   0.002  0.00  0.00    +0.383 N 
ATOM     17  H   UNL     1      -0.945  -0.353   0.009  0.00  0.00    -0.081 HD
BRANCH  16  18
ATOM     18  C   UNL     1       0.690  -0.478  -1.207  0.00  0.00    -0.042 C 
BRANCH  18  19
ATOM     19  C   UNL     1      -0.106  -0.083  -2.424  0.00  0.00    -0.056 A 
ATOM     20  C   UNL     1      -1.081  -0.924  -2.928  0.00  0.00    +0.024 A 
ATOM     21  C   UNL     1      -1.778  -0.538  -4.025  0.00  0.00    +0.055 A 
ATOM     22  S   UNL     1      -1.057   1.056  -4.380  0.00  0.00    -0.090 S 
ATOM     23  C   UNL     1       0.121   1.103  -3.039  0.00  0.00    +0.048 A 
ATOM     24 BR   UNL     1      -3.156  -1.452  -4.943  0.00  0.00    -0.043 Br
ENDBRANCH  18  19
ENDBRANCH  16  18
ENDBRANCH  14  16
ENDBRANCH   1  14
TORSDOF 6
