REMARK  Name = ZINC23077152
REMARK  11 active torsions:
REMARK  status: ('A' for Active; 'I' for Inactive)
REMARK    1  A    between atoms: C_1  and  C_2
REMARK    2  A    between atoms: C_4  and  C_29
REMARK    3  A    between atoms: C_8  and  N_28
REMARK    4  A    between atoms: C_9  and  C_11
REMARK    5  A    between atoms: C_11  and  O_13
REMARK    6  A    between atoms: O_13  and  C_14
REMARK    7  A    between atoms: C_14  and  C_15
REMARK    8  A    between atoms: C_20  and  O_26
REMARK    9  A    between atoms: C_22  and  O_24
REMARK   10  A    between atoms: O_24  and  C_25
REMARK   11  A    between atoms: O_26  and  C_27
REMARK                            x       y       z     vdW  Elec       q    Type
REMARK                         _______ _______ _______ _____ _____    ______ ____
ROOT
ATOM      1  C   UNL     1       6.226  -4.743   7.495  0.00  0.00    +0.348 C 
ATOM      2  O   UNL     1       6.873  -5.311   6.635  0.00  0.00    -0.244 OA
ENDROOT
BRANCH   1  11
ATOM      3  C   UNL     1       9.550  -7.463  10.983  0.00  0.00    +0.044 C 
ATOM      4  C   UNL     1       8.523  -6.577  11.641  0.00  0.00    -0.037 A 
ATOM      5  C   UNL     1       8.455  -6.485  13.011  0.00  0.00    +0.025 A 
ATOM      6  C   UNL     1       7.509  -5.669  13.613  0.00  0.00    +0.014 A 
ATOM      7  N   UNL     1       6.663  -4.973  12.880  0.00  0.00    -0.353 N 
ATOM      8  C   UNL     1       6.688  -5.027  11.566  0.00  0.00    +0.088 A 
ATOM      9  C   UNL     1       7.613  -5.827  10.856  0.00  0.00    +0.030 A 
ATOM     10  C   UNL     1       7.494  -5.771   9.407  0.00  0.00    +0.055 A 
ATOM     11  C   UNL     1       6.524  -4.958   8.862  0.00  0.00    +0.119 A 
ATOM     12  S   UNL     1       5.728  -4.249  10.290  0.00  0.00    -0.062 S 
ATOM     13  C   UNL     1       7.447  -5.579  15.116  0.00  0.00    +0.063 C 
ATOM     14  H   UNL     1       5.915  -4.329  13.365  0.00  0.00    +0.166 HD
BRANCH  10  15
ATOM     15  N   UNL     1       8.338  -6.514   8.595  0.00  0.00    -0.356 N 
ATOM     16  H   UNL     1       8.236  -6.462   7.501  0.00  0.00    +0.142 HD
ATOM     17  H   UNL     1       9.109  -7.156   9.045  0.00  0.00    +0.142 HD
ENDBRANCH  10  15
ENDBRANCH   1  11
BRANCH   1  18
ATOM     18  O   UNL     1       5.226  -3.906   7.146  0.00  0.00    -0.451 OA
BRANCH  18  19
ATOM     19  C   UNL     1       4.981  -3.736   5.748  0.00  0.00    +0.328 C 
BRANCH  19  20
ATOM     20  C   UNL     1       3.838  -2.774   5.552  0.00  0.00    +0.257 C 
ATOM     21  O   UNL     1       3.287  -2.283   6.514  0.00  0.00    -0.272 OA
ATOM     22  N   UNL     1       3.427  -2.460   4.308  0.00  0.00    -0.252 N 
ATOM     23  C   UNL     1       2.373  -1.573   4.127  0.00  0.00    +0.228 A 
ATOM     24  N   UNL     1       1.783  -1.048   5.189  0.00  0.00    -0.179 NA
ATOM     25  C   UNL     1       0.772  -0.197   5.054  0.00  0.00    +0.223 A 
ATOM     26  C   UNL     1       0.339   0.143   3.777  0.00  0.00    +0.134 A 
ATOM     27  C   UNL     1       0.979  -0.433   2.686  0.00  0.00    +0.223 A 
ATOM     28  N   UNL     1       1.984  -1.277   2.897  0.00  0.00    -0.179 NA
ATOM     29  H   UNL     1       3.927  -2.905   3.435  0.00  0.00    +0.158 HD
BRANCH  27  30
ATOM     30  O   UNL     1       0.586  -0.135   1.424  0.00  0.00    -0.479 OA
ATOM     31  C   UNL     1       1.299  -0.764   0.357  0.00  0.00    +0.279 C 
ENDBRANCH  27  30
BRANCH  25  32
ATOM     32  O   UNL     1       0.173   0.337   6.147  0.00  0.00    -0.479 OA
ATOM     33  C   UNL     1       0.680  -0.059   7.423  0.00  0.00    +0.279 C 
ENDBRANCH  25  32
ENDBRANCH  19  20
ENDBRANCH  18  19
ENDBRANCH   1  18
TORSDOF 7
