REMARK  Name = ZINC65104091
REMARK  8 active torsions:
REMARK  status: ('A' for Active; 'I' for Inactive)
REMARK    1  A    between atoms: C_1  and  C_2
REMARK    2  A    between atoms: C_2  and  C_3
REMARK    3  A    between atoms: C_3  and  C_4
REMARK    4  A    between atoms: C_3  and  C_5
REMARK    5  A    between atoms: C_5  and  C_6
REMARK    6  A    between atoms: C_5  and  N_24
REMARK    7  A    between atoms: N_8  and  C_9
REMARK    8  A    between atoms: C_13  and  C_15
REMARK                            x       y       z     vdW  Elec       q    Type
REMARK                         _______ _______ _______ _____ _____    ______ ____
ROOT
ATOM      1  C   UNL     1      -2.997  -1.914   0.071  0.00  0.00    +0.238 C 
ATOM      2  O   UNL     1      -3.589  -1.830  -0.985  0.00  0.00    -0.273 OA
ATOM      3  N   UNL     1      -3.627  -2.399   1.159  0.00  0.00    -0.284 N 
ATOM      4  H   UNL     1      -3.135  -2.532   1.985  0.00  0.00    +0.155 HD
ENDROOT
BRANCH   3   5
ATOM      5  C   UNL     1      -4.990  -2.710   1.099  0.00  0.00    +0.034 A 
ATOM      6  C   UNL     1      -5.532  -3.236  -0.068  0.00  0.00    +0.023 A 
ATOM      7  C   UNL     1      -6.877  -3.544  -0.131  0.00  0.00    +0.002 A 
ATOM      8  C   UNL     1      -7.691  -3.331   0.964  0.00  0.00    +0.010 A 
ATOM      9  C   UNL     1      -7.156  -2.804   2.138  0.00  0.00    +0.001 A 
ATOM     10  C   UNL     1      -5.799  -2.498   2.204  0.00  0.00    +0.033 A 
BRANCH   9  11
ATOM     11  C   UNL     1      -8.030  -2.574   3.315  0.00  0.00    +0.064 A 
ATOM     12  C   UNL     1      -7.641  -2.062   4.514  0.00  0.00    +0.113 A 
ATOM     13  N   UNL     1      -8.753  -2.023   5.298  0.00  0.00    -0.335 N 
ATOM     14  C   UNL     1      -9.787  -2.509   4.569  0.00  0.00    +0.087 A 
ATOM     15  N   UNL     1      -9.353  -2.829   3.386  0.00  0.00    -0.343 N 
ATOM     16  C   UNL     1     -11.200  -2.632   5.088  0.00  0.00    +0.072 C 
ATOM     17  C   UNL     1     -11.163  -2.514   6.617  0.00  0.00    +0.009 C 
ATOM     18  C   UNL     1     -10.329  -1.289   7.007  0.00  0.00    +0.022 C 
ATOM     19  C   UNL     1      -8.855  -1.550   6.681  0.00  0.00    +0.123 C 
ATOM     20  H   UNL     1      -9.894  -3.196   2.670  0.00  0.00    +0.167 HD
ENDBRANCH   9  11
ENDBRANCH   3   5
BRANCH   1  21
ATOM     21  C   UNL     1      -1.558  -1.476   0.165  0.00  0.00    +0.163 C 
BRANCH  21  22
ATOM     22  N   UNL     1      -0.967  -1.450  -1.175  0.00  0.00    -0.288 N 
ATOM     23  C   UNL     1      -0.522  -2.591  -1.738  0.00  0.00    +0.298 C 
ATOM     24  O   UNL     1      -0.694  -3.654  -1.174  0.00  0.00    -0.253 OA
ATOM     25  N   UNL     1       0.112  -2.553  -2.926  0.00  0.00    -0.313 N 
ATOM     26  H   UNL     1      -0.896  -0.611  -1.657  0.00  0.00    +0.151 HD
ATOM     27  H   UNL     1       0.249  -1.704  -3.376  0.00  0.00    +0.146 HD
ATOM     28  H   UNL     1       0.432  -3.374  -3.332  0.00  0.00    +0.146 HD
ENDBRANCH  21  22
BRANCH  21  29
ATOM     29  C   UNL     1      -1.490  -0.077   0.780  0.00  0.00    +0.015 C 
ATOM     30  C   UNL     1      -2.247   0.909  -0.111  0.00  0.00    +0.010 C 
BRANCH  29  32
ATOM     31  C   UNL     1       0.048   1.702   1.625  0.00  0.00    +0.004 C 
ATOM     32  C   UNL     1      -0.028   0.358   0.897  0.00  0.00    +0.002 C 
ENDBRANCH  29  32
ENDBRANCH  21  29
ENDBRANCH   1  21
TORSDOF 6
