REMARK  Name = ZINC36788268
REMARK  6 active torsions:
REMARK  status: ('A' for Active; 'I' for Inactive)
REMARK    1  A    between atoms: C_5  and  C_7
REMARK    2  A    between atoms: C_10  and  C_12
REMARK    3  A    between atoms: C_12  and  S_13
REMARK    4  A    between atoms: S_13  and  C_14
REMARK    5  A    between atoms: C_17  and  C_20
REMARK    6  A    between atoms: N_18  and  N_19
REMARK                            x       y       z     vdW  Elec       q    Type
REMARK                         _______ _______ _______ _____ _____    ______ ____
ROOT
ATOM      1  C   UNL     1      -1.355  -7.539   1.496  0.00  0.00    +0.209 A 
ATOM      2  N   UNL     1      -1.856  -8.014   0.378  0.00  0.00    -0.121 NA
ATOM      3  N   UNL     1      -2.578  -9.049   0.622  0.00  0.00    -0.127 NA
ATOM      4  C   UNL     1      -2.583  -9.297   1.911  0.00  0.00    +0.183 A 
ATOM      5  N   UNL     1      -1.795  -8.342   2.510  0.00  0.00    -0.224 N 
ENDROOT
BRANCH   4   6
ATOM      6  C   UNL     1      -3.296 -10.400   2.590  0.00  0.00    +0.039 A 
ATOM      7  C   UNL     1      -4.059 -10.144   3.731  0.00  0.00    +0.014 A 
ATOM      8  C   UNL     1      -4.722 -11.177   4.360  0.00  0.00    +0.021 A 
ATOM      9  C   UNL     1      -4.633 -12.466   3.863  0.00  0.00    +0.042 A 
ATOM     10  C   UNL     1      -3.878 -12.727   2.732  0.00  0.00    +0.040 A 
ATOM     11  C   UNL     1      -3.214 -11.701   2.090  0.00  0.00    +0.053 A 
ATOM     12 CL   UNL     1      -2.274 -12.029   0.667  0.00  0.00    -0.083 Cl
ATOM     13 CL   UNL     1      -5.470 -13.760   4.661  0.00  0.00    -0.083 Cl
ENDBRANCH   4   6
BRANCH   5  14
ATOM     14  N   UNL     1      -1.514  -8.219   3.841  0.00  0.00    -0.295 N 
ATOM     15  H   UNL     1      -2.240  -7.706   4.318  0.00  0.00    +0.163 HD
ATOM     16  H   UNL     1      -1.372  -9.124   4.265  0.00  0.00    +0.163 HD
ENDBRANCH   5  14
BRANCH   1  17
ATOM     17  S   UNL     1      -0.305  -6.133   1.656  0.00  0.00    -0.075 S 
BRANCH  17  18
ATOM     18  C   UNL     1      -0.112  -5.533  -0.045  0.00  0.00    +0.175 C 
BRANCH  18  22
ATOM     19  C   UNL     1       1.488  -2.282   0.015  0.00  0.00    +0.249 A 
ATOM     20  N   UNL     1       2.505  -3.098  -0.136  0.00  0.00    -0.107 NA
ATOM     21  N   UNL     1       2.074  -4.310  -0.175  0.00  0.00    -0.111 NA
ATOM     22  C   UNL     1       0.776  -4.316  -0.050  0.00  0.00    +0.228 A 
ATOM     23  O   UNL     1       0.374  -3.039   0.078  0.00  0.00    -0.419 OA
BRANCH  19  28
ATOM     24  C   UNL     1       0.451   1.311   0.359  0.00  0.00    +0.001 A 
ATOM     25  C   UNL     1       1.673   1.954   0.278  0.00  0.00    +0.001 A 
ATOM     26  C   UNL     1       2.836   1.223   0.112  0.00  0.00    +0.016 A 
ATOM     27  C   UNL     1       2.783  -0.154   0.026  0.00  0.00    +0.030 A 
ATOM     28  C   UNL     1       1.552  -0.808   0.107  0.00  0.00    +0.052 A 
ATOM     29  C   UNL     1       0.384  -0.065   0.275  0.00  0.00    +0.014 A 
ATOM     30 BR   UNL     1       4.374  -1.151  -0.202  0.00  0.00    -0.050 Br
ENDBRANCH  19  28
ENDBRANCH  18  22
ENDBRANCH  17  18
ENDBRANCH   1  17
TORSDOF 6
