REMARK  Name = ZINC08972158
REMARK  5 active torsions:
REMARK  status: ('A' for Active; 'I' for Inactive)
REMARK    1  A    between atoms: C_2  and  C_3
REMARK    2  A    between atoms: C_3  and  N_4
REMARK    3  A    between atoms: C_9  and  C_25
REMARK    4  A    between atoms: C_25  and  C_26
REMARK    5  A    between atoms: C_26  and  C_27
REMARK                            x       y       z     vdW  Elec       q    Type
REMARK                         _______ _______ _______ _____ _____    ______ ____
ROOT
ATOM      1  N   UNL     1       1.062   4.735  -1.748  0.00  0.00    -0.238 N 
ATOM      2  C   UNL     1       1.847   4.000  -0.895  0.00  0.00    +0.224 C 
ATOM      3  O   UNL     1       2.690   4.413  -0.128  0.00  0.00    -0.275 OA
ATOM      4  C   UNL     1       1.436   2.579  -1.119  0.00  0.00    +0.073 C 
ATOM      5  C   UNL     1       1.377   1.560  -0.003  0.00  0.00    -0.057 C 
ATOM      6  C   UNL     1      -0.695   1.540  -1.217  0.00  0.00    +0.050 C 
ATOM      7  C   UNL     1      -0.099   2.872  -1.329  0.00  0.00    +0.088 C 
ATOM      8  C   UNL     1      -0.049   4.042  -2.168  0.00  0.00    +0.225 C 
ATOM      9  O   UNL     1      -0.819   4.349  -3.053  0.00  0.00    -0.275 OA
ATOM     10  C   UNL     1      -0.466   0.620  -2.381  0.00  0.00    -0.028 A 
ATOM     11  C   UNL     1       0.660   0.208  -3.061  0.00  0.00    +0.004 A 
ATOM     12  C   UNL     1       0.549  -0.668  -4.125  0.00  0.00    +0.000 A 
ATOM     13  C   UNL     1      -0.697  -1.133  -4.506  0.00  0.00    +0.002 A 
ATOM     14  C   UNL     1      -1.828  -0.726  -3.829  0.00  0.00    +0.023 A 
ATOM     15  C   UNL     1      -1.723   0.157  -2.756  0.00  0.00    +0.036 A 
ATOM     16  N   UNL     1      -2.706   0.704  -1.929  0.00  0.00    -0.286 N 
ATOM     17  C   UNL     1      -2.186   1.526  -0.999  0.00  0.00    +0.211 C 
ATOM     18  O   UNL     1      -2.800   2.138  -0.150  0.00  0.00    -0.277 OA
ATOM     19  H   UNL     1      -3.653   0.513  -2.014  0.00  0.00    +0.155 HD
ATOM     20  N   UNL     1      -0.004   1.017  -0.007  0.00  0.00    +0.394 N 
ATOM     21  H   UNL     1      -0.501   1.322   0.839  0.00  0.00    -0.083 HD
ATOM     22  H   UNL     1       0.025  -0.009  -0.036  0.00  0.00    -0.083 HD
ENDROOT
BRANCH   1  23
ATOM     23  C   UNL     1       1.374   6.104  -2.166  0.00  0.00    +0.143 C 
BRANCH  23  25
ATOM     24  C   UNL     1       1.826   6.721  -4.485  0.00  0.00    +0.005 C 
ATOM     25  C   UNL     1       2.213   6.069  -3.417  0.00  0.00    -0.015 C 
ENDBRANCH  23  25
ENDBRANCH   1  23
BRANCH   5  26
ATOM     26  C   UNL     1       2.385   0.439  -0.265  0.00  0.00    -0.006 C 
BRANCH  26  27
ATOM     27  C   UNL     1       2.386  -0.532   0.917  0.00  0.00    +0.094 C 
BRANCH  27  28
ATOM     28  C   UNL     1       3.380  -1.636   0.659  0.00  0.00    +0.210 C 
ATOM     29  O   UNL     1       4.023  -1.645  -0.369  0.00  0.00    -0.276 OA
ATOM     30  N   UNL     1       3.553  -2.614   1.571  0.00  0.00    -0.329 N 
ATOM     31  H   UNL     1       3.038  -2.607   2.393  0.00  0.00    +0.145 HD
ATOM     32  H   UNL     1       4.192  -3.324   1.405  0.00  0.00    +0.145 HD
ENDBRANCH  27  28
ENDBRANCH  26  27
ENDBRANCH   5  26
TORSDOF 5
