REMARK  Name = ZINC40706323
REMARK  11 active torsions:
REMARK  status: ('A' for Active; 'I' for Inactive)
REMARK    1  A    between atoms: C_1  and  C_2
REMARK    2  A    between atoms: C_2  and  C_3
REMARK    3  A    between atoms: C_2  and  C_4
REMARK    4  A    between atoms: C_7  and  N_10
REMARK    5  A    between atoms: C_12  and  N_29
REMARK    6  A    between atoms: C_13  and  N_17
REMARK    7  A    between atoms: N_17  and  C_18
REMARK    8  A    between atoms: N_17  and  C_19
REMARK    9  A    between atoms: C_24  and  C_25
REMARK   10  A    between atoms: C_25  and  O_27
REMARK   11  A    between atoms: O_27  and  C_28
REMARK                            x       y       z     vdW  Elec       q    Type
REMARK                         _______ _______ _______ _____ _____    ______ ____
ROOT
ATOM      1  N   UNL     1      -5.333  -1.918   0.016  0.00  0.00    -0.299 N 
ATOM      2  C   UNL     1      -5.810  -2.660  -1.058  0.00  0.00    +0.126 A 
ATOM      3  C   UNL     1      -7.149  -3.057  -1.107  0.00  0.00    +0.104 A 
ATOM      4  C   UNL     1      -7.576  -3.800  -2.209  0.00  0.00    +0.151 A 
ATOM      5  N   UNL     1      -6.698  -4.099  -3.164  0.00  0.00    -0.220 NA
ATOM      6  C   UNL     1      -5.444  -3.705  -3.079  0.00  0.00    +0.200 A 
ATOM      7  N   UNL     1      -5.001  -2.998  -2.059  0.00  0.00    -0.333 N 
ATOM      8  H   UNL     1      -5.902  -1.755   0.784  0.00  0.00    +0.154 HD
ATOM      9  H   UNL     1      -4.071  -2.724  -2.035  0.00  0.00    +0.168 HD
ENDROOT
BRANCH   1  13
ATOM     10  C   UNL     1      -1.457  -0.397  -0.062  0.00  0.00    -0.045 A 
ATOM     11  C   UNL     1      -2.232  -0.370  -1.207  0.00  0.00    +0.006 A 
ATOM     12  C   UNL     1      -3.518  -0.874  -1.185  0.00  0.00    +0.023 A 
ATOM     13  C   UNL     1      -4.032  -1.408  -0.010  0.00  0.00    +0.032 A 
ATOM     14  C   UNL     1      -3.251  -1.433   1.139  0.00  0.00    +0.023 A 
ATOM     15  C   UNL     1      -1.964  -0.933   1.108  0.00  0.00    +0.006 A 
BRANCH  10  17
ATOM     16  C   UNL     1       0.774  -0.613  -1.123  0.00  0.00    +0.012 C 
ATOM     17  C   UNL     1      -0.055   0.154  -0.090  0.00  0.00    +0.013 C 
ATOM     18  C   UNL     1      -0.096   1.636  -0.469  0.00  0.00    +0.012 C 
ENDBRANCH  10  17
ENDBRANCH   1  13
BRANCH   3  19
ATOM     19  N   UNL     1      -8.039  -2.718  -0.077  0.00  0.00    -0.353 N 
ATOM     20  H   UNL     1      -7.747  -2.144   0.648  0.00  0.00    +0.143 HD
ATOM     21  H   UNL     1      -8.947  -3.059  -0.089  0.00  0.00    +0.143 HD
ENDBRANCH   3  19
BRANCH   4  22
ATOM     22  N   UNL     1      -8.898  -4.221  -2.308  0.00  0.00    -0.286 N 
ATOM     23  C   UNL     1      -9.917  -3.315  -2.844  0.00  0.00    +0.137 C 
BRANCH  22  24
ATOM     24  C   UNL     1      -9.252  -5.500  -1.897  0.00  0.00    +0.049 A 
ATOM     25  C   UNL     1      -9.650  -5.728  -0.586  0.00  0.00    +0.024 A 
ATOM     26  C   UNL     1     -10.001  -6.999  -0.180  0.00  0.00    +0.002 A 
ATOM     27  C   UNL     1      -9.960  -8.057  -1.075  0.00  0.00    +0.001 A 
ATOM     28  C   UNL     1      -9.569  -7.852  -2.379  0.00  0.00    +0.017 A 
ATOM     29  C   UNL     1      -9.215  -6.569  -2.807  0.00  0.00    +0.080 A 
BRANCH  29  30
ATOM     30  C   UNL     1      -8.800  -6.340  -4.202  0.00  0.00    +0.341 C 
ATOM     31  O   UNL     1      -8.489  -5.225  -4.569  0.00  0.00    -0.245 OA
BRANCH  30  32
ATOM     32  O   UNL     1      -8.767  -7.369  -5.072  0.00  0.00    -0.464 OA
ATOM     33  C   UNL     1      -8.355  -7.076  -6.408  0.00  0.00    +0.280 C 
ENDBRANCH  30  32
ENDBRANCH  29  30
ENDBRANCH  22  24
ENDBRANCH   4  22
TORSDOF 7
