REMARK  Name = ZINC19961946
REMARK  6 active torsions:
REMARK  status: ('A' for Active; 'I' for Inactive)
REMARK    1  A    between atoms: C_5  and  N_7
REMARK    2  A    between atoms: N_10  and  C_13
REMARK    3  A    between atoms: C_13  and  C_14
REMARK    4  A    between atoms: C_22  and  C_24
REMARK    5  A    between atoms: C_24  and  C_25
REMARK    6  A    between atoms: N_27  and  C_28
REMARK                            x       y       z     vdW  Elec       q    Type
REMARK                         _______ _______ _______ _____ _____    ______ ____
ROOT
ATOM      1  C   UNL     1       0.078   1.031   0.180  0.00  0.00    +0.200 C 
ATOM      2  O   UNL     1       0.011  -0.179   0.141  0.00  0.00    -0.278 OA
ATOM      3  N   UNL     1      -1.049   1.769   0.154  0.00  0.00    -0.289 N 
ATOM      4  C   UNL     1      -1.011   3.232   0.325  0.00  0.00    +0.127 C 
ATOM      5  C   UNL     1      -1.569   3.871  -0.954  0.00  0.00    +0.123 C 
ATOM      6  N   UNL     1      -2.806   3.219  -1.360  0.00  0.00    -0.312 N 
ATOM      7  C   UNL     1      -3.166   1.986  -0.999  0.00  0.00    +0.234 C 
ATOM      8  O   UNL     1      -4.184   1.521  -1.465  0.00  0.00    -0.274 OA
ATOM      9  C   UNL     1      -2.367   1.147  -0.040  0.00  0.00    +0.170 C 
ATOM     10  H   UNL     1      -3.519   3.748  -2.009  0.00  0.00    +0.149 HD
ENDROOT
BRANCH   1  11
ATOM     11  C   UNL     1       1.422   1.710   0.250  0.00  0.00    +0.019 C 
BRANCH  11  15
ATOM     12  N   UNL     1       4.825  -0.583   1.255  0.00  0.00    -0.331 N 
ATOM     13  C   UNL     1       4.873   0.218   0.024  0.00  0.00    +0.086 C 
ATOM     14  C   UNL     1       3.806   1.313   0.089  0.00  0.00    -0.059 C 
ATOM     15  N   UNL     1       2.484   0.694   0.260  0.00  0.00    +0.387 N 
ATOM     16  C   UNL     1       2.435  -0.107   1.490  0.00  0.00    -0.059 C 
ATOM     17  C   UNL     1       3.503  -1.201   1.426  0.00  0.00    +0.086 C 
ATOM     18  H   UNL     1       2.312   0.019  -0.592  0.00  0.00    -0.081 HD
BRANCH  12  23
ATOM     19  C   UNL     1       6.883  -3.469   0.279  0.00  0.00    +0.002 A 
ATOM     20  C   UNL     1       7.835  -3.464   1.282  0.00  0.00    +0.003 A 
ATOM     21  C   UNL     1       7.791  -2.505   2.277  0.00  0.00    +0.040 A 
ATOM     22  C   UNL     1       6.794  -1.547   2.272  0.00  0.00    +0.144 A 
ATOM     23  C   UNL     1       5.836  -1.549   1.264  0.00  0.00    +0.065 A 
ATOM     24  C   UNL     1       5.881  -2.517   0.270  0.00  0.00    +0.026 A 
ATOM     25  F   UNL     1       6.750  -0.611   3.245  0.00  0.00    -0.204 F 
ENDBRANCH  12  23
ENDBRANCH  11  15
ENDBRANCH   1  11
BRANCH   9  26
ATOM     26  C   UNL     1      -2.190  -0.260  -0.615  0.00  0.00    +0.128 C 
BRANCH  26  27
ATOM     27  C   UNL     1      -1.433  -0.179  -1.916  0.00  0.00    +0.219 C 
ATOM     28  O   UNL     1      -1.007   0.888  -2.304  0.00  0.00    -0.275 OA
ATOM     29  N   UNL     1      -1.230  -1.292  -2.647  0.00  0.00    -0.285 N 
ATOM     30  H   UNL     1      -1.538  -2.272  -2.254  0.00  0.00    +0.155 HD
BRANCH  29  31
ATOM     31  C   UNL     1      -0.626  -1.202  -3.906  0.00  0.00    +0.036 A 
ATOM     32  C   UNL     1      -0.744  -0.036  -4.651  0.00  0.00    +0.043 A 
ATOM     33  C   UNL     1      -0.142   0.053  -5.893  0.00  0.00    +0.044 A 
ATOM     34  C   UNL     1       0.567  -1.022  -6.398  0.00  0.00    +0.040 A 
ATOM     35  C   UNL     1       0.681  -2.187  -5.660  0.00  0.00    +0.044 A 
ATOM     36  C   UNL     1       0.086  -2.279  -4.416  0.00  0.00    +0.043 A 
ATOM     37 CL   UNL     1       1.571  -3.534  -6.297  0.00  0.00    -0.083 Cl
ATOM     38 CL   UNL     1      -0.282   1.513  -6.822  0.00  0.00    -0.083 Cl
ENDBRANCH  29  31
ENDBRANCH  26  27
ENDBRANCH   9  26
TORSDOF 6
