REMARK  Name = ZINC67487932
REMARK  8 active torsions:
REMARK  status: ('A' for Active; 'I' for Inactive)
REMARK    1  A    between atoms: C_1  and  C_2
REMARK    2  A    between atoms: C_5  and  N_9
REMARK    3  A    between atoms: N_12  and  C_13
REMARK    4  A    between atoms: C_13  and  C_14
REMARK    5  A    between atoms: C_14  and  C_16
REMARK    6  A    between atoms: C_14  and  O_24
REMARK    7  A    between atoms: C_16  and  N_17
REMARK    8  A    between atoms: C_20  and  C_23
REMARK                            x       y       z     vdW  Elec       q    Type
REMARK                         _______ _______ _______ _____ _____    ______ ____
ROOT
ATOM      1  N   UNL     1       0.496  -4.231  -0.008  0.00  0.00    -0.268 N 
ATOM      2  C   UNL     1       0.303  -4.882  -1.172  0.00  0.00    +0.304 C 
ATOM      3  O   UNL     1       0.268  -4.261  -2.217  0.00  0.00    -0.253 OA
ATOM      4  N   UNL     1       0.150  -6.221  -1.179  0.00  0.00    -0.297 N 
ATOM      5  H   UNL     1       0.603  -4.733   0.816  0.00  0.00    +0.156 HD
ATOM      6  H   UNL     1       0.179  -6.716  -0.346  0.00  0.00    +0.150 HD
ENDROOT
BRANCH   1  11
ATOM      7  C   UNL     1       0.678   1.439   0.078  0.00  0.00    +0.044 C 
ATOM      8  C   UNL     1       0.630  -0.067   0.056  0.00  0.00    -0.049 A 
ATOM      9  C   UNL     1      -0.041  -0.721  -0.962  0.00  0.00    +0.005 A 
ATOM     10  C   UNL     1      -0.087  -2.101  -0.986  0.00  0.00    +0.025 A 
ATOM     11  C   UNL     1       0.541  -2.833   0.013  0.00  0.00    +0.049 A 
ATOM     12  C   UNL     1       1.214  -2.173   1.034  0.00  0.00    +0.039 A 
ATOM     13  C   UNL     1       1.261  -0.792   1.049  0.00  0.00    +0.020 A 
ATOM     14 BR   UNL     1       2.072  -3.164   2.397  0.00  0.00    -0.048 Br
ENDBRANCH   1  11
BRANCH   4  15
ATOM     15  C   UNL     1      -0.059  -6.928  -2.445  0.00  0.00    +0.135 C 
BRANCH  15  16
ATOM     16  C   UNL     1      -0.202  -8.427  -2.175  0.00  0.00    +0.115 C 
BRANCH  16  17
ATOM     17  O   UNL     1      -1.386  -8.662  -1.410  0.00  0.00    -0.392 OA
ATOM     18  H   UNL     1      -2.199  -8.372  -1.845  0.00  0.00    +0.210 HD
ENDBRANCH  16  17
BRANCH  16  19
ATOM     19  C   UNL     1      -0.295  -9.179  -3.504  0.00  0.00    -0.046 C 
BRANCH  19  20
ATOM     20  N   UNL     1      -0.491 -10.611  -3.244  0.00  0.00    +0.381 N 
ATOM     21  C   UNL     1      -0.726 -11.310  -4.513  0.00  0.00    -0.078 C 
ATOM     22  C   UNL     1      -1.011 -12.788  -4.241  0.00  0.00    -0.016 C 
ATOM     23  C   UNL     1       0.192 -13.412  -3.528  0.00  0.00    -0.018 C 
ATOM     24  C   UNL     1       0.473 -12.629  -2.242  0.00  0.00    -0.016 C 
ATOM     25  C   UNL     1       0.704 -11.156  -2.588  0.00  0.00    -0.078 C 
ATOM     26  C   UNL     1      -0.118 -14.870  -3.182  0.00  0.00    +0.007 C 
ATOM     27  H   UNL     1      -1.291 -10.736  -2.641  0.00  0.00    -0.082 HD
ENDBRANCH  19  20
ENDBRANCH  16  19
ENDBRANCH  15  16
ENDBRANCH   4  15
TORSDOF 6
