REMARK  Name = ZINC22679028
REMARK  5 active torsions:
REMARK  status: ('A' for Active; 'I' for Inactive)
REMARK    1  A    between atoms: C_6  and  N_7
REMARK    2  A    between atoms: N_10  and  C_11
REMARK    3  A    between atoms: C_11  and  C_12
REMARK    4  A    between atoms: C_12  and  C_14
REMARK    5  A    between atoms: C_12  and  N_19
REMARK                            x       y       z     vdW  Elec       q    Type
REMARK                         _______ _______ _______ _____ _____    ______ ____
ROOT
ATOM      1  N   UNL     1       3.938  -1.616   1.017  0.00  0.00    -0.269 N 
ATOM      2  C   UNL     1       4.830  -0.721   0.549  0.00  0.00    +0.304 C 
ATOM      3  O   UNL     1       4.497   0.434   0.373  0.00  0.00    -0.253 OA
ATOM      4  N   UNL     1       6.092  -1.108   0.277  0.00  0.00    -0.300 N 
ATOM      5  H   UNL     1       4.257  -2.644   1.246  0.00  0.00    +0.156 HD
ATOM      6  H   UNL     1       6.394  -2.153   0.437  0.00  0.00    +0.150 HD
ENDROOT
BRANCH   1  12
ATOM      7  C   UNL     1       2.018  -0.300   0.374  0.00  0.00    +0.025 A 
ATOM      8  C   UNL     1       0.701   0.071   0.568  0.00  0.00    +0.023 A 
ATOM      9  C   UNL     1      -0.034  -0.491   1.596  0.00  0.00    +0.059 A 
ATOM     10  C   UNL     1       0.548  -1.428   2.434  0.00  0.00    +0.061 A 
ATOM     11  C   UNL     1       1.865  -1.802   2.244  0.00  0.00    +0.044 A 
ATOM     12  C   UNL     1       2.604  -1.238   1.212  0.00  0.00    +0.036 A 
ATOM     13 CL   UNL     1      -0.376  -2.131   3.724  0.00  0.00    -0.082 Cl
ATOM     14 CL   UNL     1      -1.685  -0.017   1.841  0.00  0.00    -0.082 Cl
ENDBRANCH   1  12
BRANCH   4  15
ATOM     15  C   UNL     1       7.062  -0.135  -0.232  0.00  0.00    +0.095 C 
BRANCH  15  16
ATOM     16  C   UNL     1       8.353  -0.858  -0.621  0.00  0.00    -0.020 C 
BRANCH  16  17
ATOM     17  N   UNL     1       8.082  -1.779  -1.733  0.00  0.00    +0.385 N 
ATOM     18  C   UNL     1       9.345  -2.326  -2.291  0.00  0.00    -0.078 C 
ATOM     19  C   UNL     1       8.881  -3.607  -3.030  0.00  0.00    -0.020 C 
ATOM     20  C   UNL     1       7.774  -4.159  -2.102  0.00  0.00    -0.020 C 
ATOM     21  C   UNL     1       7.304  -2.950  -1.273  0.00  0.00    -0.078 C 
ATOM     22  H   UNL     1       7.526  -1.192  -2.479  0.00  0.00    -0.081 HD
ENDBRANCH  16  17
BRANCH  16  23
ATOM     23  C   UNL     1       9.386   0.153  -1.047  0.00  0.00    -0.052 A 
ATOM     24  C   UNL     1      10.459   0.448  -0.227  0.00  0.00    +0.009 A 
ATOM     25  C   UNL     1      11.374   1.359  -0.643  0.00  0.00    +0.045 A 
ATOM     26  S   UNL     1      10.718   1.841  -2.232  0.00  0.00    -0.105 S 
ATOM     27  C   UNL     1       9.274   0.791  -2.238  0.00  0.00    +0.047 A 
ENDBRANCH  16  23
ENDBRANCH  15  16
ENDBRANCH   4  15
TORSDOF 5
