REMARK  Name = ZINC03619947
REMARK  10 active torsions:
REMARK  status: ('A' for Active; 'I' for Inactive)
REMARK    1  A    between atoms: C_1  and  C_2
REMARK    2  A    between atoms: C_2  and  O_3
REMARK    3  A    between atoms: O_3  and  C_4
REMARK    4  A    between atoms: C_7  and  N_10
REMARK    5  A    between atoms: C_20  and  C_21
REMARK    6  A    between atoms: C_20  and  O_31
REMARK    7  A    between atoms: N_23  and  C_24
REMARK    8  A    between atoms: C_24  and  C_25
REMARK    9  A    between atoms: C_25  and  C_26
REMARK   10  A    between atoms: C_26  and  N_62
REMARK                            x       y       z     vdW  Elec       q    Type
REMARK                         _______ _______ _______ _____ _____    ______ ____
ROOT
ATOM      1  N   UNL     1      -1.202  -0.722   0.010  0.00  0.00    -0.214 N 
ATOM      2  C   UNL     1      -2.377  -0.078   0.132  0.00  0.00    +0.314 C 
ATOM      3  O   UNL     1      -2.367   1.133   0.234  0.00  0.00    -0.252 OA
ATOM      4  N   UNL     1      -3.558  -0.710   0.141  0.00  0.00    -0.269 N 
ATOM      5  C   UNL     1      -3.678  -2.096   0.036  0.00  0.00    +0.043 A 
ATOM      6  C   UNL     1      -4.927  -2.703   0.056  0.00  0.00    +0.025 A 
ATOM      7  C   UNL     1      -5.026  -4.076  -0.049  0.00  0.00    +0.017 A 
ATOM      8  C   UNL     1      -3.887  -4.852  -0.175  0.00  0.00    +0.018 A 
ATOM      9  C   UNL     1      -2.639  -4.251  -0.196  0.00  0.00    +0.025 A 
ATOM     10  C   UNL     1      -2.538  -2.882  -0.090  0.00  0.00    +0.034 A 
ATOM     11  C   UNL     1      -1.196  -2.190  -0.108  0.00  0.00    +0.247 C 
ATOM     12 BR   UNL     1      -4.033  -6.731  -0.319  0.00  0.00    -0.050 Br
ATOM     13  H   UNL     1      -4.366  -0.180   0.228  0.00  0.00    +0.156 HD
ENDROOT
BRANCH   1  17
ATOM     14  C   UNL     1       2.381   1.412  -0.014  0.00  0.00    +0.121 A 
ATOM     15  C   UNL     1       1.792   1.060   1.192  0.00  0.00    +0.047 A 
ATOM     16  C   UNL     1       0.605   0.354   1.200  0.00  0.00    +0.027 A 
ATOM     17  C   UNL     1       0.002  -0.004   0.002  0.00  0.00    +0.042 A 
ATOM     18  C   UNL     1       0.592   0.349  -1.204  0.00  0.00    +0.027 A 
ATOM     19  C   UNL     1       1.779   1.055  -1.212  0.00  0.00    +0.047 A 
BRANCH  14  20
ATOM     20  O   UNL     1       3.550   2.108  -0.022  0.00  0.00    -0.492 OA
BRANCH  20  22
ATOM     21  C   UNL     1       5.416   3.217   1.038  0.00  0.00    +0.048 C 
ATOM     22  C   UNL     1       4.114   2.442   1.248  0.00  0.00    +0.225 C 
ENDBRANCH  20  22
ENDBRANCH  14  20
ENDBRANCH   1  17
BRANCH  11  23
ATOM     23  C   UNL     1      -0.371  -2.744   1.024  0.00  0.00    +0.269 C 
ATOM     24  O   UNL     1       0.615  -3.410   0.788  0.00  0.00    -0.270 OA
ATOM     25  N   UNL     1      -0.729  -2.500   2.301  0.00  0.00    -0.311 N 
ATOM     26  H   UNL     1      -1.518  -1.968   2.490  0.00  0.00    +0.149 HD
BRANCH  25  27
ATOM     27  C   UNL     1       0.072  -3.039   3.402  0.00  0.00    +0.102 C 
BRANCH  27  28
ATOM     28  C   UNL     1      -0.547  -2.619   4.737  0.00  0.00    +0.000 C 
BRANCH  28  29
ATOM     29  C   UNL     1       0.290  -3.182   5.887  0.00  0.00    -0.077 C 
BRANCH  29  34
ATOM     30  C   UNL     1      -1.745  -3.135   7.222  0.00  0.00    -0.079 C 
ATOM     31  C   UNL     1      -2.053  -3.139   8.741  0.00  0.00    -0.020 C 
ATOM     32  C   UNL     1      -0.763  -3.733   9.353  0.00  0.00    -0.020 C 
ATOM     33  C   UNL     1       0.331  -3.494   8.296  0.00  0.00    -0.079 C 
ATOM     34  N   UNL     1      -0.317  -2.784   7.193  0.00  0.00    +0.380 N 
ATOM     35  H   UNL     1      -0.206  -1.771   7.320  0.00  0.00    -0.082 HD
ENDBRANCH  29  34
ENDBRANCH  28  29
ENDBRANCH  27  28
ENDBRANCH  25  27
ENDBRANCH  11  23
BRANCH  11  36
ATOM     36  O   UNL     1      -0.541  -2.530  -1.332  0.00  0.00    -0.360 OA
ATOM     37  H   UNL     1      -0.488  -3.481  -1.499  0.00  0.00    +0.213 HD
ENDBRANCH  11  36
TORSDOF 9
