REMARK  Name = ZINC12402313
REMARK  9 active torsions:
REMARK  status: ('A' for Active; 'I' for Inactive)
REMARK    1  A    between atoms: C_1  and  C_2
REMARK    2  A    between atoms: C_2  and  C_35
REMARK    3  A    between atoms: C_6  and  C_24
REMARK    4  A    between atoms: C_8  and  C_22
REMARK    5  A    between atoms: C_9  and  N_21
REMARK    6  A    between atoms: N_10  and  C_11
REMARK    7  A    between atoms: C_14  and  S_17
REMARK    8  A    between atoms: S_17  and  N_20
REMARK    9  A    between atoms: C_27  and  N_29
REMARK                            x       y       z     vdW  Elec       q    Type
REMARK                         _______ _______ _______ _____ _____    ______ ____
ROOT
ATOM      1  C   UNL     1      -1.162   2.328   2.409  0.00  0.00    +0.011 C 
ATOM      2  C   UNL     1      -1.939   1.269   3.193  0.00  0.00    -0.023 C 
ATOM      3  C   UNL     1      -3.187   0.860   2.407  0.00  0.00    +0.058 C 
ATOM      4  C   UNL     1      -2.779   0.260   1.085  0.00  0.00    +0.025 C 
ATOM      5  C   UNL     1      -1.614  -0.410   0.955  0.00  0.00    +0.026 C 
ATOM      6  C   UNL     1      -1.210  -1.014  -0.367  0.00  0.00    +0.104 C 
ATOM      7  C   UNL     1      -2.388  -1.141  -1.288  0.00  0.00    +0.077 C 
ATOM      8  C   UNL     1      -3.528  -0.435  -1.070  0.00  0.00    +0.107 C 
ATOM      9  N   UNL     1      -3.623   0.406   0.015  0.00  0.00    -0.260 N 
ATOM     10  C   UNL     1      -0.740  -0.563   2.046  0.00  0.00    +0.162 C 
ATOM     11  O   UNL     1       0.294  -1.184   1.899  0.00  0.00    -0.292 OA
ATOM     12  C   UNL     1      -1.062   0.028   3.391  0.00  0.00    +0.086 C 
ATOM     13  C   UNL     1      -2.351   1.835   4.554  0.00  0.00    +0.011 C 
ENDROOT
BRANCH   9  14
ATOM     14  C   UNL     1      -4.588   1.420   0.026  0.00  0.00    +0.040 A 
ATOM     15  C   UNL     1      -5.857   1.168   0.531  0.00  0.00    +0.026 A 
ATOM     16  C   UNL     1      -6.805   2.172   0.544  0.00  0.00    +0.030 A 
ATOM     17  C   UNL     1      -6.496   3.424   0.046  0.00  0.00    +0.105 A 
ATOM     18  C   UNL     1      -5.235   3.677  -0.462  0.00  0.00    +0.030 A 
ATOM     19  C   UNL     1      -4.280   2.679  -0.474  0.00  0.00    +0.026 A 
BRANCH  17  20
ATOM     20  S   UNL     1      -7.710   4.700   0.059  0.00  0.00    +0.056 S 
ATOM     21  O   UNL     1      -8.636   4.369   1.085  0.00  0.00    -0.153 OA
ATOM     22  O   UNL     1      -7.004   5.933   0.040  0.00  0.00    -0.153 OA
BRANCH  20  23
ATOM     23  N   UNL     1      -8.537   4.605  -1.373  0.00  0.00    -0.204 NA
ATOM     24  H   UNL     1      -9.466   4.878  -1.415  0.00  0.00    +0.144 HD
ATOM     25  H   UNL     1      -8.091   4.277  -2.169  0.00  0.00    +0.144 HD
ENDBRANCH  20  23
ENDBRANCH  17  20
ENDBRANCH   9  14
BRANCH   6  26
ATOM     26  C   UNL     1      -0.170  -0.137  -1.014  0.00  0.00    +0.005 A 
ATOM     27  C   UNL     1       1.101  -0.443  -1.372  0.00  0.00    +0.014 A 
ATOM     28  C   UNL     1       1.886   0.532  -1.959  0.00  0.00    +0.041 A 
ATOM     29  C   UNL     1       1.361   1.766  -2.158  0.00  0.00    +0.164 A 
ATOM     30  S   UNL     1      -0.290   1.574  -1.507  0.00  0.00    -0.068 S 
BRANCH  29  31
ATOM     31  N   UNL     1       1.993   2.962  -2.759  0.00  0.00    +0.063 N 
ATOM     32  O   UNL     1       3.144   2.909  -3.154  0.00  0.00    -0.126 OA
ATOM     33  O   UNL     1       1.362   3.999  -2.859  0.00  0.00    -0.126 OA
ENDBRANCH  29  31
ENDBRANCH   6  26
BRANCH   8  34
ATOM     34  N   UNL     1      -4.589  -0.563  -1.934  0.00  0.00    -0.345 N 
ATOM     35  H   UNL     1      -5.372   0.001  -1.828  0.00  0.00    +0.144 HD
ATOM     36  H   UNL     1      -4.556  -1.216  -2.650  0.00  0.00    +0.144 HD
ENDBRANCH   8  34
BRANCH   7  37
ATOM     37  C   UNL     1      -2.308  -2.020  -2.415  0.00  0.00    +0.099 C 
ATOM     38  N   UNL     1      -2.245  -2.717  -3.310  0.00  0.00    -0.191 NA
ENDBRANCH   7  37
TORSDOF 7
