REMARK  Name = ZINC43223353
REMARK  7 active torsions:
REMARK  status: ('A' for Active; 'I' for Inactive)
REMARK    1  A    between atoms: C_4  and  C_7
REMARK    2  A    between atoms: C_7  and  C_8
REMARK    3  A    between atoms: C_8  and  C_9
REMARK    4  A    between atoms: C_9  and  N_10
REMARK    5  A    between atoms: C_11  and  C_13
REMARK    6  A    between atoms: C_18  and  C_20
REMARK    7  A    between atoms: N_22  and  C_23
REMARK                            x       y       z     vdW  Elec       q    Type
REMARK                         _______ _______ _______ _____ _____    ______ ____
ROOT
ATOM      1  C   UNL     1       7.559  -2.856   4.402  0.00  0.00    +0.068 C 
ATOM      2  C   UNL     1       6.550  -3.766   5.135  0.00  0.00    -0.069 C 
ATOM      3  N   UNL     1       7.101  -5.137   4.978  0.00  0.00    +0.380 N 
ATOM      4  C   UNL     1       8.567  -4.962   5.143  0.00  0.00    -0.069 C 
ATOM      5  C   UNL     1       8.888  -3.640   4.408  0.00  0.00    +0.068 C 
ATOM      6  H   UNL     1       6.736  -5.748   5.694  0.00  0.00    -0.086 HD
ATOM      7  H   UNL     1       6.890  -5.500   4.061  0.00  0.00    -0.086 HD
ENDROOT
BRANCH   1   9
ATOM      8  N   UNL     1       5.947  -1.955   2.757  0.00  0.00    -0.315 N 
ATOM      9  C   UNL     1       7.106  -2.603   2.988  0.00  0.00    +0.215 C 
ATOM     10  O   UNL     1       7.784  -2.984   2.057  0.00  0.00    -0.276 OA
ATOM     11  H   UNL     1       5.405  -1.651   3.501  0.00  0.00    +0.149 HD
BRANCH   8  12
ATOM     12  C   UNL     1       5.507  -1.710   1.381  0.00  0.00    +0.104 C 
BRANCH  12  13
ATOM     13  C   UNL     1       4.171  -0.963   1.399  0.00  0.00    +0.023 C 
BRANCH  13  14
ATOM     14  C   UNL     1       3.711  -0.707  -0.038  0.00  0.00    +0.036 C 
BRANCH  14  18
ATOM     15  C   UNL     1      -0.017   1.378   0.010  0.00  0.00    +0.000 A 
ATOM     16  C   UNL     1       1.171   2.086   0.002  0.00  0.00    +0.000 A 
ATOM     17  C   UNL     1       2.377   1.411  -0.013  0.00  0.00    +0.003 A 
ATOM     18  C   UNL     1       2.396   0.029  -0.020  0.00  0.00    -0.047 A 
ATOM     19  C   UNL     1       1.208  -0.679  -0.012  0.00  0.00    +0.003 A 
ATOM     20  C   UNL     1       0.002  -0.004   0.002  0.00  0.00    +0.000 A 
ENDBRANCH  14  18
ENDBRANCH  13  14
ENDBRANCH  12  13
ENDBRANCH   8  12
ENDBRANCH   1   9
BRANCH   5  21
ATOM     21  C   UNL     1       9.948  -2.869   5.152  0.00  0.00    +0.215 C 
ATOM     22  O   UNL     1       9.684  -1.791   5.639  0.00  0.00    -0.276 OA
ATOM     23  N   UNL     1      11.190  -3.378   5.275  0.00  0.00    -0.308 N 
ATOM     24  H   UNL     1      11.401  -4.241   4.885  0.00  0.00    +0.149 HD
BRANCH  23  25
ATOM     25  C   UNL     1      12.220  -2.629   5.998  0.00  0.00    +0.103 C 
ATOM     26  C   UNL     1      13.262  -3.604   6.543  0.00  0.00    +0.027 C 
ATOM     27  C   UNL     1      14.437  -2.792   7.102  0.00  0.00    +0.007 C 
ATOM     28  C   UNL     1      15.179  -2.150   5.932  0.00  0.00    +0.035 C 
ATOM     29  C   UNL     1      14.219  -1.413   5.036  0.00  0.00    -0.042 A 
ATOM     30  C   UNL     1      12.861  -1.637   5.063  0.00  0.00    -0.024 A 
ATOM     31  C   UNL     1      12.030  -0.928   4.205  0.00  0.00    +0.006 A 
ATOM     32  C   UNL     1      12.556  -0.002   3.328  0.00  0.00    +0.000 A 
ATOM     33  C   UNL     1      13.919   0.225   3.303  0.00  0.00    +0.000 A 
ATOM     34  C   UNL     1      14.744  -0.478   4.154  0.00  0.00    +0.004 A 
ENDBRANCH  23  25
ENDBRANCH   5  21
TORSDOF 7
