REMARK  Name = ZINC20599997
REMARK  15 active torsions:
REMARK  status: ('A' for Active; 'I' for Inactive)
REMARK    1  A    between atoms: C_1  and  C_2
REMARK    2  A    between atoms: C_7  and  C_8
REMARK    3  A    between atoms: C_8  and  C_9
REMARK    4  A    between atoms: C_9  and  N_10
REMARK    5  A    between atoms: N_10  and  C_11
REMARK    6  A    between atoms: C_11  and  C_12
REMARK    7  A    between atoms: C_15  and  O_31
REMARK    8  A    between atoms: C_17  and  O_18
REMARK    9  A    between atoms: O_18  and  C_19
REMARK   10  A    between atoms: C_19  and  C_20
REMARK   11  A    between atoms: C_20  and  C_22
REMARK   12  A    between atoms: C_20  and  O_30
REMARK   13  A    between atoms: C_22  and  N_23
REMARK   14  A    between atoms: N_26  and  C_29
REMARK   15  A    between atoms: O_31  and  C_32
REMARK                            x       y       z     vdW  Elec       q    Type
REMARK                         _______ _______ _______ _____ _____    ______ ____
ROOT
ATOM      1  C   UNL     1       0.671  -2.019  -1.134  0.00  0.00    -0.022 A 
ATOM      2  C   UNL     1       1.803  -2.701  -0.730  0.00  0.00    +0.009 A 
ATOM      3  C   UNL     1       1.817  -4.082  -0.729  0.00  0.00    +0.046 A 
ATOM      4  C   UNL     1       0.692  -4.789  -1.133  0.00  0.00    +0.124 A 
ATOM      5  C   UNL     1      -0.445  -4.107  -1.538  0.00  0.00    +0.091 A 
ATOM      6  C   UNL     1      -0.458  -2.720  -1.533  0.00  0.00    +0.125 A 
ENDROOT
BRANCH   4   7
ATOM      7  O   UNL     1       0.706  -6.147  -1.132  0.00  0.00    -0.495 OA
ATOM      8  C   UNL     1       1.912  -6.784  -0.703  0.00  0.00    +0.277 C 
ENDBRANCH   4   7
BRANCH   1   9
ATOM      9  C   UNL     1       0.659  -0.512  -1.133  0.00  0.00    -0.043 C 
BRANCH   9  10
ATOM     10  N   UNL     1      -0.030  -0.027   0.070  0.00  0.00    +0.382 N 
ATOM     11  H   UNL     1       0.501  -0.404   0.957  0.00  0.00    -0.085 HD
ATOM     12  H   UNL     1      -1.059  -0.416   0.067  0.00  0.00    -0.085 HD
BRANCH  10  13
ATOM     13  C   UNL     1      -0.060   1.441   0.104  0.00  0.00    -0.077 C 
BRANCH  13  14
ATOM     14  C   UNL     1      -0.785   1.907   1.369  0.00  0.00    +0.016 C 
BRANCH  14  21
ATOM     15  C   UNL     1      -2.872   3.341  -0.021  0.00  0.00    +0.044 C 
ATOM     16  C   UNL     1      -1.815   4.099   0.739  0.00  0.00    -0.047 A 
ATOM     17  C   UNL     1      -1.844   5.481   0.771  0.00  0.00    +0.003 A 
ATOM     18  C   UNL     1      -0.874   6.176   1.469  0.00  0.00    +0.000 A 
ATOM     19  C   UNL     1       0.125   5.490   2.134  0.00  0.00    +0.000 A 
ATOM     20  C   UNL     1       0.151   4.108   2.106  0.00  0.00    +0.004 A 
ATOM     21  C   UNL     1      -0.816   3.413   1.404  0.00  0.00    -0.046 A 
ENDBRANCH  14  21
ENDBRANCH  13  14
ENDBRANCH  10  13
ENDBRANCH   9  10
ENDBRANCH   1   9
BRANCH   6  22
ATOM     22  O   UNL     1      -1.573  -2.049  -1.924  0.00  0.00    -0.489 OA
BRANCH  22  23
ATOM     23  C   UNL     1      -2.697  -2.836  -2.322  0.00  0.00    +0.261 C 
BRANCH  23  24
ATOM     24  C   UNL     1      -3.849  -1.913  -2.726  0.00  0.00    +0.166 C 
BRANCH  24  25
ATOM     25  O   UNL     1      -4.289  -1.174  -1.584  0.00  0.00    -0.387 OA
ATOM     26  H   UNL     1      -5.115  -0.454  -1.680  0.00  0.00    +0.210 HD
ENDBRANCH  24  25
BRANCH  24  27
ATOM     27  C   UNL     1      -5.008  -2.750  -3.269  0.00  0.00    +0.119 C 
BRANCH  27  28
ATOM     28  N   UNL     1      -6.108  -1.863  -3.668  0.00  0.00    -0.303 NA
ATOM     29  C   UNL     1      -7.376  -2.601  -3.750  0.00  0.00    +0.066 C 
ATOM     30  C   UNL     1      -8.508  -1.628  -4.089  0.00  0.00    -0.064 C 
ATOM     31  N   UNL     1      -8.210  -0.958  -5.362  0.00  0.00    +0.379 N 
ATOM     32  C   UNL     1      -6.941  -0.220  -5.281  0.00  0.00    -0.064 C 
ATOM     33  C   UNL     1      -5.809  -1.192  -4.941  0.00  0.00    +0.066 C 
ATOM     34  C   UNL     1      -9.310  -0.070  -5.761  0.00  0.00    -0.096 C 
ATOM     35  H   UNL     1      -8.103  -1.731  -6.137  0.00  0.00    -0.082 HD
ENDBRANCH  27  28
ENDBRANCH  24  27
ENDBRANCH  23  24
ENDBRANCH  22  23
ENDBRANCH   6  22
TORSDOF 12
