REMARK  Name = ZINC21364665
REMARK  14 active torsions:
REMARK  status: ('A' for Active; 'I' for Inactive)
REMARK    1  A    between atoms: N_9  and  C_10
REMARK    2  A    between atoms: C_10  and  C_11
REMARK    3  A    between atoms: C_11  and  C_13
REMARK    4  A    between atoms: C_11  and  O_30
REMARK    5  A    between atoms: C_13  and  N_14
REMARK    6  A    between atoms: N_14  and  C_15
REMARK    7  A    between atoms: N_14  and  C_18
REMARK    8  A    between atoms: C_15  and  C_16
REMARK    9  A    between atoms: C_16  and  O_17
REMARK   10  A    between atoms: C_18  and  C_19
REMARK   11  A    between atoms: C_19  and  C_21
REMARK   12  A    between atoms: C_19  and  O_29
REMARK   13  A    between atoms: C_21  and  O_22
REMARK   14  A    between atoms: O_22  and  C_23
REMARK                            x       y       z     vdW  Elec       q    Type
REMARK                         _______ _______ _______ _____ _____    ______ ____
ROOT
ATOM      1  N   UNL     1       1.413   1.641   2.390  0.00  0.00    +0.385 N 
ATOM      2  H   UNL     1       0.367   1.307   2.452  0.00  0.00    -0.082 HD
ENDROOT
BRANCH   1   3
ATOM      3  C   UNL     1       2.125   1.119   3.564  0.00  0.00    -0.045 C 
BRANCH   3   4
ATOM      4  C   UNL     1       1.281   1.353   4.818  0.00  0.00    +0.118 C 
BRANCH   4   5
ATOM      5  O   UNL     1       0.038   0.659   4.692  0.00  0.00    -0.392 OA
ATOM      6  H   UNL     1      -0.645   0.899   3.864  0.00  0.00    +0.210 HD
ENDBRANCH   4   5
BRANCH   4   7
ATOM      7  C   UNL     1       2.033   0.833   6.044  0.00  0.00    +0.151 C 
BRANCH   7  16
ATOM      8  C   UNL     1      -1.827  -0.640   9.289  0.00  0.00    +0.001 A 
ATOM      9  C   UNL     1      -1.386  -1.296   8.147  0.00  0.00    +0.002 A 
ATOM     10  C   UNL     1      -0.355  -0.779   7.394  0.00  0.00    +0.026 A 
ATOM     11  C   UNL     1       0.254   0.411   7.780  0.00  0.00    +0.049 A 
ATOM     12  C   UNL     1      -0.196   1.071   8.938  0.00  0.00    -0.000 A 
ATOM     13  C   UNL     1      -1.244   0.530   9.686  0.00  0.00    +0.010 A 
ATOM     14  C   UNL     1       0.633   2.271   9.068  0.00  0.00    +0.027 A 
ATOM     15  C   UNL     1       1.496   2.266   8.040  0.00  0.00    +0.087 A 
ATOM     16  N   UNL     1       1.280   1.165   7.256  0.00  0.00    -0.344 N 
ENDBRANCH   7  16
ENDBRANCH   4   7
ENDBRANCH   3   4
ENDBRANCH   1   3
BRANCH   1  17
ATOM     17  C   UNL     1       1.418   3.110   2.382  0.00  0.00    -0.050 C 
BRANCH  17  18
ATOM     18  C   UNL     1       2.853   3.615   2.220  0.00  0.00    +0.137 C 
BRANCH  18  19
ATOM     19  O   UNL     1       3.312   3.328   0.898  0.00  0.00    -0.397 OA
ATOM     20  H   UNL     1       4.329   3.619   0.593  0.00  0.00    +0.209 HD
ENDBRANCH  18  19
ENDBRANCH  17  18
ENDBRANCH   1  17
BRANCH   1  21
ATOM     21  C   UNL     1       1.985   1.107   1.147  0.00  0.00    -0.045 C 
BRANCH  21  22
ATOM     22  C   UNL     1       1.175   1.615  -0.048  0.00  0.00    +0.124 C 
BRANCH  22  23
ATOM     23  O   UNL     1      -0.181   1.182   0.078  0.00  0.00    -0.391 OA
ATOM     24  H   UNL     1      -0.918   1.453  -0.692  0.00  0.00    +0.210 HD
ENDBRANCH  22  23
BRANCH  22  25
ATOM     25  C   UNL     1       1.771   1.059  -1.342  0.00  0.00    +0.189 C 
BRANCH  25  26
ATOM     26  O   UNL     1       1.088   1.625  -2.463  0.00  0.00    -0.374 OA
BRANCH  26  27
ATOM     27  C   UNL     1       1.570   1.168  -3.728  0.00  0.00    +0.118 C 
ATOM     28  C   UNL     1       2.691   2.091  -4.210  0.00  0.00    +0.031 C 
ATOM     29  C   UNL     1       3.207   1.603  -5.565  0.00  0.00    +0.003 C 
ATOM     30  C   UNL     1       2.064   1.616  -6.581  0.00  0.00    +0.000 C 
ATOM     31  C   UNL     1       0.942   0.693  -6.099  0.00  0.00    +0.003 C 
ATOM     32  C   UNL     1       0.426   1.182  -4.745  0.00  0.00    +0.031 C 
ENDBRANCH  26  27
ENDBRANCH  25  26
ENDBRANCH  22  25
ENDBRANCH  21  22
ENDBRANCH   1  21
TORSDOF 14
