REMARK  Name = ZINC63328972
REMARK  7 active torsions:
REMARK  status: ('A' for Active; 'I' for Inactive)
REMARK    1  A    between atoms: C_7  and  C_12
REMARK    2  A    between atoms: C_12  and  C_13
REMARK    3  A    between atoms: N_15  and  C_16
REMARK    4  A    between atoms: C_16  and  C_17
REMARK    5  A    between atoms: N_19  and  C_20
REMARK    6  A    between atoms: C_20  and  C_21
REMARK    7  A    between atoms: C_21  and  C_22
REMARK                            x       y       z     vdW  Elec       q    Type
REMARK                         _______ _______ _______ _____ _____    ______ ____
ROOT
ATOM      1  C   UNL     1      -0.249  -6.777  -0.033  0.00  0.00    +0.200 C 
ENDROOT
BRANCH   1   4
ATOM      2  C   UNL     1       0.387  -4.425  -0.026  0.00  0.00    +0.219 C 
ATOM      3  O   UNL     1       1.550  -4.770  -0.040  0.00  0.00    -0.275 OA
ATOM      4  N   UNL     1      -0.591  -5.352  -0.022  0.00  0.00    -0.306 N 
ATOM      5  H   UNL     1      -1.521  -5.077  -0.011  0.00  0.00    +0.149 HD
BRANCH   2   6
ATOM      6  C   UNL     1       0.036  -2.959  -0.014  0.00  0.00    +0.153 C 
BRANCH   6  13
ATOM      7  C   UNL     1      -0.017   1.363   0.009  0.00  0.00    +0.001 A 
ATOM      8  C   UNL     1       1.165   2.092   0.002  0.00  0.00    +0.001 A 
ATOM      9  C   UNL     1       2.386   1.454  -0.013  0.00  0.00    +0.014 A 
ATOM     10  C   UNL     1       2.429   0.060  -0.021  0.00  0.00    +0.050 A 
ATOM     11  C   UNL     1       1.224  -0.679  -0.013  0.00  0.00    +0.011 A 
ATOM     12  C   UNL     1       0.002  -0.004   0.002  0.00  0.00    +0.010 A 
ATOM     13  C   UNL     1       1.300  -2.140  -0.022  0.00  0.00    +0.078 A 
ATOM     14  N   UNL     1       2.458  -2.731  -0.037  0.00  0.00    -0.175 NA
ATOM     15  N   UNL     1       3.663  -2.028  -0.045  0.00  0.00    -0.242 N 
ATOM     16  C   UNL     1       3.698  -0.679  -0.038  0.00  0.00    +0.272 A 
ATOM     17  O   UNL     1       4.762  -0.086  -0.046  0.00  0.00    -0.266 OA
ATOM     18  H   UNL     1       4.497  -2.522  -0.056  0.00  0.00    +0.192 HD
ENDBRANCH   6  13
ENDBRANCH   2   6
ENDBRANCH   1   4
BRANCH   1  19
ATOM     19  C   UNL     1      -1.514  -7.597  -0.025  0.00  0.00    +0.230 C 
ATOM     20  O   UNL     1      -2.594  -7.045  -0.011  0.00  0.00    -0.274 OA
ATOM     21  N   UNL     1      -1.444  -8.943  -0.034  0.00  0.00    -0.314 N 
ATOM     22  H   UNL     1      -0.580  -9.384  -0.045  0.00  0.00    +0.149 HD
BRANCH  21  23
ATOM     23  C   UNL     1      -2.673  -9.740  -0.026  0.00  0.00    +0.108 C 
BRANCH  23  24
ATOM     24  C   UNL     1      -2.317 -11.228  -0.038  0.00  0.00    +0.052 C 
BRANCH  24  25
ATOM     25  C   UNL     1      -3.581 -12.047  -0.030  0.00  0.00    -0.040 C 
ATOM     26  C   UNL     1      -4.220 -12.567  -1.102  0.00  0.00    +0.002 A 
ATOM     27  C   UNL     1      -3.939 -12.526  -2.542  0.00  0.00    +0.048 A 
ATOM     28  C   UNL     1      -4.783 -13.156  -3.394  0.00  0.00    +0.124 A 
ATOM     29  C   UNL     1      -5.915 -13.846  -2.934  0.00  0.00    +0.040 A 
ATOM     30  C   UNL     1      -6.238 -13.927  -1.626  0.00  0.00    +0.029 A 
ATOM     31  C   UNL     1      -5.421 -13.302  -0.643  0.00  0.00    +0.043 A 
ATOM     32  N   UNL     1      -5.520 -13.238   0.662  0.00  0.00    -0.380 N 
ATOM     33  C   UNL     1      -4.389 -12.461   1.180  0.00  0.00    +0.144 C 
ATOM     34  F   UNL     1      -4.528 -13.120  -4.720  0.00  0.00    -0.205 F 
ATOM     35  H   UNL     1      -6.222 -13.641   1.197  0.00  0.00    +0.160 HD
ENDBRANCH  24  25
ENDBRANCH  23  24
ENDBRANCH  21  23
ENDBRANCH   1  19
TORSDOF 7
