REMARK  Name = ZINC58184029
REMARK  4 active torsions:
REMARK  status: ('A' for Active; 'I' for Inactive)
REMARK    1  A    between atoms: C_1  and  C_2
REMARK    2  A    between atoms: C_6  and  C_26
REMARK    3  A    between atoms: C_8  and  C_10
REMARK    4  A    between atoms: C_10  and  N_11
REMARK                            x       y       z     vdW  Elec       q    Type
REMARK                         _______ _______ _______ _____ _____    ______ ____
ROOT
ATOM      1  N   UNL     1      -0.623  -2.294   4.046  0.00  0.00    -0.215 N 
ATOM      2  C   UNL     1      -1.517  -1.757   4.903  0.00  0.00    +0.251 C 
ATOM      3  O   UNL     1      -1.645  -0.587   5.194  0.00  0.00    -0.272 OA
ATOM      4  C   UNL     1      -2.324  -2.922   5.422  0.00  0.00    +0.139 C 
ATOM      5  C   UNL     1      -2.197  -3.044   6.933  0.00  0.00    +0.040 C 
ATOM      6  C   UNL     1      -3.158  -4.116   7.459  0.00  0.00    +0.008 C 
ATOM      7  C   UNL     1      -4.600  -3.613   7.298  0.00  0.00    +0.043 C 
ATOM      8  C   UNL     1      -4.766  -3.082   5.912  0.00  0.00    -0.005 A 
ATOM      9  C   UNL     1      -3.782  -2.756   5.027  0.00  0.00    -0.005 A 
ATOM     10  C   UNL     1      -4.197  -2.281   3.783  0.00  0.00    +0.014 A 
ATOM     11  C   UNL     1      -5.515  -2.161   3.508  0.00  0.00    +0.046 A 
ATOM     12  S   UNL     1      -6.262  -2.726   5.030  0.00  0.00    -0.101 S 
ATOM     13  N   UNL     1      -1.750  -4.089   4.745  0.00  0.00    -0.281 N 
ATOM     14  C   UNL     1      -0.763  -3.622   3.956  0.00  0.00    +0.310 C 
ATOM     15  O   UNL     1      -0.076  -4.328   3.244  0.00  0.00    -0.252 OA
ATOM     16  H   UNL     1      -2.029  -5.013   4.843  0.00  0.00    +0.152 HD
ENDROOT
BRANCH   1  17
ATOM     17  C   UNL     1       0.374  -1.518   3.303  0.00  0.00    +0.213 C 
BRANCH  17  25
ATOM     18  C   UNL     1       2.791  -1.064   0.284  0.00  0.00    +0.028 C 
ATOM     19  C   UNL     1       1.999  -0.264   1.322  0.00  0.00    +0.073 C 
ATOM     20  C   UNL     1       2.343   1.223   1.195  0.00  0.00    +0.022 C 
ATOM     21  C   UNL     1       1.863   1.740  -0.163  0.00  0.00    +0.004 C 
ATOM     22  C   UNL     1       0.343   1.585  -0.260  0.00  0.00    +0.022 C 
ATOM     23  C   UNL     1      -0.023   0.102  -0.150  0.00  0.00    +0.073 C 
ATOM     24  N   UNL     1       0.560  -0.439   1.085  0.00  0.00    -0.295 N 
ATOM     25  C   UNL     1      -0.211  -1.083   1.984  0.00  0.00    +0.234 C 
ATOM     26  O   UNL     1      -1.375  -1.312   1.731  0.00  0.00    -0.274 OA
ATOM     27  C   UNL     1      -1.545  -0.048  -0.107  0.00  0.00    +0.028 C 
ENDBRANCH  17  25
ENDBRANCH   1  17
TORSDOF 2
