REMARK  Name = ZINC32511657
REMARK  11 active torsions:
REMARK  status: ('A' for Active; 'I' for Inactive)
REMARK    1  A    between atoms: C_1  and  N_2
REMARK    2  A    between atoms: C_3  and  C_5
REMARK    3  A    between atoms: C_8  and  N_26
REMARK    4  A    between atoms: N_11  and  C_12
REMARK    5  A    between atoms: C_12  and  C_13
REMARK    6  A    between atoms: C_13  and  C_14
REMARK    7  A    between atoms: C_13  and  C_20
REMARK    8  A    between atoms: N_26  and  C_27
REMARK    9  A    between atoms: C_27  and  C_28
REMARK   10  A    between atoms: C_32  and  O_34
REMARK   11  A    between atoms: O_34  and  C_35
REMARK                            x       y       z     vdW  Elec       q    Type
REMARK                         _______ _______ _______ _____ _____    ______ ____
ROOT
ATOM      1  C   UNL     1      -1.008  -3.677  -0.125  0.00  0.00    +0.142 C 
ATOM      2  C   UNL     1      -0.686  -4.323  -1.496  0.00  0.00    +0.014 C 
ATOM      3  C   UNL     1      -1.871  -5.311  -1.663  0.00  0.00    -0.055 C 
ATOM      4  C   UNL     1      -3.052  -4.548  -1.027  0.00  0.00    +0.069 C 
ATOM      5  N   UNL     1      -2.481  -3.550  -0.102  0.00  0.00    -0.292 NA
ENDROOT
BRANCH   1   8
ATOM      6  C   UNL     1       1.608  -0.889   0.049  0.00  0.00    +0.128 C 
ATOM      7  N   UNL     1       0.980  -2.208  -0.054  0.00  0.00    -0.317 N 
ATOM      8  C   UNL     1      -0.362  -2.320  -0.020  0.00  0.00    +0.230 C 
ATOM      9  O   UNL     1      -1.051  -1.328   0.096  0.00  0.00    -0.274 OA
ATOM     10  H   UNL     1       1.531  -3.002  -0.146  0.00  0.00    +0.148 HD
ENDBRANCH   1   8
BRANCH   3  11
ATOM     11  N   UNL     1      -2.126  -5.580  -3.085  0.00  0.00    +0.384 N 
ATOM     12  H   UNL     1      -2.432  -4.732  -3.537  0.00  0.00    -0.085 HD
ATOM     13  H   UNL     1      -1.278  -5.907  -3.522  0.00  0.00    -0.085 HD
BRANCH  11  14
ATOM     14  C   UNL     1      -3.170  -6.606  -3.209  0.00  0.00    -0.046 C 
BRANCH  14  15
ATOM     15  C   UNL     1      -3.432  -6.882  -4.667  0.00  0.00    -0.061 A 
ATOM     16  C   UNL     1      -4.387  -6.149  -5.348  0.00  0.00    +0.002 A 
ATOM     17  C   UNL     1      -4.630  -6.400  -6.686  0.00  0.00    +0.004 A 
ATOM     18  C   UNL     1      -3.918  -7.383  -7.346  0.00  0.00    +0.045 A 
ATOM     19  C   UNL     1      -2.959  -8.119  -6.665  0.00  0.00    +0.120 A 
ATOM     20  C   UNL     1      -2.713  -7.862  -5.324  0.00  0.00    +0.047 A 
BRANCH  19  21
ATOM     21  O   UNL     1      -2.258  -9.087  -7.312  0.00  0.00    -0.495 OA
ATOM     22  C   UNL     1      -2.560  -9.293  -8.694  0.00  0.00    +0.277 C 
ENDBRANCH  19  21
ENDBRANCH  14  15
ENDBRANCH  11  14
ENDBRANCH   3  11
BRANCH   5  23
ATOM     23  C   UNL     1      -3.004  -3.730   1.259  0.00  0.00    +0.098 C 
BRANCH  23  24
ATOM     24  C   UNL     1      -4.485  -3.348   1.291  0.00  0.00    +0.063 C 
BRANCH  24  25
ATOM     25  C   UNL     1      -5.052  -3.648   2.654  0.00  0.00    -0.039 A 
ATOM     26  C   UNL     1      -6.196  -4.416   2.774  0.00  0.00    +0.004 A 
ATOM     27  C   UNL     1      -6.716  -4.691   4.024  0.00  0.00    +0.000 A 
ATOM     28  C   UNL     1      -6.092  -4.199   5.156  0.00  0.00    +0.000 A 
ATOM     29  C   UNL     1      -4.949  -3.432   5.037  0.00  0.00    +0.000 A 
ATOM     30  C   UNL     1      -4.426  -3.160   3.786  0.00  0.00    +0.004 A 
ENDBRANCH  24  25
BRANCH  24  31
ATOM     31  C   UNL     1      -4.631  -1.877   0.999  0.00  0.00    -0.039 A 
ATOM     32  C   UNL     1      -3.897  -0.953   1.720  0.00  0.00    +0.004 A 
ATOM     33  C   UNL     1      -4.031   0.397   1.452  0.00  0.00    +0.000 A 
ATOM     34  C   UNL     1      -4.898   0.823   0.463  0.00  0.00    +0.000 A 
ATOM     35  C   UNL     1      -5.631  -0.101  -0.258  0.00  0.00    +0.000 A 
ATOM     36  C   UNL     1      -5.495  -1.451   0.007  0.00  0.00    +0.004 A 
ENDBRANCH  24  31
ENDBRANCH  23  24
ENDBRANCH   5  23
TORSDOF 9
