REMARK  Name = ZINC39622660
REMARK  7 active torsions:
REMARK  status: ('A' for Active; 'I' for Inactive)
REMARK    1  A    between atoms: C_10  and  C_12
REMARK    2  A    between atoms: C_18  and  C_20
REMARK    3  A    between atoms: C_20  and  O_22
REMARK    4  A    between atoms: O_22  and  C_23
REMARK    5  A    between atoms: C_23  and  C_24
REMARK    6  A    between atoms: N_26  and  C_27
REMARK    7  A    between atoms: C_28  and  C_35
REMARK                            x       y       z     vdW  Elec       q    Type
REMARK                         _______ _______ _______ _____ _____    ______ ____
ROOT
ATOM      1  C   UNL     1       7.316   0.580   0.948  0.00  0.00    +0.311 C 
ATOM      2  O   UNL     1       6.643   0.088   1.823  0.00  0.00    -0.251 OA
ENDROOT
BRANCH   1   8
ATOM      3  C   UNL     1       5.137   1.002  -0.158  0.00  0.00    +0.089 C 
ATOM      4  C   UNL     1       4.466   1.592  -1.400  0.00  0.00    +0.013 C 
ATOM      5  C   UNL     1       4.962   0.857  -2.647  0.00  0.00    +0.001 C 
ATOM      6  C   UNL     1       6.479   1.016  -2.763  0.00  0.00    +0.001 C 
ATOM      7  C   UNL     1       7.151   0.426  -1.521  0.00  0.00    +0.015 C 
ATOM      8  C   UNL     1       6.654   1.161  -0.275  0.00  0.00    +0.110 C 
BRANCH   3  18
ATOM      9  C   UNL     1       1.791  -4.612   0.483  0.00  0.00    +0.000 A 
ATOM     10  C   UNL     1       3.122  -4.554   0.109  0.00  0.00    +0.002 A 
ATOM     11  C   UNL     1       3.765  -3.339   0.020  0.00  0.00    +0.024 A 
ATOM     12  C   UNL     1       3.080  -2.156   0.306  0.00  0.00    +0.039 A 
ATOM     13  C   UNL     1       1.747  -2.224   0.679  0.00  0.00    -0.024 A 
ATOM     14  C   UNL     1       1.106  -3.445   0.767  0.00  0.00    +0.005 A 
ATOM     15  C   UNL     1       1.245  -0.820   0.930  0.00  0.00    +0.056 C 
ATOM     16  C   UNL     1       2.460   0.080   0.654  0.00  0.00    +0.118 C 
ATOM     17  N   UNL     1       3.540  -0.836   0.277  0.00  0.00    -0.271 N 
ATOM     18  C   UNL     1       4.793  -0.461  -0.049  0.00  0.00    +0.224 C 
ATOM     19  O   UNL     1       5.643  -1.301  -0.254  0.00  0.00    -0.275 OA
ENDBRANCH   3  18
ENDBRANCH   1   8
BRANCH   1  20
ATOM     20  O   UNL     1       8.653   0.608   1.066  0.00  0.00    -0.455 OA
BRANCH  20  21
ATOM     21  C   UNL     1       9.212   0.039   2.252  0.00  0.00    +0.328 C 
BRANCH  21  22
ATOM     22  C   UNL     1      10.713   0.160   2.207  0.00  0.00    +0.255 C 
ATOM     23  O   UNL     1      11.251   0.683   1.254  0.00  0.00    -0.272 OA
ATOM     24  N   UNL     1      11.458  -0.311   3.227  0.00  0.00    -0.277 N 
ATOM     25  H   UNL     1      11.027  -0.730   3.989  0.00  0.00    +0.155 HD
BRANCH  24  26
ATOM     26  C   UNL     1      12.839  -0.200   3.186  0.00  0.00    +0.084 A 
ATOM     27  C   UNL     1      13.755  -0.628   4.129  0.00  0.00    +0.068 A 
ATOM     28  C   UNL     1      15.169  -0.389   3.846  0.00  0.00    -0.023 A 
ATOM     29  C   UNL     1      15.397   0.233   2.675  0.00  0.00    -0.004 A 
ATOM     30  S   UNL     1      13.784   0.480   1.978  0.00  0.00    -0.077 S 
ATOM     31  C   UNL     1      16.866   0.458   2.436  0.00  0.00    +0.043 C 
ATOM     32  C   UNL     1      17.520   0.272   3.823  0.00  0.00    +0.010 C 
ATOM     33  C   UNL     1      16.510  -0.657   4.526  0.00  0.00    +0.037 C 
BRANCH  27  34
ATOM     34  C   UNL     1      13.326  -1.293   5.363  0.00  0.00    +0.244 C 
ATOM     35  O   UNL     1      13.208  -2.504   5.392  0.00  0.00    -0.270 OA
ATOM     36  N   UNL     1      13.060  -0.564   6.465  0.00  0.00    -0.325 N 
ATOM     37  H   UNL     1      13.154   0.401   6.442  0.00  0.00    +0.145 HD
ATOM     38  H   UNL     1      12.776  -1.004   7.281  0.00  0.00    +0.145 HD
ENDBRANCH  27  34
ENDBRANCH  24  26
ENDBRANCH  21  22
ENDBRANCH  20  21
ENDBRANCH   1  20
TORSDOF 7
