REMARK  Name = ZINC35664492
REMARK  13 active torsions:
REMARK  status: ('A' for Active; 'I' for Inactive)
REMARK    1  A    between atoms: C_1  and  C_2
REMARK    2  A    between atoms: C_2  and  N_3
REMARK    3  A    between atoms: C_4  and  C_24
REMARK    4  A    between atoms: C_5  and  C_19
REMARK    5  A    between atoms: C_6  and  C_11
REMARK    6  A    between atoms: C_13  and  C_18
REMARK    7  A    between atoms: C_16  and  C_17
REMARK    8  A    between atoms: C_19  and  O_21
REMARK    9  A    between atoms: O_21  and  C_22
REMARK   10  A    between atoms: C_22  and  C_23
REMARK   11  A    between atoms: C_24  and  N_25
REMARK   12  A    between atoms: C_29  and  C_32
REMARK   13  A    between atoms: C_33  and  C_35
REMARK                            x       y       z     vdW  Elec       q    Type
REMARK                         _______ _______ _______ _____ _____    ______ ____
ROOT
ATOM      1  N   UNL     1      -0.880  -0.357  -0.130  0.00  0.00    -0.258 N 
ATOM      2  C   UNL     1      -1.109  -0.365   1.216  0.00  0.00    +0.041 C 
ATOM      3  C   UNL     1      -2.344  -0.592   1.712  0.00  0.00    +0.080 C 
ATOM      4  C   UNL     1      -3.466  -0.838   0.724  0.00  0.00    +0.144 C 
ATOM      5  N   UNL     1      -3.115  -0.808  -0.706  0.00  0.00    -0.288 N 
ATOM      6  C   UNL     1      -1.834  -0.563  -1.046  0.00  0.00    +0.307 C 
ATOM      7  O   UNL     1      -1.534  -0.533  -2.224  0.00  0.00    -0.252 OA
ATOM      8  H   UNL     1      -3.789  -0.959  -1.386  0.00  0.00    +0.151 HD
ENDROOT
BRANCH   4   9
ATOM      9  C   UNL     1      -4.531   0.202   0.961  0.00  0.00    -0.019 A 
ATOM     10  C   UNL     1      -4.559   1.350   0.192  0.00  0.00    +0.009 A 
ATOM     11  C   UNL     1      -5.535   2.304   0.409  0.00  0.00    -0.050 A 
ATOM     12  C   UNL     1      -6.484   2.110   1.397  0.00  0.00    +0.003 A 
ATOM     13  C   UNL     1      -6.456   0.962   2.166  0.00  0.00    +0.004 A 
ATOM     14  C   UNL     1      -5.482   0.006   1.945  0.00  0.00    -0.045 A 
ATOM     15  C   UNL     1      -5.455  -1.249   2.780  0.00  0.00    +0.044 C 
ATOM     16  C   UNL     1      -5.566   3.556  -0.429  0.00  0.00    +0.044 C 
ENDBRANCH   4   9
BRANCH   1  18
ATOM     17  C   UNL     1       0.686   1.400  -0.793  0.00  0.00    +0.025 C 
ATOM     18  C   UNL     1       0.485  -0.104  -0.598  0.00  0.00    +0.111 C 
ENDBRANCH   1  18
BRANCH   3  19
ATOM     19  C   UNL     1      -2.583  -0.601   3.107  0.00  0.00    +0.339 C 
ATOM     20  O   UNL     1      -2.596  -1.655   3.715  0.00  0.00    -0.245 OA
BRANCH  19  21
ATOM     21  O   UNL     1      -2.795   0.559   3.762  0.00  0.00    -0.462 OA
BRANCH  21  22
ATOM     22  C   UNL     1      -2.919   0.488   5.184  0.00  0.00    +0.229 C 
ATOM     23  C   UNL     1      -3.276   1.869   5.735  0.00  0.00    +0.048 C 
ENDBRANCH  21  22
ENDBRANCH  19  21
ENDBRANCH   3  19
BRANCH   2  24
ATOM     24  C   UNL     1       0.036  -0.116   2.164  0.00  0.00    +0.136 C 
BRANCH  24  25
ATOM     25  N   UNL     1       0.991  -1.229   2.082  0.00  0.00    -0.294 NA
ATOM     26  C   UNL     1       0.389  -2.477   2.570  0.00  0.00    +0.104 C 
ATOM     27  C   UNL     1       1.347  -3.642   2.301  0.00  0.00    +0.124 C 
ATOM     28  N   UNL     1       2.657  -3.314   2.884  0.00  0.00    -0.292 N 
ATOM     29  C   UNL     1       3.263  -2.016   2.548  0.00  0.00    +0.087 C 
ATOM     30  C   UNL     1       2.229  -0.915   2.808  0.00  0.00    +0.107 C 
ATOM     31  C   UNL     1       4.497  -1.784   3.421  0.00  0.00    +0.029 C 
ATOM     32  C   UNL     1       3.286  -4.180   3.703  0.00  0.00    +0.254 C 
ATOM     33  O   UNL     1       4.308  -3.846   4.272  0.00  0.00    -0.269 OA
BRANCH  32  34
ATOM     34  C   UNL     1       2.738  -5.524   3.908  0.00  0.00    +0.074 A 
ATOM     35  C   UNL     1       3.131  -6.498   4.813  0.00  0.00    +0.021 A 
ATOM     36  C   UNL     1       2.419  -7.674   4.771  0.00  0.00    +0.008 A 
ATOM     37  C   UNL     1       1.411  -7.801   3.874  0.00  0.00    +0.046 A 
ATOM     38  S   UNL     1       1.389  -6.329   3.065  0.00  0.00    -0.092 S 
ENDBRANCH  32  34
ENDBRANCH  24  25
ENDBRANCH   2  24
TORSDOF 8
