REMARK  Name = ZINC37005501
REMARK  10 active torsions:
REMARK  status: ('A' for Active; 'I' for Inactive)
REMARK    1  A    between atoms: C_1  and  C_2
REMARK    2  A    between atoms: C_2  and  C_3
REMARK    3  A    between atoms: C_3  and  C_5
REMARK    4  A    between atoms: C_3  and  C_6
REMARK    5  A    between atoms: C_6  and  C_8
REMARK    6  A    between atoms: C_6  and  N_25
REMARK    7  A    between atoms: N_10  and  C_11
REMARK    8  A    between atoms: C_16  and  O_19
REMARK    9  A    between atoms: O_19  and  C_20
REMARK   10  A    between atoms: C_20  and  C_21
REMARK                            x       y       z     vdW  Elec       q    Type
REMARK                         _______ _______ _______ _____ _____    ______ ____
ROOT
ATOM      1  C   UNL     1       1.336  -2.509  -2.568  0.00  0.00    +0.199 C 
ATOM      2  O   UNL     1       0.695  -2.801  -3.556  0.00  0.00    -0.278 OA
ATOM      3  N   UNL     1       2.679  -2.620  -2.580  0.00  0.00    -0.314 N 
ATOM      4  H   UNL     1       3.192  -2.386  -1.790  0.00  0.00    +0.149 HD
ENDROOT
BRANCH   3   5
ATOM      5  C   UNL     1       3.365  -3.092  -3.785  0.00  0.00    +0.075 C 
ATOM      6  C   UNL     1       3.385  -4.622  -3.794  0.00  0.00    +0.022 C 
ATOM      7  C   UNL     1       4.101  -5.115  -5.053  0.00  0.00    +0.004 C 
ATOM      8  C   UNL     1       5.537  -4.586  -5.064  0.00  0.00    +0.032 C 
ATOM      9  C   UNL     1       5.516  -3.056  -5.055  0.00  0.00    +0.120 C 
ATOM     10  C   UNL     1       4.800  -2.563  -3.796  0.00  0.00    +0.054 C 
BRANCH   9  11
ATOM     11  O   UNL     1       6.857  -2.561  -5.065  0.00  0.00    -0.368 OA
BRANCH  11  12
ATOM     12  C   UNL     1       7.390  -2.353  -6.375  0.00  0.00    +0.273 C 
BRANCH  12  13
ATOM     13  C   UNL     1       8.822  -1.826  -6.265  0.00  0.00    +0.413 C 
ATOM     14  F   UNL     1       9.611  -2.758  -5.583  0.00  0.00    -0.168 F 
ATOM     15  F   UNL     1       9.343  -1.622  -7.547  0.00  0.00    -0.168 F 
ATOM     16  F   UNL     1       8.820  -0.615  -5.564  0.00  0.00    -0.168 F 
ENDBRANCH  12  13
ENDBRANCH  11  12
ENDBRANCH   9  11
ENDBRANCH   3   5
BRANCH   1  17
ATOM     17  C   UNL     1       0.630  -2.023  -1.329  0.00  0.00    +0.016 C 
BRANCH  17  18
ATOM     18  N   UNL     1      -0.780  -2.431  -1.376  0.00  0.00    +0.386 N 
ATOM     19  H   UNL     1      -1.252  -2.105  -0.546  0.00  0.00    -0.089 HD
ATOM     20  H   UNL     1      -1.219  -2.030  -2.192  0.00  0.00    -0.089 HD
ATOM     21  H   UNL     1      -0.838  -3.437  -1.423  0.00  0.00    -0.089 HD
ENDBRANCH  17  18
BRANCH  17  22
ATOM     22  C   UNL     1       0.718  -0.497  -1.257  0.00  0.00    -0.020 C 
ATOM     23  C   UNL     1       2.187  -0.073  -1.207  0.00  0.00    +0.006 C 
BRANCH  22  25
ATOM     24  C   UNL     1      -0.019   1.526   0.010  0.00  0.00    +0.004 C 
ATOM     25  C   UNL     1       0.002  -0.004   0.002  0.00  0.00    -0.001 C 
ENDBRANCH  22  25
ENDBRANCH  17  22
ENDBRANCH   1  17
TORSDOF 8
