REMARK  Name = ZINC24840098
REMARK  9 active torsions:
REMARK  status: ('A' for Active; 'I' for Inactive)
REMARK    1  A    between atoms: C_1  and  C_2
REMARK    2  A    between atoms: C_4  and  C_38
REMARK    3  A    between atoms: C_6  and  N_13
REMARK    4  A    between atoms: C_14  and  C_16
REMARK    5  A    between atoms: C_16  and  N_17
REMARK    6  A    between atoms: C_23  and  C_25
REMARK    7  A    between atoms: C_26  and  C_37
REMARK    8  A    between atoms: N_28  and  C_31
REMARK    9  A    between atoms: C_29  and  C_30
REMARK                            x       y       z     vdW  Elec       q    Type
REMARK                         _______ _______ _______ _____ _____    ______ ____
ROOT
ATOM      1  N   UNL     1       4.249  -0.356  -1.141  0.00  0.00    +0.397 N 
ATOM      2  C   UNL     1       5.699  -0.578  -1.263  0.00  0.00    -0.058 C 
ATOM      3  C   UNL     1       6.167  -1.429  -0.082  0.00  0.00    +0.085 C 
ATOM      4  N   UNL     1       5.681  -0.858   1.171  0.00  0.00    -0.318 N 
ATOM      5  C   UNL     1       4.672   0.015   1.226  0.00  0.00    +0.204 C 
ATOM      6  O   UNL     1       4.311   0.416   2.313  0.00  0.00    -0.277 OA
ATOM      7  C   UNL     1       3.966   0.524   0.001  0.00  0.00    +0.054 C 
ATOM      8  H   UNL     1       6.150  -1.143   2.124  0.00  0.00    +0.149 HD
ATOM      9  H   UNL     1       3.760  -1.325  -0.962  0.00  0.00    -0.079 HD
ENDROOT
BRANCH   7  10
ATOM     10  C   UNL     1       2.481   0.553   0.255  0.00  0.00    -0.009 A 
ATOM     11  C   UNL     1       1.629  -0.557   0.284  0.00  0.00    +0.063 A 
ATOM     12  N   UNL     1       0.416  -0.136   0.532  0.00  0.00    -0.171 NA
ATOM     13  N   UNL     1       0.455   1.257   0.670  0.00  0.00    -0.237 N 
ATOM     14  C   UNL     1       1.735   1.656   0.495  0.00  0.00    +0.044 A 
ATOM     15  C   UNL     1       2.241   3.074   0.556  0.00  0.00    +0.066 C 
ATOM     16  C   UNL     1       2.040  -1.991   0.067  0.00  0.00    +0.068 C 
BRANCH  13  17
ATOM     17  C   UNL     1      -0.640   2.091   0.936  0.00  0.00    +0.066 A 
ATOM     18  C   UNL     1      -0.479   3.217   1.732  0.00  0.00    +0.028 A 
ATOM     19  C   UNL     1      -1.559   4.040   1.988  0.00  0.00    +0.002 A 
ATOM     20  C   UNL     1      -2.801   3.738   1.461  0.00  0.00    +0.000 A 
ATOM     21  C   UNL     1      -2.965   2.614   0.672  0.00  0.00    +0.002 A 
ATOM     22  C   UNL     1      -1.888   1.790   0.408  0.00  0.00    +0.028 A 
ENDBRANCH  13  17
ENDBRANCH   7  10
BRANCH   1  23
ATOM     23  C   UNL     1       3.695   0.199  -2.383  0.00  0.00    +0.021 C 
BRANCH  23  25
ATOM     24  N   UNL     1       4.149   2.109  -3.887  0.00  0.00    -0.257 N 
ATOM     25  C   UNL     1       4.408   1.482  -2.722  0.00  0.00    +0.203 C 
ATOM     26  O   UNL     1       5.215   1.951  -1.948  0.00  0.00    -0.277 OA
ATOM     27  H   UNL     1       3.417   1.684  -4.590  0.00  0.00    +0.158 HD
BRANCH  24  33
ATOM     28  C   UNL     1       6.487   7.360  -6.229  0.00  0.00    +0.068 C 
ATOM     29  C   UNL     1       5.579   6.159  -6.308  0.00  0.00    +0.070 A 
ATOM     30  C   UNL     1       5.548   5.186  -5.212  0.00  0.00    +0.053 A 
ATOM     31  C   UNL     1       6.164   5.033  -4.021  0.00  0.00    +0.114 A 
ATOM     32  O   UNL     1       5.715   3.909  -3.433  0.00  0.00    -0.445 OA
ATOM     33  C   UNL     1       4.804   3.288  -4.199  0.00  0.00    +0.206 A 
ATOM     34  C   UNL     1       4.639   4.022  -5.348  0.00  0.00    +0.110 A 
ATOM     35  C   UNL     1       3.840   3.928  -6.566  0.00  0.00    +0.277 A 
ATOM     36  O   UNL     1       3.074   2.996  -6.736  0.00  0.00    -0.266 OA
ATOM     37  N   UNL     1       3.969   4.892  -7.501  0.00  0.00    -0.242 N 
ATOM     38  H   UNL     1       3.377   4.843  -8.428  0.00  0.00    +0.192 HD
ATOM     39  N   UNL     1       4.832   5.975  -7.352  0.00  0.00    -0.175 NA
ATOM     40  C   UNL     1       7.189   5.973  -3.440  0.00  0.00    +0.087 C 
ENDBRANCH  24  33
ENDBRANCH  23  25
ENDBRANCH   1  23
TORSDOF 5
