REMARK  Name = ZINC45986902
REMARK  12 active torsions:
REMARK  status: ('A' for Active; 'I' for Inactive)
REMARK    1  A    between atoms: C_1  and  C_2
REMARK    2  A    between atoms: C_2  and  N_3
REMARK    3  A    between atoms: N_3  and  C_4
REMARK    4  A    between atoms: N_3  and  C_6
REMARK    5  A    between atoms: C_4  and  C_5
REMARK    6  A    between atoms: C_6  and  C_7
REMARK    7  A    between atoms: C_11  and  C_13
REMARK    8  A    between atoms: C_13  and  N_14
REMARK    9  A    between atoms: N_17  and  C_18
REMARK   10  A    between atoms: C_21  and  C_25
REMARK   11  A    between atoms: C_23  and  C_24
REMARK   12  A    between atoms: N_27  and  C_28
REMARK                            x       y       z     vdW  Elec       q    Type
REMARK                         _______ _______ _______ _____ _____    ______ ____
ROOT
ATOM      1  N   UNL     1      -4.663  -1.028  -4.326  0.00  0.00    -0.295 N 
ATOM      2  C   UNL     1      -5.386  -0.793  -5.440  0.00  0.00    +0.304 C 
ATOM      3  O   UNL     1      -5.629  -1.703  -6.209  0.00  0.00    -0.252 OA
ATOM      4  N   UNL     1      -5.838   0.449  -5.700  0.00  0.00    -0.269 N 
ATOM      5  H   UNL     1      -4.469  -0.302  -3.713  0.00  0.00    +0.151 HD
ATOM      6  H   UNL     1      -5.589   1.187  -5.123  0.00  0.00    +0.156 HD
ENDROOT
BRANCH   4   7
ATOM      7  C   UNL     1      -6.666   0.673  -6.800  0.00  0.00    +0.038 A 
ATOM      8  C   UNL     1      -6.592  -0.167  -7.907  0.00  0.00    +0.024 A 
ATOM      9  C   UNL     1      -7.408   0.052  -8.994  0.00  0.00    +0.015 A 
ATOM     10  C   UNL     1      -8.311   1.119  -8.985  0.00  0.00    +0.037 A 
ATOM     11  C   UNL     1      -8.383   1.960  -7.872  0.00  0.00    +0.018 A 
ATOM     12  C   UNL     1      -7.567   1.733  -6.785  0.00  0.00    -0.028 A 
ATOM     13  C   UNL     1      -7.648   2.636  -5.582  0.00  0.00    +0.045 C 
BRANCH  10  14
ATOM     14  C   UNL     1      -9.186   1.356 -10.149  0.00  0.00    +0.244 C 
ATOM     15  O   UNL     1      -9.971   2.284 -10.140  0.00  0.00    -0.270 OA
ATOM     16  N   UNL     1      -9.115   0.544 -11.222  0.00  0.00    -0.314 N 
ATOM     17  C   UNL     1      -9.985   0.780 -12.378  0.00  0.00    +0.128 C 
ATOM     18  H   UNL     1      -8.489  -0.197 -11.230  0.00  0.00    +0.149 HD
ENDBRANCH  10  14
ENDBRANCH   4   7
BRANCH   1  19
ATOM     19  C   UNL     1      -4.171  -2.378  -4.043  0.00  0.00    +0.141 C 
BRANCH  19  24
ATOM     20  C   UNL     1      -1.328  -2.121  -1.572  0.00  0.00    -0.064 A 
ATOM     21  C   UNL     1      -1.980  -2.357  -0.376  0.00  0.00    +0.002 A 
ATOM     22  C   UNL     1      -3.341  -2.600  -0.367  0.00  0.00    +0.001 A 
ATOM     23  C   UNL     1      -4.050  -2.607  -1.554  0.00  0.00    +0.005 A 
ATOM     24  C   UNL     1      -3.398  -2.370  -2.750  0.00  0.00    -0.030 A 
ATOM     25  C   UNL     1      -2.038  -2.123  -2.758  0.00  0.00    +0.007 A 
BRANCH  20  26
ATOM     26  C   UNL     1       0.155  -1.856  -1.583  0.00  0.00    -0.043 C 
BRANCH  26  27
ATOM     27  N   UNL     1       0.396  -0.414  -1.443  0.00  0.00    +0.382 N 
ATOM     28  H   UNL     1      -0.106   0.082  -2.164  0.00  0.00    -0.081 HD
BRANCH  27  30
ATOM     29  C   UNL     1       0.054   1.558  -0.031  0.00  0.00    -0.017 C 
ATOM     30  C   UNL     1      -0.070   0.035  -0.124  0.00  0.00    -0.082 C 
ENDBRANCH  27  30
BRANCH  27  31
ATOM     31  C   UNL     1       1.834  -0.142  -1.573  0.00  0.00    -0.082 C 
ATOM     32  C   UNL     1       2.290  -0.479  -2.994  0.00  0.00    -0.017 C 
ENDBRANCH  27  31
ENDBRANCH  26  27
ENDBRANCH  20  26
ENDBRANCH  19  24
ENDBRANCH   1  19
TORSDOF 8
