REMARK  Name = ZINC26498914
REMARK  7 active torsions:
REMARK  status: ('A' for Active; 'I' for Inactive)
REMARK    1  A    between atoms: C_1  and  O_2
REMARK    2  A    between atoms: O_2  and  C_3
REMARK    3  A    between atoms: C_9  and  C_13
REMARK    4  A    between atoms: N_16  and  C_19
REMARK    5  A    between atoms: C_19  and  C_20
REMARK    6  A    between atoms: C_20  and  C_21
REMARK    7  A    between atoms: C_26  and  C_32
REMARK                            x       y       z     vdW  Elec       q    Type
REMARK                         _______ _______ _______ _____ _____    ______ ____
ROOT
ATOM      1  C   UNL     1      -7.318  -6.307   3.949  0.00  0.00    -0.046 C 
ATOM      2  C   UNL     1      -6.692  -5.168   4.161  0.00  0.00    -0.041 C 
ATOM      3  C   UNL     1      -6.688  -4.039   3.171  0.00  0.00    -0.051 C 
ATOM      4  N   UNL     1      -7.097  -4.523   1.847  0.00  0.00    +0.382 N 
ATOM      5  C   UNL     1      -8.358  -5.276   1.946  0.00  0.00    -0.074 C 
ATOM      6  C   UNL     1      -8.084  -6.588   2.686  0.00  0.00    +0.017 C 
ATOM      7  H   UNL     1      -6.315  -5.198   1.468  0.00  0.00    -0.081 HD
ENDROOT
BRANCH   1  14
ATOM      8  C   UNL     1      -3.966  -9.280   5.331  0.00  0.00    +0.121 A 
ATOM      9  C   UNL     1      -4.384 -10.098   6.377  0.00  0.00    +0.047 A 
ATOM     10  C   UNL     1      -5.656  -9.983   6.891  0.00  0.00    +0.030 A 
ATOM     11  C   UNL     1      -6.537  -9.043   6.366  0.00  0.00    +0.047 A 
ATOM     12  C   UNL     1      -6.119  -8.221   5.306  0.00  0.00    +0.010 A 
ATOM     13  C   UNL     1      -4.827  -8.341   4.796  0.00  0.00    +0.056 A 
ATOM     14  C   UNL     1      -7.264  -7.350   4.992  0.00  0.00    +0.003 A 
ATOM     15  C   UNL     1      -8.263  -7.697   5.844  0.00  0.00    +0.091 A 
ATOM     16  N   UNL     1      -7.841  -8.702   6.664  0.00  0.00    -0.360 N 
ATOM     17  H   UNL     1      -8.377  -9.227   7.468  0.00  0.00    +0.165 HD
BRANCH   8  19
ATOM     18  C   UNL     1      -1.869 -10.396   5.432  0.00  0.00    +0.277 C 
ATOM     19  O   UNL     1      -2.707  -9.406   4.833  0.00  0.00    -0.495 OA
ENDBRANCH   8  19
ENDBRANCH   1  14
BRANCH   4  20
ATOM     20  C   UNL     1      -7.221  -3.411   0.895  0.00  0.00    -0.076 C 
BRANCH  20  21
ATOM     21  C   UNL     1      -5.990  -2.509   1.001  0.00  0.00    +0.018 C 
BRANCH  21  22
ATOM     22  C   UNL     1      -6.120  -1.351   0.010  0.00  0.00    +0.147 C 
ATOM     23  C   UNL     1      -4.845  -0.547   0.018  0.00  0.00    -0.016 A 
ATOM     24  C   UNL     1      -3.634  -1.224   0.011  0.00  0.00    +0.007 A 
ATOM     25  C   UNL     1      -2.444  -0.529   0.005  0.00  0.00    +0.013 A 
ATOM     26  C   UNL     1      -2.458   0.867   0.018  0.00  0.00    +0.037 A 
ATOM     27  C   UNL     1      -3.677   1.543   0.028  0.00  0.00    +0.017 A 
ATOM     28  C   UNL     1      -4.865   0.834   0.028  0.00  0.00    -0.039 A 
ATOM     29  C   UNL     1      -6.163   1.600   0.043  0.00  0.00    +0.063 C 
ATOM     30  C   UNL     1      -7.311   0.680  -0.377  0.00  0.00    +0.165 C 
ATOM     31  O   UNL     1      -7.225  -0.529   0.385  0.00  0.00    -0.372 OA
BRANCH  26  32
ATOM     32  C   UNL     1      -1.187   1.624   0.017  0.00  0.00    +0.242 C 
ATOM     33  O   UNL     1      -1.204   2.839   0.023  0.00  0.00    -0.270 OA
ATOM     34  N   UNL     1      -0.011   0.966   0.007  0.00  0.00    -0.325 N 
ATOM     35  H   UNL     1       0.934   1.529   0.006  0.00  0.00    +0.145 HD
ATOM     36  H   UNL     1       0.004  -0.134   0.001  0.00  0.00    +0.145 HD
ENDBRANCH  26  32
ENDBRANCH  21  22
ENDBRANCH  20  21
ENDBRANCH   4  20
TORSDOF 6
