REMARK  Name = ZINC20023780
REMARK  4 active torsions:
REMARK  status: ('A' for Active; 'I' for Inactive)
REMARK    1  A    between atoms: C_2  and  N_19
REMARK    2  A    between atoms: C_6  and  S_7
REMARK    3  A    between atoms: S_7  and  N_10
REMARK    4  A    between atoms: C_14  and  N_16
REMARK                            x       y       z     vdW  Elec       q    Type
REMARK                         _______ _______ _______ _____ _____    ______ ____
ROOT
ATOM      1  S   UNL     1       1.235  -2.441  -0.023  0.00  0.00    +0.062 S 
ATOM      2  O   UNL     1       0.396  -3.071  -0.981  0.00  0.00    -0.153 OA
ATOM      3  O   UNL     1       2.648  -2.592  -0.032  0.00  0.00    -0.153 OA
ENDROOT
BRANCH   1   9
ATOM      4  C   UNL     1      -0.006  -0.236  -1.044  0.00  0.00    +0.067 A 
ATOM      5  C   UNL     1      -0.260   1.120  -1.128  0.00  0.00    +0.163 A 
ATOM      6  C   UNL     1       0.406   2.003  -0.295  0.00  0.00    +0.156 A 
ATOM      7  C   UNL     1       1.326   1.526   0.623  0.00  0.00    +0.081 A 
ATOM      8  C   UNL     1       1.580   0.169   0.706  0.00  0.00    +0.152 A 
ATOM      9  C   UNL     1       0.913  -0.712  -0.129  0.00  0.00    +0.143 A 
ATOM     10  F   UNL     1       2.478  -0.298   1.602  0.00  0.00    -0.203 F 
ATOM     11  F   UNL     1       0.157   3.328  -0.377  0.00  0.00    -0.203 F 
BRANCH   5  12
ATOM     12  N   UNL     1      -1.244   1.629  -2.110  0.00  0.00    +0.059 N 
ATOM     13  O   UNL     1      -1.830   0.853  -2.843  0.00  0.00    -0.126 OA
ATOM     14  O   UNL     1      -1.468   2.824  -2.184  0.00  0.00    -0.126 OA
ENDBRANCH   5  12
ENDBRANCH   1   9
BRANCH   1  15
ATOM     15  N   UNL     1       0.715  -2.946   1.466  0.00  0.00    -0.191 NA
ATOM     16  C   UNL     1       1.560  -3.102   2.664  0.00  0.00    +0.107 C 
ATOM     17  C   UNL     1       0.579  -2.971   3.858  0.00  0.00    +0.017 C 
ATOM     18  C   UNL     1      -0.677  -3.696   3.307  0.00  0.00    +0.002 C 
ATOM     19  C   UNL     1      -0.664  -3.320   1.810  0.00  0.00    +0.019 C 
BRANCH  19  20
ATOM     20  N   UNL     1      -1.564  -2.183   1.573  0.00  0.00    +0.389 N 
ATOM     21  H   UNL     1      -2.594  -2.470   1.833  0.00  0.00    -0.088 HD
ATOM     22  H   UNL     1      -1.520  -1.896   0.512  0.00  0.00    -0.088 HD
ATOM     23  H   UNL     1      -1.252  -1.333   2.197  0.00  0.00    -0.088 HD
ENDBRANCH  19  20
ENDBRANCH   1  15
TORSDOF 4
