REMARK  Name = ZINC39301683
REMARK  5 active torsions:
REMARK  status: ('A' for Active; 'I' for Inactive)
REMARK    1  A    between atoms: C_4  and  N_7
REMARK    2  A    between atoms: C_10  and  N_15
REMARK    3  A    between atoms: N_18  and  C_21
REMARK    4  A    between atoms: C_21  and  C_22
REMARK    5  A    between atoms: N_24  and  C_25
REMARK                            x       y       z     vdW  Elec       q    Type
REMARK                         _______ _______ _______ _____ _____    ______ ____
ROOT
ATOM      1  N   UNL     1       1.362  -4.845  -0.505  0.00  0.00    -0.319 N 
ATOM      2  C   UNL     1       1.422  -6.314  -0.504  0.00  0.00    +0.088 C 
ATOM      3  C   UNL     1       0.609  -6.835  -1.694  0.00  0.00    -0.059 C 
ATOM      4  N   UNL     1      -0.751  -6.283  -1.636  0.00  0.00    +0.387 N 
ATOM      5  C   UNL     1      -0.706  -4.824  -1.795  0.00  0.00    -0.059 C 
ATOM      6  C   UNL     1       0.041  -4.205  -0.604  0.00  0.00    +0.088 C 
ATOM      7  H   UNL     1      -1.166  -6.511  -0.745  0.00  0.00    -0.081 HD
ENDROOT
BRANCH   1  11
ATOM      8  N   UNL     1       3.603  -0.594  -0.099  0.00  0.00    -0.299 N 
ATOM      9  C   UNL     1       3.628  -1.977  -0.208  0.00  0.00    +0.130 A 
ATOM     10  C   UNL     1       2.442  -2.699  -0.302  0.00  0.00    +0.087 A 
ATOM     11  C   UNL     1       2.517  -4.084  -0.410  0.00  0.00    +0.128 A 
ATOM     12  N   UNL     1       3.713  -4.670  -0.420  0.00  0.00    -0.200 NA
ATOM     13  C   UNL     1       4.821  -3.950  -0.330  0.00  0.00    +0.216 A 
ATOM     14  N   UNL     1       4.788  -2.630  -0.230  0.00  0.00    -0.199 NA
ATOM     15  N   UNL     1       6.045  -4.595  -0.344  0.00  0.00    -0.327 N 
ATOM     16  H   UNL     1       2.757  -0.132   0.012  0.00  0.00    +0.154 HD
ATOM     17  H   UNL     1       6.084  -5.561  -0.420  0.00  0.00    +0.145 HD
ATOM     18  H   UNL     1       6.865  -4.080  -0.278  0.00  0.00    +0.145 HD
BRANCH   8  22
ATOM     19  C   UNL     1       7.156   1.574  -0.250  0.00  0.00    +0.000 A 
ATOM     20  C   UNL     1       7.064   0.354  -0.895  0.00  0.00    +0.002 A 
ATOM     21  C   UNL     1       5.887  -0.367  -0.847  0.00  0.00    +0.023 A 
ATOM     22  C   UNL     1       4.795   0.133  -0.149  0.00  0.00    +0.032 A 
ATOM     23  C   UNL     1       4.891   1.359   0.498  0.00  0.00    +0.023 A 
ATOM     24  C   UNL     1       6.071   2.075   0.445  0.00  0.00    +0.002 A 
ENDBRANCH   8  22
ENDBRANCH   1  11
BRANCH   4  25
ATOM     25  C   UNL     1      -1.561  -6.867  -2.713  0.00  0.00    +0.019 C 
BRANCH  25  26
ATOM     26  C   UNL     1      -2.987  -6.397  -2.580  0.00  0.00    +0.201 C 
ATOM     27  O   UNL     1      -3.297  -5.650  -1.677  0.00  0.00    -0.278 OA
ATOM     28  N   UNL     1      -3.917  -6.808  -3.465  0.00  0.00    -0.287 N 
ATOM     29  H   UNL     1      -3.688  -7.468  -4.138  0.00  0.00    +0.155 HD
BRANCH  28  30
ATOM     30  C   UNL     1      -5.213  -6.283  -3.412  0.00  0.00    +0.037 A 
ATOM     31  C   UNL     1      -5.429  -5.038  -2.844  0.00  0.00    +0.023 A 
ATOM     32  C   UNL     1      -6.709  -4.522  -2.792  0.00  0.00    +0.002 A 
ATOM     33  C   UNL     1      -7.764  -5.250  -3.303  0.00  0.00    +0.004 A 
ATOM     34  C   UNL     1      -7.553  -6.500  -3.873  0.00  0.00    -0.042 A 
ATOM     35  C   UNL     1      -6.279  -7.014  -3.937  0.00  0.00    -0.023 A 
ATOM     36  C   UNL     1      -5.973  -8.351  -4.560  0.00  0.00    +0.037 C 
ATOM     37  C   UNL     1      -7.245  -9.188  -4.685  0.00  0.00    +0.005 C 
ATOM     38  C   UNL     1      -8.318  -8.339  -5.376  0.00  0.00    +0.005 C 
ATOM     39  C   UNL     1      -8.754  -7.240  -4.402  0.00  0.00    +0.035 C 
ENDBRANCH  28  30
ENDBRANCH  25  26
ENDBRANCH   4  25
TORSDOF 5
