REMARK  Name = ZINC66982086
REMARK  8 active torsions:
REMARK  status: ('A' for Active; 'I' for Inactive)
REMARK    1  A    between atoms: C_1  and  C_2
REMARK    2  A    between atoms: C_2  and  C_4
REMARK    3  A    between atoms: C_2  and  C_21
REMARK    4  A    between atoms: C_4  and  N_5
REMARK    5  A    between atoms: N_8  and  C_9
REMARK    6  A    between atoms: C_11  and  N_17
REMARK    7  A    between atoms: C_18  and  C_20
REMARK    8  A    between atoms: C_21  and  N_22
REMARK                            x       y       z     vdW  Elec       q    Type
REMARK                         _______ _______ _______ _____ _____    ______ ____
ROOT
ATOM      1  N   UNL     1       2.679   0.059   0.832  0.00  0.00    -0.299 N 
ATOM      2  C   UNL     1       3.649  -0.214   1.726  0.00  0.00    +0.304 C 
ATOM      3  O   UNL     1       3.375  -0.778   2.768  0.00  0.00    -0.253 OA
ATOM      4  N   UNL     1       4.924   0.137   1.466  0.00  0.00    -0.267 N 
ATOM      5  H   UNL     1       2.898   0.509   0.001  0.00  0.00    +0.150 HD
ATOM      6  H   UNL     1       5.132   0.655   0.672  0.00  0.00    +0.156 HD
ENDROOT
BRANCH   4   7
ATOM      7  C   UNL     1       5.950  -0.247   2.341  0.00  0.00    +0.072 A 
ATOM      8  C   UNL     1       5.788  -1.357   3.156  0.00  0.00    +0.052 A 
ATOM      9  C   UNL     1       6.804  -1.735   4.021  0.00  0.00    +0.071 A 
ATOM     10  C   UNL     1       7.984  -0.999   4.069  0.00  0.00    +0.147 A 
ATOM     11  C   UNL     1       8.143   0.108   3.256  0.00  0.00    +0.080 A 
ATOM     12  C   UNL     1       7.132   0.483   2.389  0.00  0.00    +0.147 A 
ATOM     13  F   UNL     1       7.293   1.562   1.591  0.00  0.00    -0.203 F 
ATOM     14  F   UNL     1       8.974  -1.367   4.912  0.00  0.00    -0.203 F 
BRANCH   9  15
ATOM     15  N   UNL     1       6.643  -2.857   4.845  0.00  0.00    -0.283 N 
ATOM     16  C   UNL     1       5.935  -3.917   4.409  0.00  0.00    +0.214 C 
ATOM     17  O   UNL     1       5.518  -3.941   3.271  0.00  0.00    -0.276 OA
ATOM     18  C   UNL     1       5.662  -5.074   5.336  0.00  0.00    +0.109 C 
ATOM     19  H   UNL     1       7.041  -2.869   5.730  0.00  0.00    +0.155 HD
ENDBRANCH   9  15
ENDBRANCH   4   7
BRANCH   1  20
ATOM     20  C   UNL     1       1.293  -0.322   1.116  0.00  0.00    +0.107 C 
BRANCH  20  22
ATOM     21  C   UNL     1       0.385   1.627  -0.157  0.00  0.00    +0.007 C 
ATOM     22  C   UNL     1       0.399   0.100  -0.052  0.00  0.00    -0.014 C 
BRANCH  22  23
ATOM     23  C   UNL     1      -1.025  -0.408   0.186  0.00  0.00    -0.074 C 
BRANCH  23  24
ATOM     24  N   UNL     1      -1.855  -0.107  -0.987  0.00  0.00    +0.380 N 
ATOM     25  C   UNL     1      -3.252  -0.451  -0.698  0.00  0.00    -0.079 C 
ATOM     26  C   UNL     1      -4.134  -0.065  -1.888  0.00  0.00    -0.019 C 
ATOM     27  C   UNL     1      -3.666  -0.825  -3.132  0.00  0.00    -0.004 C 
ATOM     28  C   UNL     1      -2.186  -0.516  -3.381  0.00  0.00    -0.019 C 
ATOM     29  C   UNL     1      -1.377  -0.886  -2.136  0.00  0.00    -0.079 C 
ATOM     30  H   UNL     1      -1.791   0.878  -1.200  0.00  0.00    -0.082 HD
ENDBRANCH  23  24
ENDBRANCH  22  23
ENDBRANCH  20  22
ENDBRANCH   1  20
TORSDOF 6
