REMARK  Name = ZINC46529123
REMARK  8 active torsions:
REMARK  status: ('A' for Active; 'I' for Inactive)
REMARK    1  A    between atoms: C_1  and  N_2
REMARK    2  A    between atoms: N_2  and  C_3
REMARK    3  A    between atoms: N_2  and  C_12
REMARK    4  A    between atoms: C_3  and  C_4
REMARK    5  A    between atoms: C_7  and  C_10
REMARK    6  A    between atoms: C_12  and  C_13
REMARK    7  A    between atoms: N_15  and  C_16
REMARK    8  A    between atoms: C_21  and  C_22
REMARK                            x       y       z     vdW  Elec       q    Type
REMARK                         _______ _______ _______ _____ _____    ______ ____
ROOT
ATOM      1  C   UNL     1      -2.044  -0.128   1.307  0.00  0.00    +0.201 C 
ATOM      2  O   UNL     1      -1.436   0.517   2.135  0.00  0.00    -0.278 OA
ATOM      3  N   UNL     1      -3.320  -0.494   1.542  0.00  0.00    -0.286 N 
ATOM      4  H   UNL     1      -3.832  -0.940   0.850  0.00  0.00    +0.155 HD
ENDROOT
BRANCH   3   5
ATOM      5  C   UNL     1      -3.903  -0.231   2.780  0.00  0.00    +0.045 A 
ATOM      6  C   UNL     1      -3.109  -0.095   3.910  0.00  0.00    +0.024 A 
ATOM      7  C   UNL     1      -3.688   0.165   5.136  0.00  0.00    +0.002 A 
ATOM      8  C   UNL     1      -5.064   0.292   5.248  0.00  0.00    +0.001 A 
ATOM      9  C   UNL     1      -5.868   0.161   4.137  0.00  0.00    +0.015 A 
ATOM     10  C   UNL     1      -5.295  -0.097   2.889  0.00  0.00    +0.058 A 
BRANCH  10  11
ATOM     11  C   UNL     1      -6.149  -0.233   1.694  0.00  0.00    +0.243 C 
ATOM     12  O   UNL     1      -5.658  -0.551   0.628  0.00  0.00    -0.270 OA
ATOM     13  N   UNL     1      -7.475  -0.005   1.784  0.00  0.00    -0.325 N 
ATOM     14  H   UNL     1      -7.867   0.248   2.634  0.00  0.00    +0.145 HD
ATOM     15  H   UNL     1      -8.037  -0.095   0.998  0.00  0.00    +0.145 HD
ENDBRANCH  10  11
ENDBRANCH   3   5
BRANCH   1  16
ATOM     16  C   UNL     1      -1.373  -0.522   0.017  0.00  0.00    +0.019 C 
BRANCH  16  18
ATOM     17  C   UNL     1      -0.024   1.462  -0.005  0.00  0.00    -0.095 C 
ATOM     18  N   UNL     1       0.003  -0.007   0.003  0.00  0.00    +0.386 N 
ATOM     19  H   UNL     1       0.490  -0.330   0.825  0.00  0.00    -0.081 HD
BRANCH  18  20
ATOM     20  C   UNL     1       0.695  -0.491  -1.199  0.00  0.00    -0.043 C 
BRANCH  20  21
ATOM     21  C   UNL     1       2.140  -0.066  -1.152  0.00  0.00    -0.064 A 
ATOM     22  C   UNL     1       2.518   1.149  -1.697  0.00  0.00    +0.003 A 
ATOM     23  C   UNL     1       3.839   1.544  -1.657  0.00  0.00    +0.019 A 
ATOM     24  C   UNL     1       4.795   0.716  -1.066  0.00  0.00    +0.052 A 
ATOM     25  C   UNL     1       4.406  -0.508  -0.518  0.00  0.00    +0.019 A 
ATOM     26  C   UNL     1       3.081  -0.889  -0.560  0.00  0.00    +0.003 A 
BRANCH  24  27
ATOM     27  C   UNL     1       6.168   1.120  -1.022  0.00  0.00    +0.099 C 
ATOM     28  N   UNL     1       7.257   1.440  -0.987  0.00  0.00    -0.191 NA
ENDBRANCH  24  27
ENDBRANCH  20  21
ENDBRANCH  18  20
ENDBRANCH  16  18
ENDBRANCH   1  16
TORSDOF 7
