REMARK  Name = ZINC38655329
REMARK  10 active torsions:
REMARK  status: ('A' for Active; 'I' for Inactive)
REMARK    1  A    between atoms: C_1  and  O_2
REMARK    2  A    between atoms: O_2  and  C_3
REMARK    3  A    between atoms: C_6  and  O_9
REMARK    4  A    between atoms: O_9  and  C_10
REMARK    5  A    between atoms: C_10  and  C_11
REMARK    6  A    between atoms: C_11  and  O_13
REMARK    7  A    between atoms: O_13  and  C_14
REMARK    8  A    between atoms: C_21  and  N_35
REMARK    9  A    between atoms: C_22  and  C_33
REMARK   10  A    between atoms: C_23  and  C_25
REMARK                            x       y       z     vdW  Elec       q    Type
REMARK                         _______ _______ _______ _____ _____    ______ ____
ROOT
ATOM      1  C   UNL     1       3.892  -6.158  -6.863  0.00  0.00    +0.135 A 
ATOM      2  C   UNL     1       4.457  -5.287  -7.783  0.00  0.00    +0.047 A 
ATOM      3  C   UNL     1       5.064  -5.784  -8.920  0.00  0.00    +0.012 A 
ATOM      4  C   UNL     1       5.111  -7.148  -9.146  0.00  0.00    +0.008 A 
ATOM      5  C   UNL     1       4.548  -8.022  -8.230  0.00  0.00    +0.138 A 
ATOM      6  C   UNL     1       3.943  -7.525  -7.083  0.00  0.00    +0.093 A 
ATOM      7  O   UNL     1       4.584  -9.362  -8.434  0.00  0.00    -0.441 OA
ATOM      8  C   UNL     1       5.473  -9.885  -9.295  0.00  0.00    +0.199 C 
ATOM      9  C   UNL     1       6.075  -9.135 -10.248  0.00  0.00    +0.098 C 
ATOM     10  C   UNL     1       5.777  -7.669 -10.392  0.00  0.00    +0.099 C 
ENDROOT
BRANCH  10  11
ATOM     11  C   UNL     1       4.863  -7.459 -11.572  0.00  0.00    -0.016 A 
ATOM     12  C   UNL     1       3.609  -8.042 -11.586  0.00  0.00    +0.007 A 
ATOM     13  C   UNL     1       2.770  -7.850 -12.667  0.00  0.00    +0.020 A 
ATOM     14  C   UNL     1       3.184  -7.075 -13.736  0.00  0.00    +0.042 A 
ATOM     15  C   UNL     1       4.438  -6.491 -13.722  0.00  0.00    +0.040 A 
ATOM     16  C   UNL     1       5.276  -6.680 -12.637  0.00  0.00    +0.046 A 
ATOM     17 CL   UNL     1       6.847  -5.943 -12.616  0.00  0.00    -0.083 Cl
ATOM     18 CL   UNL     1       2.130  -6.835 -15.094  0.00  0.00    -0.083 Cl
ENDBRANCH  10  11
BRANCH   8  19
ATOM     19  N   UNL     1       5.781 -11.220  -9.206  0.00  0.00    -0.328 N 
ATOM     20  H   UNL     1       5.358 -11.771  -8.528  0.00  0.00    +0.145 HD
ATOM     21  H   UNL     1       6.421 -11.612  -9.820  0.00  0.00    +0.145 HD
ENDBRANCH   8  19
BRANCH   9  22
ATOM     22  C   UNL     1       7.016  -9.750 -11.135  0.00  0.00    +0.101 C 
ATOM     23  N   UNL     1       7.762 -10.238 -11.839  0.00  0.00    -0.191 NA
ENDBRANCH   9  22
BRANCH   1  24
ATOM     24  O   UNL     1       3.294  -5.671  -5.743  0.00  0.00    -0.423 OA
BRANCH  24  25
ATOM     25  C   UNL     1       2.066  -5.142  -5.864  0.00  0.00    +0.350 C 
ATOM     26  O   UNL     1       1.562  -5.028  -6.957  0.00  0.00    -0.247 OA
BRANCH  25  27
ATOM     27  C   UNL     1       1.315  -4.691  -4.638  0.00  0.00    +0.349 C 
BRANCH  27  28
ATOM     28  O   UNL     1       0.043  -4.168  -5.023  0.00  0.00    -0.481 OA
BRANCH  28  32
ATOM     29  C   UNL     1      -2.411  -2.792  -2.002  0.00  0.00    +0.120 A 
ATOM     30  C   UNL     1      -2.836  -2.734  -3.321  0.00  0.00    +0.049 A 
ATOM     31  C   UNL     1      -2.015  -3.194  -4.332  0.00  0.00    +0.049 A 
ATOM     32  C   UNL     1      -0.765  -3.714  -4.028  0.00  0.00    +0.122 A 
ATOM     33  C   UNL     1      -0.341  -3.772  -2.709  0.00  0.00    +0.049 A 
ATOM     34  C   UNL     1      -1.160  -3.308  -1.698  0.00  0.00    +0.049 A 
BRANCH  29  36
ATOM     35  C   UNL     1      -4.495  -1.821  -1.392  0.00  0.00    +0.277 C 
ATOM     36  O   UNL     1      -3.220  -2.339  -1.007  0.00  0.00    -0.495 OA
ENDBRANCH  29  36
ENDBRANCH  28  32
ENDBRANCH  27  28
ENDBRANCH  25  27
ENDBRANCH  24  25
ENDBRANCH   1  24
TORSDOF 9
