REMARK  Name = ZINC02789468
REMARK  9 active torsions:
REMARK  status: ('A' for Active; 'I' for Inactive)
REMARK    1  A    between atoms: C_1  and  N_2
REMARK    2  A    between atoms: C_5  and  C_7
REMARK    3  A    between atoms: C_10  and  S_19
REMARK    4  A    between atoms: N_11  and  C_12
REMARK    5  A    between atoms: C_12  and  C_13
REMARK    6  A    between atoms: S_19  and  C_20
REMARK    7  A    between atoms: C_20  and  C_21
REMARK    8  A    between atoms: N_25  and  C_26
REMARK    9  A    between atoms: C_26  and  C_27
REMARK                            x       y       z     vdW  Elec       q    Type
REMARK                         _______ _______ _______ _____ _____    ______ ____
ROOT
ATOM      1  C   UNL     1      -0.014   0.012  -0.002  0.00  0.00    +0.185 A 
ATOM      2  N   UNL     1       1.244  -0.360  -0.013  0.00  0.00    -0.127 NA
ATOM      3  N   UNL     1       2.008   0.673  -0.014  0.00  0.00    -0.122 NA
ATOM      4  C   UNL     1       1.284   1.769  -0.005  0.00  0.00    +0.192 A 
ATOM      5  N   UNL     1      -0.028   1.388   0.003  0.00  0.00    -0.298 N 
ENDROOT
BRANCH   1  10
ATOM      6  C   UNL     1      -4.724  -1.667   0.029  0.00  0.00    +0.172 C 
ATOM      7  N   UNL     1      -3.259  -1.643   0.017  0.00  0.00    -0.274 N 
ATOM      8  C   UNL     1      -2.449  -2.724   0.006  0.00  0.00    +0.108 A 
ATOM      9  C   UNL     1      -1.171  -2.288  -0.003  0.00  0.00    +0.052 A 
ATOM     10  C   UNL     1      -1.195  -0.878   0.003  0.00  0.00    +0.130 A 
ATOM     11  N   UNL     1      -2.456  -0.495   0.020  0.00  0.00    -0.168 NA
ENDBRANCH   1  10
BRANCH   5  12
ATOM     12  C   UNL     1      -1.204   2.261   0.010  0.00  0.00    +0.157 C 
BRANCH  12  13
ATOM     13  C   UNL     1      -1.609   2.560   1.455  0.00  0.00    +0.138 C 
ATOM     14  C   UNL     1      -2.899   3.409   1.487  0.00  0.00    +0.035 C 
ATOM     15  C   UNL     1      -2.682   4.377   2.672  0.00  0.00    +0.031 C 
ATOM     16  C   UNL     1      -1.287   3.997   3.215  0.00  0.00    +0.160 C 
ATOM     17  O   UNL     1      -0.609   3.379   2.099  0.00  0.00    -0.375 OA
ENDBRANCH  12  13
ENDBRANCH   5  12
BRANCH   4  18
ATOM     18  S   UNL     1       1.892   3.423  -0.003  0.00  0.00    -0.078 S 
BRANCH  18  19
ATOM     19  C   UNL     1       3.673   3.103  -0.017  0.00  0.00    +0.153 C 
BRANCH  19  20
ATOM     20  C   UNL     1       4.418   4.413  -0.018  0.00  0.00    +0.145 A 
ATOM     21  N   UNL     1       4.808   5.081   1.031  0.00  0.00    -0.133 NA
ATOM     22  N   UNL     1       5.411   6.157   0.671  0.00  0.00    -0.122 NA
ATOM     23  C   UNL     1       5.440   6.234  -0.639  0.00  0.00    +0.203 A 
ATOM     24  N   UNL     1       4.811   5.122  -1.120  0.00  0.00    -0.302 N 
ATOM     25  S   UNL     1       6.158   7.527  -1.597  0.00  0.00    -0.009 SA
BRANCH  24  26
ATOM     26  C   UNL     1       4.599   4.762  -2.524  0.00  0.00    +0.157 C 
BRANCH  26  27
ATOM     27  C   UNL     1       3.269   5.346  -3.005  0.00  0.00    +0.138 C 
ATOM     28  C   UNL     1       3.091   5.075  -4.511  0.00  0.00    +0.035 C 
ATOM     29  C   UNL     1       1.772   4.269  -4.598  0.00  0.00    +0.031 C 
ATOM     30  C   UNL     1       1.081   4.631  -3.259  0.00  0.00    +0.160 C 
ATOM     31  O   UNL     1       2.179   4.707  -2.320  0.00  0.00    -0.375 OA
ENDBRANCH  26  27
ENDBRANCH  24  26
ENDBRANCH  19  20
ENDBRANCH  18  19
ENDBRANCH   4  18
TORSDOF 8
