REMARK  Name = ZINC05322421
REMARK  9 active torsions:
REMARK  status: ('A' for Active; 'I' for Inactive)
REMARK    1  A    between atoms: C_1  and  C_2
REMARK    2  A    between atoms: C_6  and  C_7
REMARK    3  A    between atoms: N_9  and  C_10
REMARK    4  A    between atoms: C_12  and  C_17
REMARK    5  A    between atoms: C_12  and  C_18
REMARK    6  A    between atoms: C_13  and  C_15
REMARK    7  A    between atoms: C_13  and  C_16
REMARK    8  A    between atoms: C_20  and  C_24
REMARK    9  A    between atoms: C_20  and  C_25
REMARK                            x       y       z     vdW  Elec       q    Type
REMARK                         _______ _______ _______ _____ _____    ______ ____
ROOT
ATOM      1  C   UNL     1       0.077   5.700  -2.358  0.00  0.00    +0.280 C 
ATOM      2  O   UNL     1      -0.186   5.071  -3.365  0.00  0.00    -0.267 OA
ATOM      3  N   UNL     1       0.376   5.050  -1.216  0.00  0.00    -0.306 N 
ATOM      4  H   UNL     1       0.587   5.551  -0.413  0.00  0.00    +0.149 HD
ENDROOT
BRANCH   1  10
ATOM      5  C   UNL     1      -0.564   7.457  -4.859  0.00  0.00    +0.048 C 
ATOM      6  C   UNL     1      -0.209   7.939  -3.477  0.00  0.00    +0.011 A 
ATOM      7  C   UNL     1      -0.104   9.272  -3.051  0.00  0.00    +0.062 A 
ATOM      8  C   UNL     1       0.251   9.246  -1.707  0.00  0.00    +0.117 A 
ATOM      9  O   UNL     1       0.346   7.976  -1.337  0.00  0.00    -0.454 OA
ATOM     10  C   UNL     1       0.070   7.168  -2.386  0.00  0.00    +0.193 A 
ATOM     11  C   UNL     1       0.470  10.498  -0.895  0.00  0.00    +0.082 C 
ATOM     12  C   UNL     1       0.747  11.671  -1.840  0.00  0.00    -0.021 C 
ATOM     13  C   UNL     1      -0.351  11.781  -2.902  0.00  0.00    +0.086 C 
ATOM     14  C   UNL     1      -0.299  10.537  -3.777  0.00  0.00    +0.167 C 
ATOM     15  O   UNL     1      -0.411  10.584  -4.984  0.00  0.00    -0.292 OA
ATOM     16  C   UNL     1       2.095  11.455  -2.529  0.00  0.00    +0.012 C 
ATOM     17  C   UNL     1       0.796  12.968  -1.030  0.00  0.00    +0.012 C 
ENDBRANCH   1  10
BRANCH   3  18
ATOM     18  C   UNL     1       0.383   3.582  -1.188  0.00  0.00    +0.071 C 
ATOM     19  C   UNL     1       1.307   3.104  -0.068  0.00  0.00    +0.009 C 
ATOM     20  C   UNL     1       1.318   1.579  -0.002  0.00  0.00    -0.072 C 
ATOM     21  C   UNL     1      -1.049   1.551  -0.842  0.00  0.00    -0.072 C 
ATOM     22  C   UNL     1      -1.030   3.077  -0.900  0.00  0.00    +0.009 C 
ATOM     23  C   UNL     1      -0.958   0.983  -2.263  0.00  0.00    -0.010 C 
ATOM     24  C   UNL     1      -2.418   1.125  -0.266  0.00  0.00    -0.010 C 
ATOM     25  C   UNL     1       2.027   1.175   1.309  0.00  0.00    -0.010 C 
ATOM     26  C   UNL     1       2.153   1.022  -1.161  0.00  0.00    -0.010 C 
ATOM     27  N   UNL     1      -0.027   0.945   0.053  0.00  0.00    +0.386 N 
ATOM     28  H   UNL     1      -0.370   1.012   1.019  0.00  0.00    -0.084 HD
ATOM     29  H   UNL     1       0.076  -0.043  -0.206  0.00  0.00    -0.084 HD
ENDBRANCH   3  18
TORSDOF 2
