REMARK  Name = ZINC27353617
REMARK  10 active torsions:
REMARK  status: ('A' for Active; 'I' for Inactive)
REMARK    1  A    between atoms: C_1  and  C_2
REMARK    2  A    between atoms: C_7  and  N_8
REMARK    3  A    between atoms: C_9  and  C_11
REMARK    4  A    between atoms: C_11  and  N_12
REMARK    5  A    between atoms: N_12  and  C_13
REMARK    6  A    between atoms: N_12  and  C_14
REMARK    7  A    between atoms: C_14  and  C_16
REMARK    8  A    between atoms: C_14  and  C_17
REMARK    9  A    between atoms: N_23  and  C_24
REMARK   10  A    between atoms: N_23  and  C_25
REMARK                            x       y       z     vdW  Elec       q    Type
REMARK                         _______ _______ _______ _____ _____    ______ ____
ROOT
ATOM      1  N   UNL     1      -1.230  -1.852  -0.989  0.00  0.00    +0.390 N 
ATOM      2  C   UNL     1      -0.907  -1.340  -2.327  0.00  0.00    -0.095 C 
ATOM      3  H   UNL     1      -0.418  -2.527  -0.680  0.00  0.00    -0.081 HD
ENDROOT
BRANCH   1   4
ATOM      4  C   UNL     1      -1.304  -0.758  -0.011  0.00  0.00    -0.002 C 
ATOM      5  C   UNL     1      -1.543  -1.337   1.385  0.00  0.00    -0.005 C 
BRANCH   4   6
ATOM      6  C   UNL     1      -0.008   0.012  -0.020  0.00  0.00    +0.123 A 
ATOM      7  N   UNL     1       1.144  -0.636  -0.026  0.00  0.00    -0.201 NA
ATOM      8  C   UNL     1       2.290   0.041  -0.034  0.00  0.00    +0.217 A 
ATOM      9  N   UNL     1       2.275   1.369  -0.036  0.00  0.00    -0.181 NA
ATOM     10  C   UNL     1       1.115   2.017  -0.030  0.00  0.00    +0.222 A 
ATOM     11  N   UNL     1      -0.027   1.333  -0.022  0.00  0.00    -0.201 NA
ATOM     12  N   UNL     1       1.095   3.397  -0.033  0.00  0.00    -0.306 N 
ATOM     13  C   UNL     1      -0.185   4.110  -0.027  0.00  0.00    +0.132 C 
ATOM     14  C   UNL     1       2.352   4.148  -0.042  0.00  0.00    +0.132 C 
ATOM     15  N   UNL     1       3.492  -0.637  -0.040  0.00  0.00    -0.327 N 
ATOM     16  H   UNL     1       4.439  -0.077  -0.046  0.00  0.00    +0.145 HD
ATOM     17  H   UNL     1       3.503  -1.737  -0.038  0.00  0.00    +0.145 HD
ENDBRANCH   4   6
ENDBRANCH   1   4
BRANCH   1  18
ATOM     18  C   UNL     1      -2.478  -2.626  -1.008  0.00  0.00    +0.019 C 
BRANCH  18  20
ATOM     19  N   UNL     1      -3.302  -4.742  -1.989  0.00  0.00    -0.287 N 
ATOM     20  C   UNL     1      -2.283  -3.873  -1.831  0.00  0.00    +0.201 C 
ATOM     21  O   UNL     1      -1.210  -4.095  -2.350  0.00  0.00    -0.278 OA
ATOM     22  H   UNL     1      -4.245  -4.588  -1.446  0.00  0.00    +0.155 HD
BRANCH  19  29
ATOM     23  C   UNL     1      -4.908  -7.040  -1.508  0.00  0.00    +0.046 C 
ATOM     24  C   UNL     1      -3.923  -6.981  -2.647  0.00  0.00    -0.028 A 
ATOM     25  C   UNL     1      -3.783  -8.061  -3.497  0.00  0.00    +0.020 A 
ATOM     26  C   UNL     1      -2.874  -8.009  -4.539  0.00  0.00    +0.018 A 
ATOM     27  C   UNL     1      -2.107  -6.875  -4.736  0.00  0.00    +0.017 A 
ATOM     28  C   UNL     1      -2.247  -5.790  -3.893  0.00  0.00    +0.024 A 
ATOM     29  C   UNL     1      -3.158  -5.839  -2.846  0.00  0.00    +0.036 A 
ATOM     30 BR   UNL     1      -2.680  -9.492  -5.696  0.00  0.00    -0.050 Br
ENDBRANCH  19  29
ENDBRANCH  18  20
ENDBRANCH   1  18
TORSDOF 5
