REMARK  Name = ZINC28731278
REMARK  14 active torsions:
REMARK  status: ('A' for Active; 'I' for Inactive)
REMARK    1  A    between atoms: C_1  and  C_2
REMARK    2  A    between atoms: C_2  and  C_3
REMARK    3  A    between atoms: C_3  and  C_4
REMARK    4  A    between atoms: C_7  and  C_10
REMARK    5  A    between atoms: C_10  and  C_12
REMARK    6  A    between atoms: C_10  and  N_15
REMARK    7  A    between atoms: C_12  and  C_13
REMARK    8  A    between atoms: C_12  and  C_14
REMARK    9  A    between atoms: N_15  and  C_16
REMARK   10  A    between atoms: C_16  and  C_17
REMARK   11  A    between atoms: C_18  and  C_24
REMARK   12  A    between atoms: C_24  and  O_26
REMARK   13  A    between atoms: O_26  and  C_27
REMARK   14  A    between atoms: C_27  and  C_28
REMARK                            x       y       z     vdW  Elec       q    Type
REMARK                         _______ _______ _______ _____ _____    ______ ____
ROOT
ATOM      1  N   UNL     1      -4.191   4.625   5.334  0.00  0.00    +0.387 N 
ATOM      2  H   UNL     1      -3.529   5.111   6.066  0.00  0.00    -0.084 HD
ATOM      3  H   UNL     1      -4.195   5.206   4.400  0.00  0.00    -0.084 HD
ENDROOT
BRANCH   1   4
ATOM      4  C   UNL     1      -3.706   3.265   5.063  0.00  0.00    -0.038 C 
BRANCH   4   8
ATOM      5  C   UNL     1      -0.688   3.406   2.042  0.00  0.00    -0.047 A 
ATOM      6  C   UNL     1      -0.727   4.375   3.027  0.00  0.00    +0.004 A 
ATOM      7  C   UNL     1      -1.706   4.332   4.002  0.00  0.00    +0.002 A 
ATOM      8  C   UNL     1      -2.641   3.314   3.997  0.00  0.00    -0.061 A 
ATOM      9  C   UNL     1      -2.600   2.342   3.015  0.00  0.00    +0.002 A 
ATOM     10  C   UNL     1      -1.623   2.388   2.038  0.00  0.00    +0.004 A 
BRANCH   5  11
ATOM     11  C   UNL     1       0.376   3.455   0.977  0.00  0.00    +0.035 C 
BRANCH  11  13
ATOM     12  C   UNL     1       0.950   4.322  -1.295  0.00  0.00    +0.004 C 
ATOM     13  C   UNL     1      -0.131   4.272  -0.213  0.00  0.00    +0.001 C 
ENDBRANCH  11  13
ENDBRANCH   5  11
ENDBRANCH   4   8
BRANCH   4  14
ATOM     14  C   UNL     1      -3.119   2.668   6.343  0.00  0.00    -0.027 C 
ATOM     15  C   UNL     1      -2.717   1.213   6.090  0.00  0.00    +0.006 C 
ATOM     16  C   UNL     1      -1.887   3.472   6.763  0.00  0.00    +0.006 C 
ENDBRANCH   4  14
ENDBRANCH   1   4
BRANCH   1  17
ATOM     17  C   UNL     1      -5.555   4.599   5.878  0.00  0.00    -0.029 C 
BRANCH  17  18
ATOM     18  C   UNL     1      -6.065   6.009   6.024  0.00  0.00    +0.006 C 
ATOM     19  C   UNL     1      -7.104   6.422   5.266  0.00  0.00    +0.069 C 
ATOM     20  C   UNL     1      -7.585   7.848   5.445  0.00  0.00    +0.149 C 
ATOM     21  N   UNL     1      -6.875   8.672   6.437  0.00  0.00    -0.295 N 
ATOM     22  C   UNL     1      -5.853   8.117   7.118  0.00  0.00    +0.304 C 
ATOM     23  O   UNL     1      -5.260   8.789   7.940  0.00  0.00    -0.253 OA
ATOM     24  N   UNL     1      -5.472   6.848   6.924  0.00  0.00    -0.274 N 
ATOM     25  H   UNL     1      -7.182   9.714   6.608  0.00  0.00    +0.151 HD
ATOM     26  H   UNL     1      -4.632   6.491   7.538  0.00  0.00    +0.156 HD
BRANCH  19  27
ATOM     27  C   UNL     1      -7.723   5.552   4.338  0.00  0.00    +0.338 C 
ATOM     28  O   UNL     1      -7.487   5.663   3.150  0.00  0.00    -0.245 OA
BRANCH  27  29
ATOM     29  O   UNL     1      -8.575   4.599   4.770  0.00  0.00    -0.462 OA
BRANCH  29  30
ATOM     30  C   UNL     1      -9.164   3.756   3.778  0.00  0.00    +0.229 C 
ATOM     31  C   UNL     1     -10.093   2.746   4.453  0.00  0.00    +0.048 C 
ENDBRANCH  29  30
ENDBRANCH  27  29
ENDBRANCH  19  27
ENDBRANCH  17  18
ENDBRANCH   1  17
TORSDOF 10
