REMARK  Name = ZINC43222790
REMARK  13 active torsions:
REMARK  status: ('A' for Active; 'I' for Inactive)
REMARK    1  A    between atoms: C_1  and  C_2
REMARK    2  A    between atoms: C_2  and  C_4
REMARK    3  A    between atoms: C_2  and  N_12
REMARK    4  A    between atoms: C_4  and  C_5
REMARK    5  A    between atoms: C_5  and  C_6
REMARK    6  A    between atoms: C_13  and  C_15
REMARK    7  A    between atoms: C_20  and  C_22
REMARK    8  A    between atoms: N_24  and  C_25
REMARK    9  A    between atoms: C_25  and  C_27
REMARK   10  A    between atoms: C_25  and  C_28
REMARK   11  A    between atoms: C_28  and  C_29
REMARK   12  A    between atoms: C_29  and  C_30
REMARK   13  A    between atoms: C_29  and  C_31
REMARK                            x       y       z     vdW  Elec       q    Type
REMARK                         _______ _______ _______ _____ _____    ______ ____
ROOT
ATOM      1  C   UNL     1       2.783  -1.099   2.395  0.00  0.00    +0.068 C 
ATOM      2  C   UNL     1       2.362  -2.549   2.715  0.00  0.00    -0.069 C 
ATOM      3  N   UNL     1       3.395  -3.392   2.060  0.00  0.00    +0.380 N 
ATOM      4  C   UNL     1       4.666  -2.662   2.298  0.00  0.00    -0.069 C 
ATOM      5  C   UNL     1       4.299  -1.171   2.121  0.00  0.00    +0.068 C 
ATOM      6  H   UNL     1       3.427  -4.306   2.487  0.00  0.00    -0.086 HD
ATOM      7  H   UNL     1       3.212  -3.470   1.071  0.00  0.00    -0.086 HD
ENDROOT
BRANCH   1   9
ATOM      8  N   UNL     1       0.711  -0.489   1.189  0.00  0.00    -0.313 N 
ATOM      9  C   UNL     1       2.054  -0.600   1.174  0.00  0.00    +0.215 C 
ATOM     10  O   UNL     1       2.676  -0.297   0.177  0.00  0.00    -0.276 OA
ATOM     11  H   UNL     1       0.213  -0.731   1.986  0.00  0.00    +0.149 HD
BRANCH   8  13
ATOM     12  C   UNL     1      -0.019   1.526   0.010  0.00  0.00    +0.028 C 
ATOM     13  C   UNL     1       0.002  -0.004   0.002  0.00  0.00    +0.070 C 
BRANCH  13  14
ATOM     14  C   UNL     1      -1.433  -0.534   0.013  0.00  0.00    +0.026 C 
BRANCH  14  15
ATOM     15  C   UNL     1      -1.416  -2.058  -0.121  0.00  0.00    +0.037 C 
BRANCH  15  16
ATOM     16  C   UNL     1      -2.829  -2.579  -0.111  0.00  0.00    -0.047 A 
ATOM     17  C   UNL     1      -3.432  -2.917   1.087  0.00  0.00    +0.003 A 
ATOM     18  C   UNL     1      -4.729  -3.396   1.096  0.00  0.00    +0.000 A 
ATOM     19  C   UNL     1      -5.423  -3.536  -0.091  0.00  0.00    +0.000 A 
ATOM     20  C   UNL     1      -4.821  -3.197  -1.288  0.00  0.00    +0.000 A 
ATOM     21  C   UNL     1      -3.525  -2.714  -1.297  0.00  0.00    +0.003 A 
ENDBRANCH  15  16
ENDBRANCH  14  15
ENDBRANCH  13  14
ENDBRANCH   8  13
ENDBRANCH   1   9
BRANCH   5  22
ATOM     22  C   UNL     1       5.051  -0.323   3.115  0.00  0.00    +0.215 C 
ATOM     23  O   UNL     1       4.446   0.288   3.970  0.00  0.00    -0.276 OA
ATOM     24  N   UNL     1       6.395  -0.245   3.054  0.00  0.00    -0.313 N 
ATOM     25  H   UNL     1       6.878  -0.734   2.370  0.00  0.00    +0.149 HD
BRANCH  24  26
ATOM     26  C   UNL     1       7.125   0.579   4.021  0.00  0.00    +0.070 C 
ATOM     27  C   UNL     1       7.165   2.027   3.529  0.00  0.00    +0.028 C 
BRANCH  26  28
ATOM     28  C   UNL     1       8.554   0.050   4.165  0.00  0.00    +0.025 C 
BRANCH  28  29
ATOM     29  C   UNL     1       8.518  -1.353   4.774  0.00  0.00    -0.015 C 
ATOM     30  C   UNL     1       9.934  -1.932   4.803  0.00  0.00    +0.007 C 
ATOM     31  C   UNL     1       7.969  -1.277   6.200  0.00  0.00    +0.007 C 
ENDBRANCH  28  29
ENDBRANCH  26  28
ENDBRANCH  24  26
ENDBRANCH   5  22
TORSDOF 9
