REMARK  Name = ZINC40815355
REMARK  11 active torsions:
REMARK  status: ('A' for Active; 'I' for Inactive)
REMARK    1  A    between atoms: C_1  and  C_2
REMARK    2  A    between atoms: C_5  and  S_8
REMARK    3  A    between atoms: S_8  and  N_11
REMARK    4  A    between atoms: N_11  and  N_12
REMARK    5  A    between atoms: C_19  and  C_35
REMARK    6  A    between atoms: C_20  and  C_22
REMARK    7  A    between atoms: N_24  and  C_25
REMARK    8  A    between atoms: C_27  and  C_33
REMARK    9  A    between atoms: C_27  and  C_34
REMARK   10  A    between atoms: C_29  and  C_31
REMARK   11  A    between atoms: C_29  and  C_32
REMARK                            x       y       z     vdW  Elec       q    Type
REMARK                         _______ _______ _______ _____ _____    ______ ____
ROOT
ATOM      1  N   UNL     1       2.505  -4.251   0.844  0.00  0.00    -0.170 NA
ATOM      2  C   UNL     1       3.727  -4.681   0.886  0.00  0.00    +0.071 C 
ATOM      3  C   UNL     1       4.310  -5.592  -0.185  0.00  0.00    +0.058 C 
ATOM      4  C   UNL     1       5.143  -6.675   0.508  0.00  0.00    +0.014 C 
ATOM      5  C   UNL     1       6.345  -6.055   1.227  0.00  0.00    +0.075 C 
ATOM      6  C   UNL     1       5.869  -4.952   2.138  0.00  0.00    +0.115 A 
ATOM      7  C   UNL     1       4.661  -4.316   1.976  0.00  0.00    +0.042 A 
ATOM      8  C   UNL     1       4.551  -3.354   2.988  0.00  0.00    +0.009 A 
ATOM      9  C   UNL     1       5.702  -3.438   3.722  0.00  0.00    +0.193 A 
ATOM     10  O   UNL     1       6.478  -4.415   3.193  0.00  0.00    -0.454 OA
ATOM     11  C   UNL     1       3.396  -2.415   3.221  0.00  0.00    +0.048 C 
ENDROOT
BRANCH   9  12
ATOM     12  C   UNL     1       6.033  -2.618   4.892  0.00  0.00    +0.280 C 
ATOM     13  O   UNL     1       5.250  -1.774   5.285  0.00  0.00    -0.267 OA
ATOM     14  N   UNL     1       7.206  -2.799   5.531  0.00  0.00    -0.306 N 
ATOM     15  H   UNL     1       7.830  -3.471   5.218  0.00  0.00    +0.149 HD
BRANCH  14  16
ATOM     16  C   UNL     1       7.538  -1.978   6.703  0.00  0.00    +0.071 C 
ATOM     17  C   UNL     1       8.200  -0.680   6.236  0.00  0.00    +0.009 C 
ATOM     18  C   UNL     1       8.563   0.181   7.445  0.00  0.00    -0.072 C 
ATOM     19  N   UNL     1       9.376  -0.545   8.410  0.00  0.00    +0.386 N 
ATOM     20  C   UNL     1       8.951  -1.886   8.779  0.00  0.00    -0.072 C 
ATOM     21  C   UNL     1       8.532  -2.734   7.583  0.00  0.00    +0.009 C 
ATOM     22  C   UNL     1       7.827  -1.858   9.818  0.00  0.00    -0.010 C 
ATOM     23  C   UNL     1      10.160  -2.590   9.440  0.00  0.00    -0.010 C 
ATOM     24  C   UNL     1       7.299   0.762   8.078  0.00  0.00    -0.010 C 
ATOM     25  C   UNL     1       9.404   1.369   6.926  0.00  0.00    -0.010 C 
ATOM     26  H   UNL     1      10.332  -0.598   8.049  0.00  0.00    -0.084 HD
ATOM     27  H   UNL     1       9.442   0.018   9.262  0.00  0.00    -0.084 HD
ENDBRANCH  14  16
ENDBRANCH   9  12
BRANCH   1  28
ATOM     28  N   UNL     1       1.665  -4.629  -0.212  0.00  0.00    -0.136 N 
ATOM     29  H   UNL     1       1.999  -5.213  -0.912  0.00  0.00    +0.197 HD
BRANCH  28  30
ATOM     30  S   UNL     1       0.104  -4.081  -0.266  0.00  0.00    +0.086 S 
ATOM     31  O   UNL     1      -0.489  -4.420   0.980  0.00  0.00    -0.149 OA
ATOM     32  O   UNL     1      -0.435  -4.511  -1.509  0.00  0.00    -0.149 OA
BRANCH  30  37
ATOM     33  C   UNL     1       0.333   1.945  -0.480  0.00  0.00    +0.044 C 
ATOM     34  C   UNL     1       0.276   0.440  -0.427  0.00  0.00    -0.050 A 
ATOM     35  C   UNL     1       0.276  -0.294  -1.598  0.00  0.00    +0.005 A 
ATOM     36  C   UNL     1       0.224  -1.675  -1.549  0.00  0.00    +0.029 A 
ATOM     37  C   UNL     1       0.172  -2.321  -0.329  0.00  0.00    +0.110 A 
ATOM     38  C   UNL     1       0.172  -1.588   0.843  0.00  0.00    +0.029 A 
ATOM     39  C   UNL     1       0.229  -0.207   0.794  0.00  0.00    +0.005 A 
ENDBRANCH  30  37
ENDBRANCH  28  30
ENDBRANCH   1  28
TORSDOF 5
