REMARK  Name = ZINC42562432
REMARK  6 active torsions:
REMARK  status: ('A' for Active; 'I' for Inactive)
REMARK    1  A    between atoms: C_1  and  C_2
REMARK    2  A    between atoms: C_2  and  C_4
REMARK    3  A    between atoms: C_2  and  N_8
REMARK    4  A    between atoms: N_6  and  C_7
REMARK    5  A    between atoms: C_9  and  C_11
REMARK    6  A    between atoms: C_17  and  C_19
REMARK                            x       y       z     vdW  Elec       q    Type
REMARK                         _______ _______ _______ _____ _____    ______ ____
ROOT
ATOM      1  N   UNL     1      -1.372  -0.511   0.012  0.00  0.00    -0.304 N 
ATOM      2  C   UNL     1      -2.051  -0.643  -1.145  0.00  0.00    +0.217 C 
ATOM      3  O   UNL     1      -1.524  -0.341  -2.194  0.00  0.00    -0.275 OA
ATOM      4  H   UNL     1      -1.794  -0.752   0.852  0.00  0.00    +0.149 HD
ENDROOT
BRANCH   2   5
ATOM      5  C   UNL     1      -3.465  -1.164  -1.134  0.00  0.00    +0.089 C 
ATOM      6  C   UNL     1      -4.344  -0.237  -0.293  0.00  0.00    +0.013 C 
ATOM      7  C   UNL     1      -5.779  -0.766  -0.282  0.00  0.00    +0.001 C 
ATOM      8  C   UNL     1      -6.315  -0.817  -1.714  0.00  0.00    +0.001 C 
ATOM      9  C   UNL     1      -5.436  -1.745  -2.555  0.00  0.00    +0.015 C 
ATOM     10  C   UNL     1      -4.000  -1.215  -2.566  0.00  0.00    +0.114 C 
BRANCH  10  11
ATOM     11  C   UNL     1      -3.134  -2.129  -3.394  0.00  0.00    +0.360 C 
ATOM     12  O   UNL     1      -3.617  -2.744  -4.330  0.00  0.00    -0.246 OA
ATOM     13  O   UNL     1      -1.951  -2.253  -3.129  0.00  0.00    -0.246 OA
ENDBRANCH  10  11
ENDBRANCH   2   5
BRANCH   1  15
ATOM     14  C   UNL     1      -0.019   1.526   0.010  0.00  0.00    +0.038 C 
ATOM     15  C   UNL     1       0.002  -0.004   0.002  0.00  0.00    +0.156 C 
BRANCH  15  16
ATOM     16  C   UNL     1       0.731  -0.503   1.223  0.00  0.00    +0.233 C 
ATOM     17  O   UNL     1       0.159  -1.213   2.023  0.00  0.00    -0.274 OA
ATOM     18  N   UNL     1       2.019  -0.161   1.426  0.00  0.00    -0.317 N 
ATOM     19  C   UNL     1       2.727  -0.647   2.613  0.00  0.00    +0.128 C 
ATOM     20  H   UNL     1       2.476   0.406   0.786  0.00  0.00    +0.148 HD
ENDBRANCH  15  16
ENDBRANCH   1  15
TORSDOF 4
