REMARK  Name = ZINC48846261
REMARK  7 active torsions:
REMARK  status: ('A' for Active; 'I' for Inactive)
REMARK    1  A    between atoms: C_1  and  C_2
REMARK    2  A    between atoms: C_2  and  C_3
REMARK    3  A    between atoms: C_2  and  C_10
REMARK    4  A    between atoms: C_2  and  N_13
REMARK    5  A    between atoms: C_17  and  C_20
REMARK    6  A    between atoms: C_20  and  N_21
REMARK    7  A    between atoms: N_21  and  C_22
REMARK                            x       y       z     vdW  Elec       q    Type
REMARK                         _______ _______ _______ _____ _____    ______ ____
ROOT
ATOM      1  C   UNL     1       1.423  -0.215  -0.526  0.00  0.00    +0.007 C 
ATOM      2  C   UNL     1       0.002  -0.004   0.002  0.00  0.00    +0.061 C 
ENDROOT
BRANCH   2   3
ATOM      3  C   UNL     1      -0.354   1.458  -0.084  0.00  0.00    -0.047 A 
ATOM      4  C   UNL     1      -1.666   1.837  -0.300  0.00  0.00    +0.004 A 
ATOM      5  C   UNL     1      -1.993   3.178  -0.379  0.00  0.00    +0.015 A 
ATOM      6  C   UNL     1      -1.008   4.139  -0.241  0.00  0.00    +0.018 A 
ATOM      7  C   UNL     1       0.304   3.759  -0.025  0.00  0.00    +0.015 A 
ATOM      8  C   UNL     1       0.629   2.418   0.059  0.00  0.00    +0.004 A 
ATOM      9 BR   UNL     1      -1.456   5.974  -0.349  0.00  0.00    -0.050 Br
ENDBRANCH   2   3
BRANCH   2  10
ATOM     10  N   UNL     1      -0.942  -0.787  -0.806  0.00  0.00    +0.393 N 
ATOM     11  C   UNL     1      -0.520  -2.193  -0.824  0.00  0.00    -0.077 C 
ATOM     12  C   UNL     1      -1.544  -3.026  -1.597  0.00  0.00    -0.018 C 
ATOM     13  C   UNL     1      -1.641  -2.503  -3.033  0.00  0.00    -0.002 C 
ATOM     14  C   UNL     1      -2.009  -1.017  -3.001  0.00  0.00    -0.045 C 
ATOM     15  C   UNL     1      -0.968  -0.257  -2.175  0.00  0.00    -0.075 C 
ATOM     16  H   UNL     1      -1.865  -0.720  -0.404  0.00  0.00    -0.080 HD
BRANCH  14  17
ATOM     17  C   UNL     1      -2.033  -0.465  -4.427  0.00  0.00    -0.081 C 
BRANCH  17  18
ATOM     18  N   UNL     1      -3.110  -1.115  -5.186  0.00  0.00    +0.377 N 
ATOM     19  C   UNL     1      -3.133  -0.585  -6.556  0.00  0.00    -0.100 C 
ATOM     20  H   UNL     1      -2.949  -2.110  -5.213  0.00  0.00    -0.086 HD
ATOM     21  H   UNL     1      -3.996  -0.929  -4.738  0.00  0.00    -0.086 HD
ENDBRANCH  17  18
ENDBRANCH  14  17
ENDBRANCH   2  10
BRANCH   2  22
ATOM     22  C   UNL     1      -0.072  -0.455   1.438  0.00  0.00    +0.350 C 
ATOM     23  O   UNL     1       0.747  -0.053   2.246  0.00  0.00    -0.248 OA
ATOM     24  O   UNL     1      -0.951  -1.223   1.791  0.00  0.00    -0.248 OA
ENDBRANCH   2  22
TORSDOF 5
