REMARK  Name = ZINC07782925
REMARK  4 active torsions:
REMARK  status: ('A' for Active; 'I' for Inactive)
REMARK    1  A    between atoms: C_10  and  C_11
REMARK    2  A    between atoms: C_10  and  N_46
REMARK    3  A    between atoms: N_13  and  C_14
REMARK    4  A    between atoms: C_15  and  C_22
REMARK                            x       y       z     vdW  Elec       q    Type
REMARK                         _______ _______ _______ _____ _____    ______ ____
ROOT
ATOM      1  C   UNL     1      -1.893   5.023  -2.144  0.00  0.00    +0.201 C 
ATOM      2  O   UNL     1      -1.883   5.497  -1.028  0.00  0.00    -0.278 OA
ATOM      3  N   UNL     1      -2.402   5.730  -3.172  0.00  0.00    -0.281 N 
ATOM      4  H   UNL     1      -2.410   5.350  -4.065  0.00  0.00    +0.155 HD
ENDROOT
BRANCH   3   5
ATOM      5  C   UNL     1      -2.915   7.000  -2.955  0.00  0.00    +0.084 A 
ATOM      6  C   UNL     1      -3.469   7.873  -3.874  0.00  0.00    +0.068 A 
ATOM      7  C   UNL     1      -3.943   9.165  -3.381  0.00  0.00    -0.023 A 
ATOM      8  C   UNL     1      -3.776   9.369  -2.062  0.00  0.00    -0.004 A 
ATOM      9  S   UNL     1      -3.010   7.881  -1.468  0.00  0.00    -0.077 S 
ATOM     10  C   UNL     1      -4.285  10.718  -1.630  0.00  0.00    +0.043 C 
ATOM     11  C   UNL     1      -5.197  11.178  -2.788  0.00  0.00    +0.010 C 
ATOM     12  C   UNL     1      -4.602  10.407  -3.983  0.00  0.00    +0.037 C 
BRANCH   6  13
ATOM     13  C   UNL     1      -3.580   7.514  -5.292  0.00  0.00    +0.244 C 
ATOM     14  O   UNL     1      -4.579   6.950  -5.700  0.00  0.00    -0.270 OA
ATOM     15  N   UNL     1      -2.577   7.808  -6.142  0.00  0.00    -0.325 N 
ATOM     16  H   UNL     1      -1.781   8.257  -5.816  0.00  0.00    +0.145 HD
ATOM     17  H   UNL     1      -2.650   7.571  -7.080  0.00  0.00    +0.145 HD
ENDBRANCH   6  13
ENDBRANCH   3   5
BRANCH   1  18
ATOM     18  C   UNL     1      -1.336   3.643  -2.381  0.00  0.00    +0.019 C 
BRANCH  18  28
ATOM     19  C   UNL     1       1.697   0.306   2.197  0.00  0.00    +0.000 A 
ATOM     20  C   UNL     1       1.125  -0.581   1.304  0.00  0.00    +0.000 A 
ATOM     21  C   UNL     1       0.463  -0.104   0.195  0.00  0.00    +0.002 A 
ATOM     22  C   UNL     1       0.369   1.260  -0.036  0.00  0.00    -0.061 A 
ATOM     23  C   UNL     1       0.937   2.145   0.853  0.00  0.00    -0.048 A 
ATOM     24  C   UNL     1       1.603   1.665   1.972  0.00  0.00    +0.004 A 
ATOM     25  C   UNL     1       0.856   3.636   0.650  0.00  0.00    +0.017 C 
ATOM     26  C   UNL     1       0.474   3.943  -0.798  0.00  0.00    -0.073 C 
ATOM     27  C   UNL     1      -0.357   1.730  -1.269  0.00  0.00    -0.042 C 
ATOM     28  N   UNL     1      -0.728   3.148  -1.126  0.00  0.00    +0.388 N 
ATOM     29  H   UNL     1      -1.410   3.242  -0.365  0.00  0.00    -0.081 HD
ENDBRANCH  18  28
ENDBRANCH   1  18
TORSDOF 4
