REMARK  Name = ZINC38790118
REMARK  9 active torsions:
REMARK  status: ('A' for Active; 'I' for Inactive)
REMARK    1  A    between atoms: C_1  and  C_2
REMARK    2  A    between atoms: C_2  and  O_3
REMARK    3  A    between atoms: O_3  and  C_4
REMARK    4  A    between atoms: C_4  and  C_6
REMARK    5  A    between atoms: C_7  and  C_36
REMARK    6  A    between atoms: C_10  and  C_19
REMARK    7  A    between atoms: C_11  and  C_12
REMARK    8  A    between atoms: C_19  and  C_21
REMARK    9  A    between atoms: C_29  and  C_31
REMARK                            x       y       z     vdW  Elec       q    Type
REMARK                         _______ _______ _______ _____ _____    ______ ____
ROOT
ATOM      1  C   UNL     1       1.366  -2.828  -2.482  0.00  0.00    +0.088 A 
ATOM      2  C   UNL     1       2.727  -2.752  -2.711  0.00  0.00    +0.028 A 
ATOM      3  N   UNL     1       2.999  -3.266  -3.920  0.00  0.00    -0.354 N 
ATOM      4  H   UNL     1       3.882  -3.330  -4.316  0.00  0.00    +0.166 HD
ATOM      5  C   UNL     1       1.829  -3.691  -4.515  0.00  0.00    +0.101 A 
ATOM      6  C   UNL     1       0.781  -3.432  -3.628  0.00  0.00    +0.025 A 
ATOM      7  C   UNL     1       3.744  -2.182  -1.755  0.00  0.00    +0.064 C 
ENDROOT
BRANCH   6   8
ATOM      8  C   UNL     1      -0.651  -3.726  -3.840  0.00  0.00    -0.015 A 
ATOM      9  C   UNL     1      -1.304  -4.654  -3.025  0.00  0.00    +0.011 A 
ATOM     10  C   UNL     1      -2.641  -4.925  -3.227  0.00  0.00    +0.039 A 
ATOM     11  C   UNL     1      -3.337  -4.277  -4.237  0.00  0.00    +0.123 A 
ATOM     12  C   UNL     1      -2.693  -3.356  -5.049  0.00  0.00    +0.039 A 
ATOM     13  C   UNL     1      -1.359  -3.073  -4.851  0.00  0.00    +0.011 A 
ATOM     14  F   UNL     1      -4.646  -4.546  -4.431  0.00  0.00    -0.205 F 
ENDBRANCH   6   8
BRANCH   1  15
ATOM     15  C   UNL     1       0.656  -2.374  -1.276  0.00  0.00    +0.342 C 
ATOM     16  O   UNL     1       0.494  -3.136  -0.343  0.00  0.00    -0.245 OA
BRANCH  15  17
ATOM     17  O   UNL     1       0.186  -1.112  -1.206  0.00  0.00    -0.461 OA
BRANCH  17  19
ATOM     18  C   UNL     1      -0.951   0.717  -0.109  0.00  0.00    +0.048 C 
ATOM     19  C   UNL     1      -0.493  -0.739  -0.005  0.00  0.00    +0.229 C 
ENDBRANCH  17  19
ENDBRANCH  15  17
ENDBRANCH   1  15
BRANCH   5  20
ATOM     20  C   UNL     1       1.712  -4.287  -5.789  0.00  0.00    +0.264 C 
ATOM     21  O   UNL     1       0.619  -4.621  -6.206  0.00  0.00    -0.280 OA
BRANCH  20  22
ATOM     22  C   UNL     1       2.926  -4.506  -6.623  0.00  0.00    +0.289 C 
ATOM     23  O   UNL     1       4.029  -4.308  -6.155  0.00  0.00    -0.266 OA
ATOM     24  N   UNL     1       2.802  -4.926  -7.898  0.00  0.00    -0.292 N 
ATOM     25  C   UNL     1       1.480  -4.997  -8.536  0.00  0.00    +0.127 C 
ATOM     26  C   UNL     1       1.514  -4.172  -9.828  0.00  0.00    +0.127 C 
ATOM     27  N   UNL     1       2.697  -4.565 -10.605  0.00  0.00    -0.292 N 
ATOM     28  C   UNL     1       4.019  -4.493  -9.968  0.00  0.00    +0.127 C 
ATOM     29  C   UNL     1       3.986  -5.313  -8.677  0.00  0.00    +0.127 C 
ATOM     30  C   UNL     1       2.572  -4.984 -11.880  0.00  0.00    +0.282 C 
ATOM     31  O   UNL     1       3.527  -5.472 -12.457  0.00  0.00    -0.267 OA
BRANCH  30  32
ATOM     32  C   UNL     1       1.286  -4.853 -12.573  0.00  0.00    +0.189 A 
ATOM     33  C   UNL     1       1.022  -5.243 -13.854  0.00  0.00    +0.054 A 
ATOM     34  C   UNL     1      -0.324  -4.931 -14.101  0.00  0.00    +0.042 A 
ATOM     35  C   UNL     1      -0.816  -4.371 -12.974  0.00  0.00    +0.196 A 
ATOM     36  O   UNL     1       0.156  -4.330 -12.054  0.00  0.00    -0.458 OA
ENDBRANCH  30  32
ENDBRANCH  20  22
ENDBRANCH   5  20
TORSDOF 7
