REMARK  Name = ZINC58157823
REMARK  12 active torsions:
REMARK  status: ('A' for Active; 'I' for Inactive)
REMARK    1  A    between atoms: C_1  and  C_2
REMARK    2  A    between atoms: C_2  and  C_3
REMARK    3  A    between atoms: C_3  and  N_4
REMARK    4  A    between atoms: C_5  and  C_7
REMARK    5  A    between atoms: N_12  and  C_14
REMARK    6  A    between atoms: C_14  and  C_15
REMARK    7  A    between atoms: N_17  and  C_18
REMARK    8  A    between atoms: C_21  and  C_24
REMARK    9  A    between atoms: N_26  and  C_27
REMARK   10  A    between atoms: C_30  and  O_33
REMARK   11  A    between atoms: O_33  and  C_34
REMARK   12  A    between atoms: C_34  and  C_35
REMARK                            x       y       z     vdW  Elec       q    Type
REMARK                         _______ _______ _______ _____ _____    ______ ____
ROOT
ATOM      1  C   UNL     1       2.392  -8.096   4.777  0.00  0.00    +0.201 C 
ATOM      2  O   UNL     1       1.693  -8.687   3.981  0.00  0.00    -0.278 OA
ATOM      3  N   UNL     1       3.068  -8.782   5.719  0.00  0.00    -0.287 N 
ATOM      4  H   UNL     1       3.678  -8.317   6.313  0.00  0.00    +0.155 HD
ENDROOT
BRANCH   3   5
ATOM      5  C   UNL     1       2.890 -10.160   5.841  0.00  0.00    +0.033 A 
ATOM      6  C   UNL     1       2.692 -10.937   4.704  0.00  0.00    +0.024 A 
ATOM      7  C   UNL     1       2.516 -12.297   4.821  0.00  0.00    +0.015 A 
ATOM      8  C   UNL     1       2.537 -12.897   6.083  0.00  0.00    +0.037 A 
ATOM      9  C   UNL     1       2.736 -12.114   7.223  0.00  0.00    +0.015 A 
ATOM     10  C   UNL     1       2.916 -10.754   7.099  0.00  0.00    +0.024 A 
BRANCH   8  11
ATOM     11  C   UNL     1       2.348 -14.355   6.212  0.00  0.00    +0.248 C 
ATOM     12  O   UNL     1       2.175 -15.036   5.220  0.00  0.00    -0.270 OA
ATOM     13  N   UNL     1       2.368 -14.932   7.430  0.00  0.00    -0.281 N 
ATOM     14  H   UNL     1       2.432 -14.382   8.226  0.00  0.00    +0.155 HD
BRANCH  13  15
ATOM     15  C   UNL     1       2.296 -16.326   7.546  0.00  0.00    +0.034 A 
ATOM     16  C   UNL     1       1.641 -16.900   8.627  0.00  0.00    +0.027 A 
ATOM     17  C   UNL     1       1.570 -18.275   8.740  0.00  0.00    +0.047 A 
ATOM     18  C   UNL     1       2.154 -19.082   7.775  0.00  0.00    +0.121 A 
ATOM     19  C   UNL     1       2.808 -18.509   6.694  0.00  0.00    +0.047 A 
ATOM     20  C   UNL     1       2.875 -17.134   6.576  0.00  0.00    +0.027 A 
BRANCH  18  21
ATOM     21  O   UNL     1       2.084 -20.435   7.887  0.00  0.00    -0.492 OA
BRANCH  21  22
ATOM     22  C   UNL     1       2.707 -21.204   6.857  0.00  0.00    +0.225 C 
ATOM     23  C   UNL     1       2.526 -22.695   7.153  0.00  0.00    +0.048 C 
ENDBRANCH  21  22
ENDBRANCH  18  21
ENDBRANCH  13  15
ENDBRANCH   8  11
ENDBRANCH   3   5
BRANCH   1  24
ATOM     24  C   UNL     1       2.504  -6.595   4.711  0.00  0.00    +0.019 C 
BRANCH  24  29
ATOM     25  C   UNL     1       0.764  -4.090   2.524  0.00  0.00    +0.058 C 
ATOM     26  C   UNL     1       1.259  -4.589   1.164  0.00  0.00    +0.009 C 
ATOM     27  C   UNL     1       1.318  -6.120   1.183  0.00  0.00    -0.018 C 
ATOM     28  C   UNL     1       2.220  -6.576   2.331  0.00  0.00    -0.078 C 
ATOM     29  N   UNL     1       1.679  -6.089   3.606  0.00  0.00    +0.386 N 
ATOM     30  C   UNL     1       1.686  -4.622   3.624  0.00  0.00    -0.065 C 
ATOM     31  H   UNL     1       0.732  -6.421   3.717  0.00  0.00    -0.081 HD
BRANCH  25  33
ATOM     32  N   UNL     1       0.033  -1.893   1.654  0.00  0.00    -0.315 N 
ATOM     33  C   UNL     1       0.775  -2.583   2.542  0.00  0.00    +0.214 C 
ATOM     34  O   UNL     1       1.453  -1.992   3.356  0.00  0.00    -0.276 OA
ATOM     35  H   UNL     1      -0.509  -2.366   1.004  0.00  0.00    +0.149 HD
BRANCH  32  36
ATOM     36  C   UNL     1       0.044  -0.428   1.672  0.00  0.00    +0.104 C 
BRANCH  36  38
ATOM     37  C   UNL     1      -0.864   1.632   0.589  0.00  0.00    +0.005 C 
ATOM     38  C   UNL     1      -0.876   0.102   0.570  0.00  0.00    +0.015 C 
ENDBRANCH  36  38
ENDBRANCH  32  36
ENDBRANCH  25  33
ENDBRANCH  24  29
ENDBRANCH   1  24
TORSDOF 10
