REMARK  Name = ZINC39675394
REMARK  9 active torsions:
REMARK  status: ('A' for Active; 'I' for Inactive)
REMARK    1  A    between atoms: C_1  and  C_2
REMARK    2  A    between atoms: C_2  and  C_4
REMARK    3  A    between atoms: C_2  and  N_14
REMARK    4  A    between atoms: C_4  and  C_5
REMARK    5  A    between atoms: C_5  and  C_6
REMARK    6  A    between atoms: C_9  and  O_12
REMARK    7  A    between atoms: O_12  and  C_13
REMARK    8  A    between atoms: C_15  and  C_17
REMARK    9  A    between atoms: C_28  and  C_30
REMARK                            x       y       z     vdW  Elec       q    Type
REMARK                         _______ _______ _______ _____ _____    ______ ____
ROOT
ATOM      1  C   UNL     1       1.093  -0.838   4.001  0.00  0.00    +0.100 C 
ATOM      2  C   UNL     1       1.403  -2.302   3.616  0.00  0.00    +0.121 C 
ATOM      3  N   UNL     1       1.107  -3.082   4.840  0.00  0.00    -0.296 N 
ATOM      4  C   UNL     1      -0.114  -2.450   5.394  0.00  0.00    +0.115 C 
ATOM      5  C   UNL     1       0.097  -0.940   5.168  0.00  0.00    -0.004 C 
ATOM      6  C   UNL     1       0.682  -0.295   6.421  0.00  0.00    -0.010 C 
ATOM      7  C   UNL     1      -0.349  -0.358   7.551  0.00  0.00    -0.082 C 
ATOM      8  N   UNL     1      -1.571   0.344   7.141  0.00  0.00    +0.379 N 
ATOM      9  C   UNL     1      -2.178  -0.337   5.992  0.00  0.00    -0.082 C 
ATOM     10  C   UNL     1      -1.224  -0.274   4.795  0.00  0.00    -0.010 C 
ATOM     11  C   UNL     1       1.794  -4.130   5.338  0.00  0.00    +0.249 C 
ATOM     12  O   UNL     1       1.370  -4.728   6.308  0.00  0.00    -0.270 OA
ATOM     13  H   UNL     1      -2.225   0.354   7.909  0.00  0.00    -0.086 HD
ATOM     14  H   UNL     1      -1.342   1.293   6.885  0.00  0.00    -0.086 HD
ENDROOT
BRANCH  11  15
ATOM     15  C   UNL     1       3.060  -4.551   4.706  0.00  0.00    +0.073 A 
ATOM     16  C   UNL     1       3.220  -4.453   3.322  0.00  0.00    +0.036 A 
ATOM     17  C   UNL     1       4.405  -4.848   2.737  0.00  0.00    +0.042 A 
ATOM     18  C   UNL     1       5.438  -5.341   3.519  0.00  0.00    +0.023 A 
ATOM     19  C   UNL     1       5.288  -5.441   4.889  0.00  0.00    +0.040 A 
ATOM     20  C   UNL     1       4.107  -5.044   5.490  0.00  0.00    +0.136 A 
ATOM     21  F   UNL     1       3.964  -5.137   6.830  0.00  0.00    -0.205 F 
ATOM     22 CL   UNL     1       4.604  -4.728   1.017  0.00  0.00    -0.084 Cl
ENDBRANCH  11  15
BRANCH   1  24
ATOM     23  N   UNL     1       0.641   1.219   2.704  0.00  0.00    -0.312 N 
ATOM     24  C   UNL     1       0.467  -0.111   2.839  0.00  0.00    +0.218 C 
ATOM     25  O   UNL     1      -0.192  -0.722   2.025  0.00  0.00    -0.275 OA
ATOM     26  H   UNL     1       1.169   1.708   3.354  0.00  0.00    +0.149 HD
BRANCH  23  28
ATOM     27  C   UNL     1      -1.410   2.298   1.922  0.00  0.00    +0.028 C 
ATOM     28  C   UNL     1       0.033   1.926   1.574  0.00  0.00    +0.070 C 
BRANCH  28  29
ATOM     29  C   UNL     1       0.831   3.197   1.279  0.00  0.00    +0.026 C 
BRANCH  29  30
ATOM     30  C   UNL     1       2.237   2.820   0.810  0.00  0.00    +0.037 C 
BRANCH  30  31
ATOM     31  C   UNL     1       3.023   4.073   0.520  0.00  0.00    -0.047 A 
ATOM     32  C   UNL     1       2.995   4.627  -0.747  0.00  0.00    +0.007 A 
ATOM     33  C   UNL     1       3.715   5.775  -1.016  0.00  0.00    +0.046 A 
ATOM     34  C   UNL     1       4.466   6.372  -0.014  0.00  0.00    +0.120 A 
ATOM     35  C   UNL     1       4.493   5.814   1.256  0.00  0.00    +0.046 A 
ATOM     36  C   UNL     1       3.767   4.669   1.521  0.00  0.00    +0.007 A 
BRANCH  34  37
ATOM     37  O   UNL     1       5.175   7.501  -0.276  0.00  0.00    -0.495 OA
ATOM     38  C   UNL     1       5.926   8.061   0.803  0.00  0.00    +0.277 C 
ENDBRANCH  34  37
ENDBRANCH  30  31
ENDBRANCH  29  30
ENDBRANCH  28  29
ENDBRANCH  23  28
ENDBRANCH   1  24
TORSDOF 7
