REMARK  Name = ZINC67095383
REMARK  9 active torsions:
REMARK  status: ('A' for Active; 'I' for Inactive)
REMARK    1  A    between atoms: C_1  and  N_2
REMARK    2  A    between atoms: N_2  and  C_3
REMARK    3  A    between atoms: C_7  and  C_10
REMARK    4  A    between atoms: C_10  and  N_11
REMARK    5  A    between atoms: N_11  and  C_12
REMARK    6  A    between atoms: C_15  and  S_22
REMARK    7  A    between atoms: C_17  and  S_18
REMARK    8  A    between atoms: S_18  and  C_21
REMARK    9  A    between atoms: S_22  and  N_25
REMARK                            x       y       z     vdW  Elec       q    Type
REMARK                         _______ _______ _______ _____ _____    ______ ____
ROOT
ATOM      1  C   UNL     1      -1.646  -3.570  -6.570  0.00  0.00    +0.053 A 
ATOM      2  C   UNL     1      -0.593  -3.979  -7.379  0.00  0.00    +0.027 A 
ATOM      3  C   UNL     1      -0.851  -4.603  -8.583  0.00  0.00    +0.030 A 
ATOM      4  C   UNL     1      -2.156  -4.821  -8.985  0.00  0.00    +0.107 A 
ATOM      5  C   UNL     1      -3.207  -4.415  -8.183  0.00  0.00    +0.057 A 
ATOM      6  C   UNL     1      -2.956  -3.796  -6.974  0.00  0.00    +0.110 A 
ENDROOT
BRANCH   6   7
ATOM      7  S   UNL     1      -4.295  -3.286  -5.949  0.00  0.00    -0.004 S 
ATOM      8  O   UNL     1      -4.022  -1.925  -5.647  0.00  0.00    -0.170 OA
ATOM      9  O   UNL     1      -5.464  -3.647  -6.674  0.00  0.00    -0.170 OA
ATOM     10  C   UNL     1      -4.150  -4.300  -4.453  0.00  0.00    +0.200 C 
ENDBRANCH   6   7
BRANCH   4  11
ATOM     11  S   UNL     1      -2.481  -5.618 -10.523  0.00  0.00    +0.056 S 
ATOM     12  O   UNL     1      -3.784  -5.214 -10.922  0.00  0.00    -0.153 OA
ATOM     13  O   UNL     1      -1.336  -5.409 -11.338  0.00  0.00    -0.153 OA
BRANCH  11  14
ATOM     14  N   UNL     1      -2.560  -7.245 -10.225  0.00  0.00    -0.204 NA
ATOM     15  H   UNL     1      -2.434  -7.579  -9.323  0.00  0.00    +0.144 HD
ATOM     16  H   UNL     1      -2.733  -7.863 -10.952  0.00  0.00    +0.144 HD
ENDBRANCH  11  14
ENDBRANCH   4  11
BRANCH   1  17
ATOM     17  N   UNL     1      -1.389  -2.939  -5.351  0.00  0.00    -0.338 N 
ATOM     18  H   UNL     1      -2.125  -2.658  -4.786  0.00  0.00    +0.146 HD
BRANCH  17  19
ATOM     19  C   UNL     1      -0.007  -2.702  -4.927  0.00  0.00    +0.138 C 
BRANCH  19  26
ATOM     20  C   UNL     1      -0.018   1.461   0.010  0.00  0.00    +0.130 C 
ATOM     21  N   UNL     1       0.002  -0.004   0.002  0.00  0.00    -0.323 N 
ATOM     22  C   UNL     1       0.024  -0.743   1.267  0.00  0.00    +0.130 C 
ATOM     23  C   UNL     1       0.000  -0.693  -1.206  0.00  0.00    +0.098 A 
ATOM     24  C   UNL     1       0.013  -2.084  -1.206  0.00  0.00    +0.042 A 
ATOM     25  C   UNL     1       0.011  -2.756  -2.415  0.00  0.00    +0.010 A 
ATOM     26  C   UNL     1      -0.004  -2.012  -3.587  0.00  0.00    -0.014 A 
ATOM     27  C   UNL     1      -0.017  -0.633  -3.513  0.00  0.00    +0.089 A 
ATOM     28  N   UNL     1      -0.020  -0.019  -2.345  0.00  0.00    -0.349 N 
ATOM     29  H   UNL     1      -0.033   0.951  -2.321  0.00  0.00    +0.167 HD
ENDBRANCH  19  26
ENDBRANCH  17  19
ENDBRANCH   1  17
TORSDOF 6
