REMARK  Name = ZINC63262614
REMARK  6 active torsions:
REMARK  status: ('A' for Active; 'I' for Inactive)
REMARK    1  A    between atoms: C_1  and  C_2
REMARK    2  A    between atoms: C_5  and  C_18
REMARK    3  A    between atoms: N_9  and  C_11
REMARK    4  A    between atoms: N_20  and  C_21
REMARK    5  A    between atoms: C_21  and  C_22
REMARK    6  A    between atoms: C_22  and  C_23
REMARK                            x       y       z     vdW  Elec       q    Type
REMARK                         _______ _______ _______ _____ _____    ______ ____
ROOT
ATOM      1  C   UNL     1      -0.018   1.503   0.010  0.00  0.00    +0.062 C 
ATOM      2  C   UNL     1       0.002  -0.004   0.002  0.00  0.00    +0.025 C 
ATOM      3  C   UNL     1      -1.103  -0.781   0.003  0.00  0.00    +0.004 C 
ATOM      4  C   UNL     1      -2.481  -0.815  -0.236  0.00  0.00    +0.027 C 
ATOM      5  C   UNL     1      -3.055  -1.941  -0.762  0.00  0.00    +0.072 C 
ATOM      6  S   UNL     1      -1.698  -3.107  -0.865  0.00  0.00    -0.091 S 
ATOM      7  C   UNL     1      -0.557  -2.200   0.250  0.00  0.00    +0.188 C 
ATOM      8  N   UNL     1       0.799  -2.106  -0.290  0.00  0.00    -0.236 N 
ATOM      9  N   UNL     1       1.146  -0.762  -0.013  0.00  0.00    -0.267 N 
ATOM     10  H   UNL     1       2.044  -0.433   0.142  0.00  0.00    +0.170 HD
ENDROOT
BRANCH   8  11
ATOM     11  C   UNL     1       1.559  -3.092  -0.925  0.00  0.00    +0.049 A 
ATOM     12  C   UNL     1       1.032  -4.362  -1.115  0.00  0.00    +0.026 A 
ATOM     13  C   UNL     1       1.786  -5.335  -1.742  0.00  0.00    +0.022 A 
ATOM     14  C   UNL     1       3.066  -5.044  -2.181  0.00  0.00    +0.041 A 
ATOM     15  C   UNL     1       3.594  -3.779  -1.992  0.00  0.00    +0.022 A 
ATOM     16  C   UNL     1       2.842  -2.801  -1.371  0.00  0.00    +0.026 A 
ATOM     17 CL   UNL     1       4.011  -6.269  -2.968  0.00  0.00    -0.084 Cl
ENDBRANCH   8  11
BRANCH   5  18
ATOM     18  C   UNL     1      -4.408  -2.138  -1.137  0.00  0.00    +0.250 C 
ATOM     19  O   UNL     1      -5.215  -1.236  -1.003  0.00  0.00    -0.270 OA
ATOM     20  N   UNL     1      -4.801  -3.324  -1.643  0.00  0.00    -0.311 N 
ATOM     21  H   UNL     1      -4.158  -4.043  -1.750  0.00  0.00    +0.149 HD
BRANCH  20  22
ATOM     22  C   UNL     1      -6.199  -3.529  -2.031  0.00  0.00    +0.109 C 
BRANCH  22  23
ATOM     23  C   UNL     1      -6.376  -4.949  -2.570  0.00  0.00    +0.052 C 
BRANCH  23  24
ATOM     24  C   UNL     1      -7.814  -5.159  -2.969  0.00  0.00    -0.040 C 
ATOM     25  C   UNL     1      -8.344  -5.017  -4.205  0.00  0.00    -0.001 A 
ATOM     26  C   UNL     1      -7.763  -4.638  -5.499  0.00  0.00    +0.010 A 
ATOM     27  C   UNL     1      -8.565  -4.579  -6.586  0.00  0.00    +0.001 A 
ATOM     28  C   UNL     1      -9.933  -4.872  -6.510  0.00  0.00    +0.002 A 
ATOM     29  C   UNL     1     -10.539  -5.228  -5.357  0.00  0.00    +0.026 A 
ATOM     30  C   UNL     1      -9.792  -5.321  -4.151  0.00  0.00    +0.043 A 
ATOM     31  N   UNL     1     -10.143  -5.639  -2.929  0.00  0.00    -0.380 N 
ATOM     32  C   UNL     1      -8.955  -5.579  -2.070  0.00  0.00    +0.144 C 
ATOM     33  H   UNL     1     -11.038  -5.878  -2.641  0.00  0.00    +0.160 HD
ENDBRANCH  23  24
ENDBRANCH  22  23
ENDBRANCH  20  22
ENDBRANCH   5  18
TORSDOF 5
