REMARK  Name = ZINC64237680
REMARK  8 active torsions:
REMARK  status: ('A' for Active; 'I' for Inactive)
REMARK    1  A    between atoms: C_1  and  C_2
REMARK    2  A    between atoms: C_5  and  C_8
REMARK    3  A    between atoms: C_8  and  C_9
REMARK    4  A    between atoms: C_8  and  N_24
REMARK    5  A    between atoms: C_9  and  N_10
REMARK    6  A    between atoms: N_13  and  N_14
REMARK    7  A    between atoms: C_15  and  C_17
REMARK    8  A    between atoms: C_22  and  O_23
REMARK                            x       y       z     vdW  Elec       q    Type
REMARK                         _______ _______ _______ _____ _____    ______ ____
ROOT
ATOM      1  N   UNL     1      -2.205  -4.393  -0.961  0.00  0.00    -0.299 N 
ATOM      2  C   UNL     1      -3.512  -4.721  -0.991  0.00  0.00    +0.316 C 
ATOM      3  O   UNL     1      -3.979  -5.437  -0.126  0.00  0.00    -0.251 OA
ATOM      4  N   UNL     1      -4.301  -4.256  -1.980  0.00  0.00    -0.218 N 
ATOM      5  H   UNL     1      -1.833  -3.821  -1.651  0.00  0.00    +0.150 HD
ATOM      6  H   UNL     1      -5.241  -4.493  -2.001  0.00  0.00    +0.174 HD
ENDROOT
BRANCH   4   7
ATOM      7  N   UNL     1      -3.763  -3.431  -2.976  0.00  0.00    -0.229 N 
ATOM      8  C   UNL     1      -4.552  -2.966  -3.965  0.00  0.00    +0.264 C 
ATOM      9  O   UNL     1      -5.731  -3.263  -3.992  0.00  0.00    -0.269 OA
ATOM     10  H   UNL     1      -2.822  -3.195  -2.955  0.00  0.00    +0.173 HD
BRANCH   8  11
ATOM     11  C   UNL     1      -3.986  -2.098  -5.014  0.00  0.00    +0.079 A 
ATOM     12  C   UNL     1      -2.631  -1.759  -4.990  0.00  0.00    +0.017 A 
ATOM     13  C   UNL     1      -2.107  -0.948  -5.973  0.00  0.00    +0.001 A 
ATOM     14  C   UNL     1      -2.920  -0.465  -6.987  0.00  0.00    +0.004 A 
ATOM     15  C   UNL     1      -4.261  -0.792  -7.022  0.00  0.00    +0.046 A 
ATOM     16  C   UNL     1      -4.803  -1.612  -6.044  0.00  0.00    +0.129 A 
BRANCH  16  17
ATOM     17  O   UNL     1      -6.119  -1.938  -6.081  0.00  0.00    -0.506 OA
ATOM     18  H   UNL     1      -6.691  -1.321  -5.605  0.00  0.00    +0.292 HD
ENDBRANCH  16  17
ENDBRANCH   8  11
ENDBRANCH   4   7
BRANCH   1  19
ATOM     19  C   UNL     1      -1.347  -4.898   0.114  0.00  0.00    +0.095 C 
BRANCH  19  20
ATOM     20  C   UNL     1       0.045  -4.274  -0.009  0.00  0.00    -0.020 C 
BRANCH  20  25
ATOM     21  C   UNL     1      -0.311   1.419   0.913  0.00  0.00    +0.044 C 
ATOM     22  C   UNL     1      -0.218  -0.066   0.673  0.00  0.00    -0.050 A 
ATOM     23  C   UNL     1      -0.150  -0.554  -0.619  0.00  0.00    +0.003 A 
ATOM     24  C   UNL     1      -0.065  -1.916  -0.839  0.00  0.00    +0.002 A 
ATOM     25  C   UNL     1      -0.047  -2.790   0.232  0.00  0.00    -0.059 A 
ATOM     26  C   UNL     1      -0.115  -2.301   1.523  0.00  0.00    +0.002 A 
ATOM     27  C   UNL     1      -0.196  -0.939   1.744  0.00  0.00    +0.003 A 
ENDBRANCH  20  25
BRANCH  20  28
ATOM     28  N   UNL     1       0.941  -4.877   0.987  0.00  0.00    +0.385 N 
ATOM     29  C   UNL     1       1.104  -6.329   0.717  0.00  0.00    -0.078 C 
ATOM     30  C   UNL     1       2.435  -6.675   1.430  0.00  0.00    -0.020 C 
ATOM     31  C   UNL     1       3.300  -5.419   1.176  0.00  0.00    -0.020 C 
ATOM     32  C   UNL     1       2.294  -4.292   0.875  0.00  0.00    -0.078 C 
ATOM     33  H   UNL     1       0.575  -4.734   1.916  0.00  0.00    -0.081 HD
ENDBRANCH  20  28
ENDBRANCH  19  20
ENDBRANCH   1  19
TORSDOF 7
