REMARK  Name = ZINC04328534
REMARK  9 active torsions:
REMARK  status: ('A' for Active; 'I' for Inactive)
REMARK    1  A    between atoms: C_1  and  C_2
REMARK    2  A    between atoms: C_2  and  S_3
REMARK    3  A    between atoms: S_3  and  C_4
REMARK    4  A    between atoms: C_4  and  S_26
REMARK    5  A    between atoms: C_5  and  C_24
REMARK    6  A    between atoms: C_11  and  C_18
REMARK    7  A    between atoms: C_13  and  C_16
REMARK    8  A    between atoms: S_26  and  C_27
REMARK    9  A    between atoms: C_27  and  C_28
REMARK                            x       y       z     vdW  Elec       q    Type
REMARK                         _______ _______ _______ _____ _____    ______ ____
ROOT
ATOM      1  C   UNL     1       0.242   5.221  -0.683  0.00  0.00    +0.157 C 
ATOM      2  C   UNL     1       0.513   4.006   0.209  0.00  0.00    +0.148 C 
ATOM      3  C   UNL     1      -0.462   2.877   0.196  0.00  0.00    -0.029 C 
ATOM      4  C   UNL     1      -0.018   1.615   0.215  0.00  0.00    -0.011 C 
ATOM      5  C   UNL     1      -1.179   0.655   0.213  0.00  0.00    +0.049 C 
ATOM      6  C   UNL     1      -2.392   1.490  -0.259  0.00  0.00    +0.010 C 
ATOM      7  C   UNL     1      -1.962   2.920   0.159  0.00  0.00    +0.034 C 
ATOM      8  C   UNL     1       2.355   2.347   0.216  0.00  0.00    +0.113 C 
ATOM      9  C   UNL     1       1.747   3.465  -0.584  0.00  0.00    +0.156 C 
ATOM     10  C   UNL     1       2.476   4.719  -0.892  0.00  0.00    +0.092 C 
ATOM     11  N   UNL     1       3.830   4.837  -1.065  0.00  0.00    -0.347 N 
ATOM     12  H   UNL     1       4.399   4.055  -0.988  0.00  0.00    +0.143 HD
ATOM     13  H   UNL     1       4.219   5.702  -1.265  0.00  0.00    +0.143 HD
ATOM     14  N   UNL     1       1.354   1.201   0.239  0.00  0.00    -0.401 NA
ATOM     15  H   UNL     1       1.524   0.607  -0.581  0.00  0.00    +0.124 HD
ATOM     16  H   UNL     1       1.509   0.655   1.095  0.00  0.00    +0.124 HD
ATOM     17  N   UNL     1       1.623   5.703  -0.986  0.00  0.00    -0.351 N 
ATOM     18  H   UNL     1       1.867   6.669  -1.234  0.00  0.00    +0.163 HD
ENDROOT
BRANCH   8  19
ATOM     19  C   UNL     1       3.618   1.861  -0.448  0.00  0.00    -0.027 A 
ATOM     20  C   UNL     1       3.543   1.050  -1.565  0.00  0.00    +0.005 A 
ATOM     21  C   UNL     1       4.701   0.608  -2.177  0.00  0.00    +0.000 A 
ATOM     22  C   UNL     1       5.934   0.968  -1.666  0.00  0.00    +0.000 A 
ATOM     23  C   UNL     1       6.009   1.775  -0.546  0.00  0.00    +0.000 A 
ATOM     24  C   UNL     1       4.851   2.221   0.063  0.00  0.00    +0.005 A 
ENDBRANCH   8  19
BRANCH   9  25
ATOM     25  C   UNL     1       1.250   2.903  -1.850  0.00  0.00    +0.081 C 
ATOM     26  N   UNL     1       0.866   2.470  -2.828  0.00  0.00    -0.195 NA
ENDBRANCH   9  25
BRANCH   2  27
ATOM     27  C   UNL     1       0.873   4.411   1.577  0.00  0.00    +0.080 C 
ATOM     28  N   UNL     1       1.151   4.724   2.634  0.00  0.00    -0.195 NA
ENDBRANCH   2  27
BRANCH   1  29
ATOM     29  S   UNL     1      -0.621   4.731  -2.201  0.00  0.00    -0.121 S 
BRANCH  29  31
ATOM     30  C   UNL     1      -0.482   5.429  -4.842  0.00  0.00    +0.015 C 
ATOM     31  C   UNL     1       0.237   5.647  -3.510  0.00  0.00    +0.069 C 
ENDBRANCH  29  31
ENDBRANCH   1  29
BRANCH   1  32
ATOM     32  S   UNL     1      -0.697   6.487   0.214  0.00  0.00    -0.121 S 
BRANCH  32  33
ATOM     33  C   UNL     1      -0.795   7.871  -0.954  0.00  0.00    +0.069 C 
ATOM     34  C   UNL     1      -1.460   9.068  -0.272  0.00  0.00    +0.015 C 
ENDBRANCH  32  33
ENDBRANCH   1  32
TORSDOF 7
