REMARK  Name = ZINC54641318
REMARK  14 active torsions:
REMARK  status: ('A' for Active; 'I' for Inactive)
REMARK    1  A    between atoms: C_1  and  C_2
REMARK    2  A    between atoms: C_2  and  O_3
REMARK    3  A    between atoms: O_3  and  C_4
REMARK    4  A    between atoms: C_6  and  C_21
REMARK    5  A    between atoms: C_9  and  O_10
REMARK    6  A    between atoms: O_10  and  C_11
REMARK    7  A    between atoms: C_11  and  C_12
REMARK    8  A    between atoms: C_14  and  C_20
REMARK    9  A    between atoms: C_15  and  C_19
REMARK   10  A    between atoms: C_17  and  C_18
REMARK   11  A    between atoms: C_23  and  C_32
REMARK   12  A    between atoms: C_24  and  C_31
REMARK   13  A    between atoms: C_32  and  O_34
REMARK   14  A    between atoms: O_34  and  C_35
REMARK                            x       y       z     vdW  Elec       q    Type
REMARK                         _______ _______ _______ _____ _____    ______ ____
ROOT
ATOM      1  C   UNL     1      -1.790  -1.988  -0.279  0.00  0.00    +0.162 A 
ATOM      2  C   UNL     1      -0.637  -2.741  -0.129  0.00  0.00    +0.055 A 
ATOM      3  C   UNL     1      -0.705  -4.121  -0.149  0.00  0.00    -0.015 A 
ATOM      4  C   UNL     1      -1.923  -4.753  -0.320  0.00  0.00    +0.010 A 
ATOM      5  C   UNL     1      -3.077  -4.008  -0.471  0.00  0.00    +0.050 A 
ATOM      6  C   UNL     1      -3.016  -2.624  -0.445  0.00  0.00    +0.162 A 
ENDROOT
BRANCH   3   7
ATOM      7  C   UNL     1       0.550  -4.939   0.014  0.00  0.00    +0.179 C 
ATOM      8  C   UNL     1       0.422  -5.818   1.230  0.00  0.00    +0.082 C 
ATOM      9  C   UNL     1       0.248  -7.147   1.158  0.00  0.00    +0.020 C 
ATOM     10  N   UNL     1       0.183  -7.812  -0.041  0.00  0.00    -0.287 N 
ATOM     11  C   UNL     1       0.565  -7.116  -1.179  0.00  0.00    +0.218 A 
ATOM     12  N   UNL     1       0.746  -5.772  -1.169  0.00  0.00    -0.221 N 
ATOM     13  N   UNL     1       1.130  -5.413  -2.460  0.00  0.00    -0.156 NA
ATOM     14  C   UNL     1       1.158  -6.517  -3.166  0.00  0.00    +0.247 A 
ATOM     15  N   UNL     1       0.812  -7.546  -2.386  0.00  0.00    -0.201 NA
ATOM     16  C   UNL     1       0.118  -7.934   2.436  0.00  0.00    +0.061 C 
ATOM     17  H   UNL     1      -0.117  -8.733  -0.090  0.00  0.00    +0.155 HD
BRANCH   8  18
ATOM     18  C   UNL     1       0.488  -5.216   2.506  0.00  0.00    +0.339 C 
ATOM     19  O   UNL     1       1.559  -4.841   2.947  0.00  0.00    -0.245 OA
BRANCH  18  20
ATOM     20  O   UNL     1      -0.636  -5.056   3.236  0.00  0.00    -0.458 OA
BRANCH  20  21
ATOM     21  C   UNL     1      -0.494  -4.439   4.517  0.00  0.00    +0.177 C 
ATOM     22  C   UNL     1      -0.238  -5.514   5.575  0.00  0.00    +0.044 C 
ATOM     23  C   UNL     1      -0.087  -4.854   6.947  0.00  0.00    +0.004 C 
ATOM     24  C   UNL     1      -1.370  -4.095   7.292  0.00  0.00    +0.000 C 
ATOM     25  C   UNL     1      -1.626  -3.019   6.234  0.00  0.00    +0.004 C 
ATOM     26  C   UNL     1      -1.777  -3.679   4.862  0.00  0.00    +0.044 C 
ENDBRANCH  20  21
ENDBRANCH  18  20
ENDBRANCH   8  18
ENDBRANCH   3   7
BRANCH   1  27
ATOM     27  O   UNL     1      -1.724  -0.629  -0.258  0.00  0.00    -0.489 OA
BRANCH  27  29
ATOM     28  C   UNL     1      -0.557   1.480  -0.087  0.00  0.00    +0.048 C 
ATOM     29  C   UNL     1      -0.432  -0.045  -0.084  0.00  0.00    +0.226 C 
ENDBRANCH  27  29
ENDBRANCH   1  27
BRANCH   6  30
ATOM     30  O   UNL     1      -4.152  -1.889  -0.587  0.00  0.00    -0.484 OA
BRANCH  30  31
ATOM     31  C   UNL     1      -5.374  -2.610  -0.754  0.00  0.00    +0.265 C 
BRANCH  31  32
ATOM     32  C   UNL     1      -6.516  -1.636  -0.895  0.00  0.00    -0.007 A 
ATOM     33  C   UNL     1      -6.273  -0.276  -0.857  0.00  0.00    +0.010 A 
ATOM     34  C   UNL     1      -7.320   0.617  -0.986  0.00  0.00    -0.047 A 
ATOM     35  C   UNL     1      -8.611   0.150  -1.154  0.00  0.00    -0.047 A 
ATOM     36  C   UNL     1      -8.853  -1.210  -1.193  0.00  0.00    +0.007 A 
ATOM     37  C   UNL     1      -7.805  -2.103  -1.068  0.00  0.00    -0.044 A 
ATOM     38  C   UNL     1      -8.069  -3.586  -1.116  0.00  0.00    +0.044 C 
ATOM     39  C   UNL     1      -9.752   1.123  -1.294  0.00  0.00    +0.044 C 
ATOM     40  C   UNL     1      -7.056   2.100  -0.944  0.00  0.00    +0.044 C 
ENDBRANCH  31  32
ENDBRANCH  30  31
ENDBRANCH   6  30
TORSDOF 9
