REMARK  Name = ZINC44714084
REMARK  9 active torsions:
REMARK  status: ('A' for Active; 'I' for Inactive)
REMARK    1  A    between atoms: C_1  and  C_2
REMARK    2  A    between atoms: C_3  and  C_9
REMARK    3  A    between atoms: C_4  and  C_8
REMARK    4  A    between atoms: C_9  and  C_11
REMARK    5  A    between atoms: C_9  and  N_12
REMARK    6  A    between atoms: C_13  and  C_15
REMARK    7  A    between atoms: C_26  and  C_28
REMARK    8  A    between atoms: C_32  and  O_33
REMARK    9  A    between atoms: O_33  and  C_34
REMARK                            x       y       z     vdW  Elec       q    Type
REMARK                         _______ _______ _______ _____ _____    ______ ____
ROOT
ATOM      1  C   UNL     1       2.530  -1.331  -5.197  0.00  0.00    +0.100 C 
ATOM      2  C   UNL     1       3.846  -1.484  -4.403  0.00  0.00    +0.121 C 
ATOM      3  N   UNL     1       4.914  -1.379  -5.424  0.00  0.00    -0.296 N 
ATOM      4  C   UNL     1       4.441  -0.317  -6.345  0.00  0.00    +0.115 C 
ATOM      5  C   UNL     1       2.924  -0.564  -6.470  0.00  0.00    -0.004 C 
ATOM      6  C   UNL     1       2.178   0.766  -6.539  0.00  0.00    -0.010 C 
ATOM      7  C   UNL     1       2.542   1.484  -7.841  0.00  0.00    -0.082 C 
ATOM      8  N   UNL     1       2.181   0.638  -8.986  0.00  0.00    +0.379 N 
ATOM      9  C   UNL     1       2.972  -0.599  -8.963  0.00  0.00    -0.082 C 
ATOM     10  C   UNL     1       2.626  -1.405  -7.707  0.00  0.00    -0.010 C 
ATOM     11  C   UNL     1       6.058  -2.088  -5.500  0.00  0.00    +0.251 C 
ATOM     12  O   UNL     1       6.261  -2.999  -4.720  0.00  0.00    -0.270 OA
ATOM     13  H   UNL     1       1.200   0.409  -8.937  0.00  0.00    -0.086 HD
ATOM     14  H   UNL     1       2.366   1.137  -9.843  0.00  0.00    -0.086 HD
ENDROOT
BRANCH  11  15
ATOM     15  C   UNL     1       7.060  -1.760  -6.525  0.00  0.00    +0.087 A 
ATOM     16  C   UNL     1       7.279  -0.461  -6.931  0.00  0.00    +0.063 A 
ATOM     17  S   UNL     1       8.486  -0.587  -8.089  0.00  0.00    -0.081 S 
ATOM     18  C   UNL     1       8.746  -2.348  -8.080  0.00  0.00    +0.120 A 
ATOM     19  C   UNL     1       7.867  -2.783  -7.150  0.00  0.00    +0.158 A 
ATOM     20 CL   UNL     1       9.862  -3.278  -9.030  0.00  0.00    -0.072 Cl
BRANCH  19  21
ATOM     21  O   UNL     1       7.745  -4.100  -6.827  0.00  0.00    -0.492 OA
ATOM     22  C   UNL     1       6.805  -4.869  -7.580  0.00  0.00    +0.277 C 
ENDBRANCH  19  21
ENDBRANCH  11  15
BRANCH   1  24
ATOM     23  N   UNL     1       0.211  -0.634  -4.688  0.00  0.00    -0.308 N 
ATOM     24  C   UNL     1       1.524  -0.541  -4.399  0.00  0.00    +0.219 C 
ATOM     25  O   UNL     1       1.897   0.178  -3.496  0.00  0.00    -0.275 OA
ATOM     26  H   UNL     1      -0.087  -1.210  -5.410  0.00  0.00    +0.149 HD
BRANCH  23  27
ATOM     27  C   UNL     1      -0.766   0.133  -3.912  0.00  0.00    +0.104 C 
ATOM     28  C   UNL     1      -0.887   1.542  -4.496  0.00  0.00    +0.033 C 
BRANCH  27  31
ATOM     29  C   UNL     1      -2.689  -0.369  -1.497  0.00  0.00    +0.065 C 
ATOM     30  C   UNL     1      -2.938  -0.770  -2.928  0.00  0.00    +0.038 A 
ATOM     31  C   UNL     1      -2.106  -0.553  -3.973  0.00  0.00    +0.015 A 
ATOM     32  C   UNL     1      -2.711  -1.078  -5.120  0.00  0.00    +0.065 A 
ATOM     33  N   UNL     1      -3.864  -1.591  -4.776  0.00  0.00    -0.179 NA
ATOM     34  N   UNL     1      -4.027  -1.414  -3.396  0.00  0.00    -0.281 N 
ATOM     35  H   UNL     1      -4.790  -1.701  -2.870  0.00  0.00    +0.189 HD
ATOM     36  C   UNL     1      -2.134  -1.055  -6.512  0.00  0.00    +0.068 C 
ENDBRANCH  27  31
ENDBRANCH  23  27
ENDBRANCH   1  24
TORSDOF 5
