REMARK  Name = ZINC02868401
REMARK  7 active torsions:
REMARK  status: ('A' for Active; 'I' for Inactive)
REMARK    1  A    between atoms: C_1  and  S_2
REMARK    2  A    between atoms: S_2  and  C_3
REMARK    3  A    between atoms: C_6  and  C_9
REMARK    4  A    between atoms: C_9  and  C_11
REMARK    5  A    between atoms: C_9  and  N_23
REMARK    6  A    between atoms: C_20  and  O_21
REMARK    7  A    between atoms: N_23  and  C_24
REMARK                            x       y       z     vdW  Elec       q    Type
REMARK                         _______ _______ _______ _____ _____    ______ ____
ROOT
ATOM      1  C   UNL     1       4.808  -0.143   0.047  0.00  0.00    +0.136 C 
ENDROOT
BRANCH   1   2
ATOM      2  C   UNL     1       4.744   0.999  -0.934  0.00  0.00    +0.022 A 
ATOM      3  C   UNL     1       3.510   1.401  -1.438  0.00  0.00    +0.030 A 
ATOM      4  C   UNL     1       3.418   2.431  -2.326  0.00  0.00    +0.051 A 
ATOM      5  C   UNL     1       4.583   3.099  -2.741  0.00  0.00    +0.022 A 
ATOM      6  C   UNL     1       4.528   4.167  -3.656  0.00  0.00    +0.013 A 
ATOM      7  C   UNL     1       5.701   4.769  -4.014  0.00  0.00    +0.020 A 
ATOM      8  C   UNL     1       6.905   4.321  -3.476  0.00  0.00    +0.111 A 
ATOM      9  N   UNL     1       6.951   3.326  -2.623  0.00  0.00    -0.251 NA
ATOM     10  C   UNL     1       5.841   2.694  -2.232  0.00  0.00    +0.114 A 
ATOM     11  C   UNL     1       5.896   1.627  -1.311  0.00  0.00    +0.148 A 
ATOM     12 CL   UNL     1       1.869   2.916  -2.941  0.00  0.00    -0.083 Cl
BRANCH  11  13
ATOM     13  O   UNL     1       7.091   1.224  -0.804  0.00  0.00    -0.504 OA
ATOM     14  H   UNL     1       7.528   0.538  -1.326  0.00  0.00    +0.292 HD
ENDBRANCH  11  13
ENDBRANCH   1   2
BRANCH   1  18
ATOM     15  C   UNL     1       4.684   1.394   4.033  0.00  0.00    +0.008 A 
ATOM     16  C   UNL     1       5.885   0.946   3.497  0.00  0.00    +0.015 A 
ATOM     17  C   UNL     1       5.921   0.450   2.208  0.00  0.00    +0.007 A 
ATOM     18  C   UNL     1       4.764   0.399   1.452  0.00  0.00    -0.023 A 
ATOM     19  C   UNL     1       3.568   0.849   1.981  0.00  0.00    +0.007 A 
ATOM     20  C   UNL     1       3.523   1.341   3.271  0.00  0.00    +0.015 A 
BRANCH  15  22
ATOM     21  C   UNL     1       2.892   2.475   5.921  0.00  0.00    +0.090 C 
ATOM     22  S   UNL     1       4.633   2.028   5.676  0.00  0.00    -0.129 S 
ENDBRANCH  15  22
ENDBRANCH   1  18
BRANCH   1  23
ATOM     23  N   UNL     1       3.667  -1.036  -0.168  0.00  0.00    -0.320 N 
ATOM     24  H   UNL     1       2.857  -0.922   0.353  0.00  0.00    +0.148 HD
BRANCH  23  25
ATOM     25  C   UNL     1       3.744  -2.047  -1.119  0.00  0.00    +0.097 A 
ATOM     26  C   UNL     1       4.862  -2.133  -1.943  0.00  0.00    +0.041 A 
ATOM     27  C   UNL     1       4.926  -3.144  -2.885  0.00  0.00    +0.005 A 
ATOM     28  C   UNL     1       3.867  -4.038  -2.971  0.00  0.00    +0.018 A 
ATOM     29  C   UNL     1       2.789  -3.893  -2.121  0.00  0.00    +0.084 A 
ATOM     30  N   UNL     1       2.692  -2.912  -1.185  0.00  0.00    -0.350 N 
ATOM     31  H   UNL     1       1.877  -2.828  -0.565  0.00  0.00    +0.166 HD
ENDBRANCH  23  25
ENDBRANCH   1  23
TORSDOF 6
