REMARK  Name = ZINC20908449
REMARK  11 active torsions:
REMARK  status: ('A' for Active; 'I' for Inactive)
REMARK    1  A    between atoms: C_1  and  C_2
REMARK    2  A    between atoms: C_2  and  C_26
REMARK    3  A    between atoms: C_4  and  N_10
REMARK    4  A    between atoms: C_6  and  C_8
REMARK    5  A    between atoms: C_6  and  C_9
REMARK    6  A    between atoms: N_10  and  C_11
REMARK    7  A    between atoms: N_10  and  C_12
REMARK    8  A    between atoms: C_12  and  C_13
REMARK    9  A    between atoms: C_13  and  O_25
REMARK   10  A    between atoms: N_17  and  C_20
REMARK   11  A    between atoms: C_20  and  C_21
REMARK                            x       y       z     vdW  Elec       q    Type
REMARK                         _______ _______ _______ _____ _____    ______ ____
ROOT
ATOM      1  C   UNL     1       0.085   0.903   0.223  0.00  0.00    +0.128 C 
ENDROOT
BRANCH   1   2
ATOM      2  C   UNL     1      -0.383   1.157  -1.212  0.00  0.00    +0.154 C 
ATOM      3  C   UNL     1      -0.472   2.665  -1.458  0.00  0.00    +0.047 C 
ATOM      4  C   UNL     1      -0.671   2.901  -2.960  0.00  0.00    +0.022 C 
ATOM      5  C   UNL     1       0.602   2.480  -3.694  0.00  0.00    +0.108 C 
ATOM      6  N   UNL     1       1.006   1.139  -3.289  0.00  0.00    -0.299 N 
ATOM      7  C   UNL     1       0.593   0.540  -2.172  0.00  0.00    +0.249 C 
ATOM      8  O   UNL     1       1.028  -0.563  -1.917  0.00  0.00    -0.272 OA
BRANCH   2   9
ATOM      9  O   UNL     1      -1.672   0.570  -1.401  0.00  0.00    -0.378 OA
ATOM     10  H   UNL     1      -2.175   0.649  -2.376  0.00  0.00    +0.211 HD
ENDBRANCH   2   9
BRANCH   6  11
ATOM     11  C   UNL     1       1.922   0.404  -4.164  0.00  0.00    +0.111 C 
BRANCH  11  12
ATOM     12  C   UNL     1       1.117  -0.406  -5.181  0.00  0.00    +0.006 C 
ATOM     13  C   UNL     1       0.714  -1.802  -4.677  0.00  0.00    +0.005 C 
ATOM     14  C   UNL     1       1.031  -2.318  -6.091  0.00  0.00    +0.001 C 
ATOM     15  C   UNL     1       1.988  -1.121  -6.228  0.00  0.00    +0.005 C 
ENDBRANCH  11  12
ENDBRANCH   6  11
ENDBRANCH   1   2
BRANCH   1  16
ATOM     16  N   UNL     1      -0.790   1.622   1.158  0.00  0.00    -0.299 NA
ATOM     17  C   UNL     1      -2.076   0.930   1.314  0.00  0.00    +0.105 C 
BRANCH  16  21
ATOM     18  C   UNL     1       0.841   3.820   4.574  0.00  0.00    -0.010 C 
ATOM     19  C   UNL     1      -0.349   2.871   4.716  0.00  0.00    -0.072 C 
ATOM     20  C   UNL     1      -1.024   2.667   3.358  0.00  0.00    +0.006 C 
ATOM     21  C   UNL     1      -0.130   1.809   2.461  0.00  0.00    +0.054 C 
ATOM     22  C   UNL     1       0.063   0.447   3.127  0.00  0.00    +0.006 C 
ATOM     23  C   UNL     1       0.695   0.604   4.507  0.00  0.00    -0.072 C 
ATOM     24  N   UNL     1       0.031   1.606   5.320  0.00  0.00    +0.386 N 
ATOM     25  C   UNL     1       2.192   0.897   4.362  0.00  0.00    -0.010 C 
ATOM     26  C   UNL     1       0.567  -0.756   5.231  0.00  0.00    -0.010 C 
ATOM     27  C   UNL     1      -1.378   3.554   5.645  0.00  0.00    -0.010 C 
ATOM     28  H   UNL     1       0.729   1.792   6.150  0.00  0.00    -0.084 HD
ATOM     29  H   UNL     1      -0.866   1.097   5.702  0.00  0.00    -0.084 HD
ENDBRANCH  16  21
ENDBRANCH   1  16
TORSDOF 6
