REMARK  Name = ZINC64518506
REMARK  9 active torsions:
REMARK  status: ('A' for Active; 'I' for Inactive)
REMARK    1  A    between atoms: C_1  and  C_2
REMARK    2  A    between atoms: C_2  and  C_4
REMARK    3  A    between atoms: C_2  and  C_24
REMARK    4  A    between atoms: C_10  and  C_12
REMARK    5  A    between atoms: C_17  and  O_22
REMARK    6  A    between atoms: O_22  and  C_23
REMARK    7  A    between atoms: N_26  and  C_27
REMARK    8  A    between atoms: C_27  and  C_28
REMARK    9  A    between atoms: C_28  and  C_29
REMARK                            x       y       z     vdW  Elec       q    Type
REMARK                         _______ _______ _______ _____ _____    ______ ____
ROOT
ATOM      1  C   UNL     1       1.753  -0.752  -0.216  0.00  0.00    +0.004 C 
ATOM      2  C   UNL     1       2.964  -0.114   0.469  0.00  0.00    +0.023 C 
ATOM      3  C   UNL     1       2.997  -0.542   1.940  0.00  0.00    +0.108 C 
ATOM      4  N   UNL     1       2.969  -2.009   2.007  0.00  0.00    -0.296 N 
ATOM      5  C   UNL     1       1.897  -2.728   1.305  0.00  0.00    +0.108 C 
ATOM      6  C   UNL     1       1.876  -2.276  -0.159  0.00  0.00    +0.023 C 
ATOM      7  C   UNL     1       3.909  -2.683   2.698  0.00  0.00    +0.263 C 
ATOM      8  O   UNL     1       4.860  -2.089   3.170  0.00  0.00    -0.268 OA
ENDROOT
BRANCH   7   9
ATOM      9  C   UNL     1       3.786  -4.136   2.881  0.00  0.00    +0.103 A 
ATOM     10  C   UNL     1       4.815  -4.989   3.127  0.00  0.00    +0.040 A 
ATOM     11  C   UNL     1       4.277  -6.293   3.239  0.00  0.00    +0.001 A 
ATOM     12  C   UNL     1       4.847  -7.551   3.483  0.00  0.00    +0.013 A 
ATOM     13  C   UNL     1       4.054  -8.658   3.536  0.00  0.00    +0.046 A 
ATOM     14  C   UNL     1       2.676  -8.552   3.349  0.00  0.00    +0.122 A 
ATOM     15  C   UNL     1       2.092  -7.323   3.108  0.00  0.00    +0.071 A 
ATOM     16  C   UNL     1       2.885  -6.181   3.050  0.00  0.00    +0.050 A 
ATOM     17  N   UNL     1       2.604  -4.852   2.838  0.00  0.00    -0.350 N 
ATOM     18  H   UNL     1       1.722  -4.479   2.682  0.00  0.00    +0.166 HD
BRANCH  14  19
ATOM     19  O   UNL     1       1.901  -9.667   3.405  0.00  0.00    -0.495 OA
ATOM     20  C   UNL     1       2.565 -10.907   3.657  0.00  0.00    +0.277 C 
ENDBRANCH  14  19
ENDBRANCH   7   9
BRANCH   1  22
ATOM     21  C   UNL     1       1.574   1.224  -1.734  0.00  0.00    +0.017 C 
ATOM     22  C   UNL     1       1.697  -0.299  -1.677  0.00  0.00    +0.075 C 
BRANCH  22  23
ATOM     23  C   UNL     1       0.503  -0.926  -2.351  0.00  0.00    +0.216 C 
ATOM     24  O   UNL     1      -0.230  -1.661  -1.725  0.00  0.00    -0.276 OA
ATOM     25  N   UNL     1       0.251  -0.668  -3.650  0.00  0.00    -0.315 N 
ATOM     26  H   UNL     1       0.838  -0.080  -4.150  0.00  0.00    +0.149 HD
BRANCH  25  27
ATOM     27  C   UNL     1      -0.909  -1.277  -4.305  0.00  0.00    +0.108 C 
BRANCH  27  28
ATOM     28  C   UNL     1      -0.965  -0.825  -5.766  0.00  0.00    +0.052 C 
BRANCH  28  29
ATOM     29  C   UNL     1      -2.158  -1.451  -6.440  0.00  0.00    -0.040 C 
ATOM     30  C   UNL     1      -3.382  -0.898  -6.604  0.00  0.00    -0.001 A 
ATOM     31  C   UNL     1      -3.947   0.401  -6.219  0.00  0.00    +0.010 A 
ATOM     32  C   UNL     1      -5.235   0.673  -6.527  0.00  0.00    +0.001 A 
ATOM     33  C   UNL     1      -6.042  -0.251  -7.204  0.00  0.00    +0.002 A 
ATOM     34  C   UNL     1      -5.595  -1.464  -7.591  0.00  0.00    +0.026 A 
ATOM     35  C   UNL     1      -4.255  -1.857  -7.319  0.00  0.00    +0.043 A 
ATOM     36  N   UNL     1      -3.597  -2.958  -7.586  0.00  0.00    -0.380 N 
ATOM     37  C   UNL     1      -2.228  -2.821  -7.075  0.00  0.00    +0.144 C 
ATOM     38  H   UNL     1      -3.954  -3.733  -8.047  0.00  0.00    +0.160 HD
ENDBRANCH  28  29
ENDBRANCH  27  28
ENDBRANCH  25  27
ENDBRANCH  22  23
ENDBRANCH   1  22
TORSDOF 7
