REMARK  Name = ZINC48686500
REMARK  5 active torsions:
REMARK  status: ('A' for Active; 'I' for Inactive)
REMARK    1  A    between atoms: C_6  and  N_7
REMARK    2  A    between atoms: C_9  and  C_12
REMARK    3  A    between atoms: C_12  and  N_13
REMARK    4  A    between atoms: N_13  and  C_14
REMARK    5  A    between atoms: C_17  and  O_20
REMARK                            x       y       z     vdW  Elec       q    Type
REMARK                         _______ _______ _______ _____ _____    ______ ____
ROOT
ATOM      1  N   UNL     1      -1.202  -0.723   0.010  0.00  0.00    -0.240 N 
ATOM      2  C   UNL     1      -1.325  -2.069   0.009  0.00  0.00    +0.116 A 
ATOM      3  C   UNL     1      -2.646  -2.362   0.019  0.00  0.00    -0.027 A 
ATOM      4  C   UNL     1      -3.354  -1.156   0.025  0.00  0.00    +0.136 A 
ATOM      5  N   UNL     1      -2.490  -0.173   0.026  0.00  0.00    -0.175 NA
ENDROOT
BRANCH   1  11
ATOM      6  C   UNL     1      -0.017   1.384   0.010  0.00  0.00    +0.029 A 
ATOM      7  C   UNL     1       1.171   2.090   0.002  0.00  0.00    +0.017 A 
ATOM      8  C   UNL     1       2.378   1.414  -0.013  0.00  0.00    +0.018 A 
ATOM      9  C   UNL     1       2.399   0.031  -0.021  0.00  0.00    +0.017 A 
ATOM     10  C   UNL     1       1.215  -0.679  -0.014  0.00  0.00    +0.029 A 
ATOM     11  C   UNL     1       0.002  -0.004   0.002  0.00  0.00    +0.065 A 
ATOM     12 BR   UNL     1       4.002   2.384  -0.025  0.00  0.00    -0.050 Br
ENDBRANCH   1  11
BRANCH   3  13
ATOM     13  C   UNL     1      -3.248  -3.744   0.021  0.00  0.00    -0.043 C 
BRANCH  13  14
ATOM     14  N   UNL     1      -3.433  -4.195   1.407  0.00  0.00    +0.384 N 
ATOM     15  H   UNL     1      -2.540  -4.216   1.876  0.00  0.00    -0.085 HD
ATOM     16  H   UNL     1      -4.050  -3.558   1.888  0.00  0.00    -0.085 HD
BRANCH  14  17
ATOM     17  C   UNL     1      -4.019  -5.542   1.410  0.00  0.00    -0.071 C 
ATOM     18  C   UNL     1      -5.426  -5.486   0.810  0.00  0.00    -0.013 C 
ATOM     19  C   UNL     1      -6.037  -6.889   0.813  0.00  0.00    +0.030 C 
ATOM     20  C   UNL     1      -6.115  -7.409   2.250  0.00  0.00    +0.114 C 
ATOM     21  C   UNL     1      -4.708  -7.464   2.849  0.00  0.00    +0.030 C 
ATOM     22  C   UNL     1      -4.097  -6.061   2.846  0.00  0.00    -0.013 C 
BRANCH  20  23
ATOM     23  O   UNL     1      -6.686  -8.719   2.252  0.00  0.00    -0.392 OA
ATOM     24  H   UNL     1      -6.766  -9.111   3.132  0.00  0.00    +0.210 HD
ENDBRANCH  20  23
ENDBRANCH  14  17
ENDBRANCH  13  14
ENDBRANCH   3  13
TORSDOF 5
