REMARK  Name = ZINC51092792
REMARK  9 active torsions:
REMARK  status: ('A' for Active; 'I' for Inactive)
REMARK    1  A    between atoms: N_9  and  C_10
REMARK    2  A    between atoms: C_10  and  C_11
REMARK    3  A    between atoms: C_11  and  C_13
REMARK    4  A    between atoms: C_11  and  O_24
REMARK    5  A    between atoms: C_16  and  O_19
REMARK    6  A    between atoms: O_19  and  C_20
REMARK    7  A    between atoms: N_25  and  C_26
REMARK    8  A    between atoms: C_26  and  C_27
REMARK    9  A    between atoms: C_27  and  O_28
REMARK                            x       y       z     vdW  Elec       q    Type
REMARK                         _______ _______ _______ _____ _____    ______ ____
ROOT
ATOM      1  C   UNL     1      -0.017   1.373   0.010  0.00  0.00    +0.002 A 
ATOM      2  C   UNL     1       1.169   2.093   0.002  0.00  0.00    +0.002 A 
ATOM      3  C   UNL     1       2.384   1.439  -0.013  0.00  0.00    +0.028 A 
ATOM      4  C   UNL     1       2.421   0.053  -0.021  0.00  0.00    +0.068 A 
ATOM      5  C   UNL     1       1.224  -0.681  -0.013  0.00  0.00    +0.065 A 
ATOM      6  C   UNL     1       0.002  -0.004   0.002  0.00  0.00    +0.028 A 
ATOM      7  N   UNL     1       1.562  -1.998  -0.024  0.00  0.00    -0.327 N 
ATOM      8  C   UNL     1       2.866  -2.117  -0.037  0.00  0.00    +0.174 A 
ATOM      9  N   UNL     1       3.445  -0.880  -0.036  0.00  0.00    -0.311 N 
ATOM     10  N   UNL     1       3.552  -3.313  -0.050  0.00  0.00    -0.314 N 
ATOM     11  H   UNL     1       4.522  -3.316  -0.059  0.00  0.00    +0.149 HD
ATOM     12  H   UNL     1       0.933  -2.736  -0.021  0.00  0.00    +0.169 HD
ENDROOT
BRANCH   9  13
ATOM     13  C   UNL     1       4.882  -0.594  -0.049  0.00  0.00    +0.161 C 
BRANCH  13  14
ATOM     14  C   UNL     1       5.396  -0.501   1.389  0.00  0.00    +0.164 C 
BRANCH  14  15
ATOM     15  C   UNL     1       6.893  -0.329   1.377  0.00  0.00    -0.017 A 
ATOM     16  C   UNL     1       7.442   0.934   1.245  0.00  0.00    +0.010 A 
ATOM     17  C   UNL     1       8.814   1.094   1.233  0.00  0.00    +0.046 A 
ATOM     18  C   UNL     1       9.642  -0.012   1.354  0.00  0.00    +0.130 A 
ATOM     19  C   UNL     1       9.089  -1.278   1.487  0.00  0.00    +0.046 A 
ATOM     20  C   UNL     1       7.716  -1.433   1.503  0.00  0.00    +0.010 A 
BRANCH  18  21
ATOM     21  O   UNL     1      10.992   0.143   1.342  0.00  0.00    -0.406 OA
BRANCH  21  22
ATOM     22  C   UNL     1      11.782  -1.040   1.471  0.00  0.00    +0.575 C 
ATOM     23  F   UNL     1      11.494  -1.911   0.414  0.00  0.00    -0.133 F 
ATOM     24  F   UNL     1      13.139  -0.701   1.439  0.00  0.00    -0.133 F 
ATOM     25  F   UNL     1      11.487  -1.669   2.686  0.00  0.00    -0.133 F 
ENDBRANCH  21  22
ENDBRANCH  18  21
ENDBRANCH  14  15
BRANCH  14  26
ATOM     26  O   UNL     1       4.793   0.619   2.040  0.00  0.00    -0.385 OA
ATOM     27  H   UNL     1       4.979   1.468   1.615  0.00  0.00    +0.210 HD
ENDBRANCH  14  26
ENDBRANCH  13  14
ENDBRANCH   9  13
BRANCH  10  28
ATOM     28  C   UNL     1       2.816  -4.580  -0.050  0.00  0.00    +0.132 C 
BRANCH  28  29
ATOM     29  C   UNL     1       3.807  -5.745  -0.066  0.00  0.00    +0.174 C 
BRANCH  29  30
ATOM     30  O   UNL     1       4.561  -5.746   1.149  0.00  0.00    -0.393 OA
ATOM     31  H   UNL     1       5.210  -6.460   1.208  0.00  0.00    +0.209 HD
ENDBRANCH  29  30
ENDBRANCH  28  29
ENDBRANCH  10  28
TORSDOF 9
