REMARK  Name = ZINC10156520
REMARK  7 active torsions:
REMARK  status: ('A' for Active; 'I' for Inactive)
REMARK    1  A    between atoms: C_1  and  C_2
REMARK    2  A    between atoms: C_5  and  N_9
REMARK    3  A    between atoms: C_6  and  C_8
REMARK    4  A    between atoms: C_18  and  C_20
REMARK    5  A    between atoms: C_20  and  S_21
REMARK    6  A    between atoms: S_21  and  C_22
REMARK    7  A    between atoms: N_26  and  C_27
REMARK                            x       y       z     vdW  Elec       q    Type
REMARK                         _______ _______ _______ _____ _____    ______ ____
ROOT
ATOM      1  N   UNL     1      -3.028   2.217  -0.202  0.00  0.00    -0.327 N 
ATOM      2  C   UNL     1      -2.194   1.223  -0.660  0.00  0.00    +0.180 C 
ATOM      3  N   UNL     1      -1.089   1.545  -1.421  0.00  0.00    -0.298 N 
ATOM      4  C   UNL     1      -0.193   0.567  -1.781  0.00  0.00    +0.211 A 
ATOM      5  N   UNL     1       0.889   0.897  -2.536  0.00  0.00    -0.293 N 
ATOM      6  H   UNL     1       1.027   1.816  -2.813  0.00  0.00    +0.172 HD
ATOM      7  C   UNL     1       1.770  -0.059  -2.898  0.00  0.00    +0.253 A 
ATOM      8  O   UNL     1       2.746   0.219  -3.575  0.00  0.00    -0.268 OA
ATOM      9  C   UNL     1       1.542  -1.383  -2.480  0.00  0.00    +0.094 A 
ATOM     10  C   UNL     1       0.439  -1.654  -1.724  0.00  0.00    +0.060 A 
ATOM     11  N   UNL     1      -0.401  -0.674  -1.393  0.00  0.00    -0.218 NA
ATOM     12  H   UNL     1      -3.853   1.986   0.252  0.00  0.00    +0.169 HD
ATOM     13  H   UNL     1      -3.238  -0.356   0.089  0.00  0.00    +0.159 HD
ATOM     14  H   UNL     1      -0.944   2.462  -1.702  0.00  0.00    +0.172 HD
ATOM     15  N   UNL     1      -2.393  -0.060  -0.400  0.00  0.00    -0.371 N 
ATOM     16  H   UNL     1      -1.697  -0.757  -0.690  0.00  0.00    +0.159 HD
ENDROOT
BRANCH   1  21
ATOM     17  C   UNL     1      -1.637   7.662  -0.972  0.00  0.00    +0.044 C 
ATOM     18  C   UNL     1      -2.007   6.216  -0.767  0.00  0.00    -0.050 A 
ATOM     19  C   UNL     1      -1.014   5.263  -0.631  0.00  0.00    +0.005 A 
ATOM     20  C   UNL     1      -1.349   3.936  -0.443  0.00  0.00    +0.026 A 
ATOM     21  C   UNL     1      -2.685   3.560  -0.392  0.00  0.00    +0.045 A 
ATOM     22  C   UNL     1      -3.679   4.518  -0.534  0.00  0.00    -0.027 A 
ATOM     23  C   UNL     1      -3.338   5.844  -0.717  0.00  0.00    +0.008 A 
ATOM     24  C   UNL     1      -5.130   4.113  -0.485  0.00  0.00    +0.046 C 
ENDBRANCH   1  21
BRANCH  10  25
ATOM     25  C   UNL     1       0.170  -3.063  -1.262  0.00  0.00    +0.133 C 
BRANCH  25  26
ATOM     26  S   UNL     1       0.567  -3.207   0.498  0.00  0.00    -0.078 S 
BRANCH  26  27
ATOM     27  C   UNL     1       0.172  -4.904   0.763  0.00  0.00    +0.214 A 
ATOM     28  N   UNL     1      -0.281  -5.751  -0.137  0.00  0.00    -0.101 NA
ATOM     29  N   UNL     1      -0.465  -6.908   0.388  0.00  0.00    -0.022 NA
ATOM     30  N   UNL     1      -0.150  -6.890   1.638  0.00  0.00    -0.038 NA
ATOM     31  N   UNL     1       0.282  -5.585   1.931  0.00  0.00    -0.187 N 
BRANCH  31  32
ATOM     32  C   UNL     1       0.728  -5.092   3.166  0.00  0.00    +0.070 A 
ATOM     33  C   UNL     1       1.739  -4.141   3.210  0.00  0.00    +0.028 A 
ATOM     34  C   UNL     1       2.173  -3.654   4.428  0.00  0.00    +0.002 A 
ATOM     35  C   UNL     1       1.610  -4.120   5.601  0.00  0.00    +0.000 A 
ATOM     36  C   UNL     1       0.607  -5.071   5.560  0.00  0.00    +0.002 A 
ATOM     37  C   UNL     1       0.165  -5.558   4.346  0.00  0.00    +0.028 A 
ENDBRANCH  31  32
ENDBRANCH  26  27
ENDBRANCH  25  26
ENDBRANCH  10  25
TORSDOF 5
