REMARK  Name = ZINC12378344
REMARK  7 active torsions:
REMARK  status: ('A' for Active; 'I' for Inactive)
REMARK    1  A    between atoms: C_1  and  C_2
REMARK    2  A    between atoms: C_5  and  C_29
REMARK    3  A    between atoms: C_9  and  C_10
REMARK    4  A    between atoms: C_9  and  N_53
REMARK    5  A    between atoms: C_10  and  C_12
REMARK    6  A    between atoms: C_10  and  O_28
REMARK    7  A    between atoms: C_12  and  N_13
REMARK                            x       y       z     vdW  Elec       q    Type
REMARK                         _______ _______ _______ _____ _____    ______ ____
ROOT
ATOM      1  N   UNL     1      -2.115   1.062  -1.241  0.00  0.00    -0.337 N 
ATOM      2  C   UNL     1      -2.450  -0.116  -1.885  0.00  0.00    +0.050 A 
ATOM      3  C   UNL     1      -1.699  -1.028  -2.620  0.00  0.00    +0.027 A 
ATOM      4  C   UNL     1      -2.303  -2.142  -3.162  0.00  0.00    +0.017 A 
ATOM      5  C   UNL     1      -3.659  -2.367  -2.981  0.00  0.00    +0.019 A 
ATOM      6  C   UNL     1      -4.419  -1.479  -2.248  0.00  0.00    +0.026 A 
ATOM      7  C   UNL     1      -3.821  -0.347  -1.700  0.00  0.00    +0.009 A 
ATOM      8  C   UNL     1      -4.330   0.781  -0.898  0.00  0.00    +0.009 A 
ATOM      9  C   UNL     1      -3.233   1.618  -0.645  0.00  0.00    +0.050 A 
ATOM     10  C   UNL     1      -3.418   2.778   0.101  0.00  0.00    +0.027 A 
ATOM     11  C   UNL     1      -4.670   3.096   0.583  0.00  0.00    +0.017 A 
ATOM     12  C   UNL     1      -5.754   2.268   0.332  0.00  0.00    +0.019 A 
ATOM     13  C   UNL     1      -5.590   1.114  -0.405  0.00  0.00    +0.026 A 
ATOM     14 BR   UNL     1      -7.462   2.722   1.004  0.00  0.00    -0.050 Br
ATOM     15 BR   UNL     1      -4.469  -3.902  -3.732  0.00  0.00    -0.050 Br
ENDROOT
BRANCH   1  16
ATOM     16  C   UNL     1      -0.769   1.641  -1.201  0.00  0.00    +0.151 C 
BRANCH  16  17
ATOM     17  C   UNL     1      -0.021   1.109   0.023  0.00  0.00    +0.118 C 
BRANCH  17  18
ATOM     18  O   UNL     1      -0.666   1.569   1.212  0.00  0.00    -0.392 OA
ATOM     19  H   UNL     1      -0.699   2.532   1.295  0.00  0.00    +0.210 HD
ENDBRANCH  17  18
BRANCH  17  20
ATOM     20  C   UNL     1       1.423   1.615  -0.003  0.00  0.00    -0.045 C 
BRANCH  20  28
ATOM     21  C   UNL     1       2.480  -2.293   2.790  0.00  0.00    +0.005 C 
ATOM     22  C   UNL     1       2.613  -0.775   2.651  0.00  0.00    -0.031 C 
ATOM     23  C   UNL     1       4.095  -0.389   2.667  0.00  0.00    +0.003 C 
ATOM     24  C   UNL     1       4.221   1.124   2.468  0.00  0.00    -0.031 C 
ATOM     25  C   UNL     1       3.548   1.519   1.151  0.00  0.00    -0.076 C 
ATOM     26  C   UNL     1       1.987  -0.325   1.330  0.00  0.00    -0.076 C 
ATOM     27  C   UNL     1       5.701   1.511   2.422  0.00  0.00    +0.005 C 
ATOM     28  N   UNL     1       2.120   1.142   1.211  0.00  0.00    +0.382 N 
ATOM     29  H   UNL     1       1.693   1.583   2.034  0.00  0.00    -0.082 HD
ENDBRANCH  20  28
ENDBRANCH  17  20
ENDBRANCH  16  17
ENDBRANCH   1  16
TORSDOF 5
