REMARK  Name = ZINC55062966
REMARK  12 active torsions:
REMARK  status: ('A' for Active; 'I' for Inactive)
REMARK    1  A    between atoms: C_1  and  C_2
REMARK    2  A    between atoms: C_2  and  C_3
REMARK    3  A    between atoms: C_2  and  C_4
REMARK    4  A    between atoms: C_4  and  C_5
REMARK    5  A    between atoms: C_5  and  N_6
REMARK    6  A    between atoms: C_7  and  S_9
REMARK    7  A    between atoms: S_9  and  C_10
REMARK    8  A    between atoms: C_10  and  C_11
REMARK    9  A    between atoms: C_19  and  C_21
REMARK   10  A    between atoms: N_23  and  C_24
REMARK   11  A    between atoms: C_24  and  C_25
REMARK   12  A    between atoms: C_24  and  C_26
REMARK                            x       y       z     vdW  Elec       q    Type
REMARK                         _______ _______ _______ _____ _____    ______ ____
ROOT
ATOM      1  C   UNL     1      -1.387  -7.686  -0.539  0.00  0.00    +0.226 C 
ATOM      2  O   UNL     1      -0.214  -7.378  -0.553  0.00  0.00    -0.275 OA
ATOM      3  N   UNL     1      -1.745  -8.979  -0.658  0.00  0.00    -0.298 N 
ATOM      4  C   UNL     1      -3.163  -9.366  -0.649  0.00  0.00    +0.127 C 
ATOM      5  C   UNL     1      -3.460 -10.170  -1.921  0.00  0.00    +0.127 C 
ATOM      6  N   UNL     1      -2.440 -11.219  -2.062  0.00  0.00    -0.291 N 
ATOM      7  C   UNL     1      -1.022 -10.832  -2.071  0.00  0.00    +0.127 C 
ATOM      8  C   UNL     1      -0.726 -10.028  -0.805  0.00  0.00    +0.127 C 
ATOM      9  C   UNL     1      -2.799 -12.513  -2.181  0.00  0.00    +0.302 C 
ATOM     10  O   UNL     1      -1.956 -13.359  -2.394  0.00  0.00    -0.265 OA
ENDROOT
BRANCH   9  11
ATOM     11  C   UNL     1      -4.235 -12.905  -2.051  0.00  0.00    +0.299 C 
ATOM     12  O   UNL     1      -5.090 -12.050  -1.946  0.00  0.00    -0.265 OA
ATOM     13  N   UNL     1      -4.580 -14.208  -2.049  0.00  0.00    -0.305 N 
ATOM     14  H   UNL     1      -3.896 -14.891  -2.132  0.00  0.00    +0.149 HD
BRANCH  13  15
ATOM     15  C   UNL     1      -5.988 -14.592  -1.921  0.00  0.00    +0.067 C 
ATOM     16  C   UNL     1      -6.199 -15.972  -2.547  0.00  0.00    +0.027 C 
ATOM     17  C   UNL     1      -6.371 -14.640  -0.441  0.00  0.00    +0.027 C 
ENDBRANCH  13  15
ENDBRANCH   9  11
BRANCH   1  18
ATOM     18  C   UNL     1      -2.443  -6.622  -0.389  0.00  0.00    +0.173 C 
BRANCH  18  19
ATOM     19  S   UNL     1      -1.649  -4.996  -0.253  0.00  0.00    -0.084 S 
BRANCH  19  21
ATOM     20  N   UNL     1      -2.773  -2.597   0.036  0.00  0.00    -0.368 N 
ATOM     21  C   UNL     1      -2.999  -3.875  -0.086  0.00  0.00    +0.126 C 
ATOM     22  N   UNL     1      -4.290  -4.349  -0.084  0.00  0.00    -0.339 N 
ATOM     23  H   UNL     1      -5.033  -3.732   0.008  0.00  0.00    +0.144 HD
ATOM     24  H   UNL     1      -4.458  -5.300  -0.175  0.00  0.00    +0.144 HD
ATOM     25  H   UNL     1      -3.516  -1.980   0.129  0.00  0.00    +0.161 HD
BRANCH  20  26
ATOM     26  C   UNL     1      -1.397  -2.092   0.035  0.00  0.00    +0.114 C 
BRANCH  26  27
ATOM     27  C   UNL     1      -1.412  -0.570   0.192  0.00  0.00    +0.024 C 
BRANCH  27  29
ATOM     28  C   UNL     1       0.006   1.486   0.221  0.00  0.00    +0.007 C 
ATOM     29  C   UNL     1       0.024  -0.043   0.190  0.00  0.00    -0.016 C 
ATOM     30  C   UNL     1       0.762  -0.570   1.423  0.00  0.00    +0.007 C 
ENDBRANCH  27  29
ENDBRANCH  26  27
ENDBRANCH  20  26
ENDBRANCH  19  21
ENDBRANCH  18  19
ENDBRANCH   1  18
TORSDOF 8
