REMARK  Name = ZINC37078446
REMARK  7 active torsions:
REMARK  status: ('A' for Active; 'I' for Inactive)
REMARK    1  A    between atoms: C_1  and  C_2
REMARK    2  A    between atoms: C_2  and  N_3
REMARK    3  A    between atoms: N_3  and  C_4
REMARK    4  A    between atoms: N_3  and  C_5
REMARK    5  A    between atoms: C_5  and  C_7
REMARK    6  A    between atoms: C_5  and  C_9
REMARK    7  A    between atoms: C_7  and  N_8
REMARK                            x       y       z     vdW  Elec       q    Type
REMARK                         _______ _______ _______ _____ _____    ______ ____
ROOT
ATOM      1  C   UNL     1      -2.748  -2.598  -0.067  0.00  0.00    -0.027 A 
ATOM      2  C   UNL     1      -2.883  -3.741  -0.835  0.00  0.00    +0.054 A 
ATOM      3  C   UNL     1      -4.134  -4.309  -1.006  0.00  0.00    +0.163 A 
ATOM      4  C   UNL     1      -5.247  -3.735  -0.408  0.00  0.00    +0.176 A 
ATOM      5  C   UNL     1      -5.108  -2.591   0.360  0.00  0.00    +0.063 A 
ATOM      6  C   UNL     1      -3.855  -2.028   0.533  0.00  0.00    +0.024 A 
ATOM      7 BR   UNL     1      -6.623  -1.805   1.176  0.00  0.00    -0.046 Br
ATOM      8  O   UNL     1      -6.475  -4.304  -0.581  0.00  0.00    -0.487 OA
ATOM      9  C   UNL     1      -7.016  -4.231  -1.902  0.00  0.00    +0.232 C 
ATOM     10  C   UNL     1      -6.491  -5.368  -2.764  0.00  0.00    +0.082 C 
ATOM     11  C   UNL     1      -4.990  -5.277  -2.991  0.00  0.00    +0.232 C 
ATOM     12  O   UNL     1      -4.281  -5.437  -1.760  0.00  0.00    -0.488 OA
ENDROOT
BRANCH   1  13
ATOM     13  C   UNL     1      -1.388  -1.976   0.121  0.00  0.00    +0.069 C 
BRANCH  13  14
ATOM     14  N   UNL     1      -1.507  -0.513   0.069  0.00  0.00    -0.301 NA
ATOM     15  C   UNL     1      -2.177  -0.083  -1.166  0.00  0.00    +0.105 C 
BRANCH  14  17
ATOM     16  C   UNL     1      -0.378   1.614   0.516  0.00  0.00    +0.020 C 
ATOM     17  C   UNL     1      -0.192   0.128   0.204  0.00  0.00    +0.081 C 
ENDBRANCH  14  17
ENDBRANCH  13  14
BRANCH  13  18
ATOM     18  C   UNL     1      -0.821  -2.393   1.480  0.00  0.00    -0.063 C 
BRANCH  18  19
ATOM     19  N   UNL     1      -0.617  -3.848   1.500  0.00  0.00    +0.379 N 
ATOM     20  H   UNL     1      -0.162  -4.112   2.361  0.00  0.00    -0.090 HD
ATOM     21  H   UNL     1      -1.510  -4.313   1.435  0.00  0.00    -0.090 HD
ATOM     22  H   UNL     1      -0.040  -4.118   0.718  0.00  0.00    -0.090 HD
ENDBRANCH  18  19
ENDBRANCH  13  18
ENDBRANCH   1  13
TORSDOF 5
