REMARK  Name = ZINC38717990
REMARK  6 active torsions:
REMARK  status: ('A' for Active; 'I' for Inactive)
REMARK    1  A    between atoms: C_1  and  N_2
REMARK    2  A    between atoms: N_5  and  N_8
REMARK    3  A    between atoms: C_9  and  C_11
REMARK    4  A    between atoms: N_13  and  C_14
REMARK    5  A    between atoms: C_14  and  C_15
REMARK    6  A    between atoms: C_15  and  N_16
REMARK                            x       y       z     vdW  Elec       q    Type
REMARK                         _______ _______ _______ _____ _____    ______ ____
ROOT
ATOM      1  N   UNL     1       1.448  -3.871  -0.034  0.00  0.00    -0.241 N 
ATOM      2  C   UNL     1       2.648  -4.485  -0.011  0.00  0.00    +0.313 C 
ATOM      3  O   UNL     1       3.666  -3.825   0.016  0.00  0.00    -0.264 OA
ATOM      4  H   UNL     1       0.634  -4.398  -0.055  0.00  0.00    +0.170 HD
ENDROOT
BRANCH   1   9
ATOM      5  C   UNL     1      -0.018   1.465   0.010  0.00  0.00    -0.096 C 
ATOM      6  N   UNL     1       0.002  -0.004   0.002  0.00  0.00    +0.380 N 
ATOM      7  C   UNL     1       0.688  -0.477  -1.207  0.00  0.00    -0.062 C 
ATOM      8  C   UNL     1       0.693  -2.008  -1.226  0.00  0.00    +0.087 C 
ATOM      9  N   UNL     1       1.378  -2.507  -0.025  0.00  0.00    -0.230 NA
ATOM     10  C   UNL     1       0.717  -2.021   1.194  0.00  0.00    +0.087 C 
ATOM     11  C   UNL     1       0.713  -0.490   1.192  0.00  0.00    -0.062 C 
ATOM     12  H   UNL     1      -0.945  -0.353   0.010  0.00  0.00    -0.082 HD
ENDBRANCH   1   9
BRANCH   2  13
ATOM     13  C   UNL     1       2.724  -5.977  -0.020  0.00  0.00    +0.300 C 
ATOM     14  O   UNL     1       1.706  -6.637  -0.047  0.00  0.00    -0.265 OA
ATOM     15  N   UNL     1       3.924  -6.591   0.002  0.00  0.00    -0.306 N 
ATOM     16  H   UNL     1       4.738  -6.064   0.024  0.00  0.00    +0.149 HD
BRANCH  15  17
ATOM     17  C   UNL     1       3.999  -8.054  -0.006  0.00  0.00    +0.120 C 
BRANCH  17  18
ATOM     18  C   UNL     1       5.465  -8.490   0.023  0.00  0.00    +0.103 C 
BRANCH  18  19
ATOM     19  N   UNL     1       5.540  -9.957   0.014  0.00  0.00    -0.297 NA
ATOM     20  C   UNL     1       5.046 -10.502  -1.258  0.00  0.00    +0.112 C 
ATOM     21  C   UNL     1       5.086 -12.031  -1.202  0.00  0.00    +0.175 C 
ATOM     22  O   UNL     1       6.420 -12.458  -0.912  0.00  0.00    -0.377 OA
ATOM     23  C   UNL     1       6.933 -11.946   0.321  0.00  0.00    +0.175 C 
ATOM     24  C   UNL     1       6.912 -10.416   0.280  0.00  0.00    +0.112 C 
ENDBRANCH  18  19
ENDBRANCH  17  18
ENDBRANCH  15  17
ENDBRANCH   2  13
TORSDOF 5
