REMARK  Name = ZINC33568224
REMARK  10 active torsions:
REMARK  status: ('A' for Active; 'I' for Inactive)
REMARK    1  A    between atoms: C_1  and  C_2
REMARK    2  A    between atoms: C_2  and  O_3
REMARK    3  A    between atoms: O_3  and  C_4
REMARK    4  A    between atoms: C_7  and  N_10
REMARK    5  A    between atoms: N_12  and  C_33
REMARK    6  A    between atoms: C_16  and  C_17
REMARK    7  A    between atoms: C_20  and  C_22
REMARK    8  A    between atoms: C_25  and  S_28
REMARK    9  A    between atoms: S_28  and  N_31
REMARK   10  A    between atoms: C_33  and  C_34
REMARK                            x       y       z     vdW  Elec       q    Type
REMARK                         _______ _______ _______ _____ _____    ______ ____
ROOT
ATOM      1  N   UNL     1      -0.299  -5.687  -1.640  0.00  0.00    -0.225 NA
ATOM      2  C   UNL     1       0.036  -6.340  -2.731  0.00  0.00    +0.169 C 
ATOM      3  N   UNL     1       0.331  -5.831  -3.977  0.00  0.00    -0.242 N 
ATOM      4  C   UNL     1       0.653  -6.638  -4.974  0.00  0.00    +0.259 C 
ATOM      5  O   UNL     1       0.917  -6.206  -6.082  0.00  0.00    -0.269 OA
ATOM      6  C   UNL     1       0.679  -8.081  -4.686  0.00  0.00    +0.081 C 
ATOM      7  C   UNL     1       0.974  -9.124  -5.516  0.00  0.00    +0.066 C 
ATOM      8  S   UNL     1       0.228  -8.100  -2.957  0.00  0.00    -0.049 S 
ENDROOT
BRANCH   1  12
ATOM      9  C   UNL     1      -1.664  -1.786  -1.899  0.00  0.00    +0.121 A 
ATOM     10  C   UNL     1      -0.401  -2.045  -1.385  0.00  0.00    +0.048 A 
ATOM     11  C   UNL     1       0.058  -3.342  -1.296  0.00  0.00    +0.031 A 
ATOM     12  C   UNL     1      -0.750  -4.397  -1.726  0.00  0.00    +0.067 A 
ATOM     13  C   UNL     1      -2.021  -4.132  -2.243  0.00  0.00    +0.031 A 
ATOM     14  C   UNL     1      -2.473  -2.832  -2.322  0.00  0.00    +0.048 A 
BRANCH   9  15
ATOM     15  O   UNL     1      -2.112  -0.505  -1.984  0.00  0.00    -0.492 OA
BRANCH  15  17
ATOM     16  C   UNL     1      -1.901   1.886  -1.703  0.00  0.00    +0.048 C 
ATOM     17  C   UNL     1      -1.228   0.523  -1.531  0.00  0.00    +0.225 C 
ENDBRANCH  15  17
ENDBRANCH   9  15
ENDBRANCH   1  12
BRANCH   7  18
ATOM     18  C   UNL     1       0.938 -10.447  -5.026  0.00  0.00    +0.130 A 
ATOM     19  C   UNL     1       1.218 -11.591  -5.752  0.00  0.00    +0.050 A 
ATOM     20  C   UNL     1       1.060 -12.671  -4.879  0.00  0.00    +0.050 A 
ATOM     21  C   UNL     1       0.695 -12.159  -3.667  0.00  0.00    +0.136 A 
ATOM     22  O   UNL     1       0.629 -10.818  -3.765  0.00  0.00    -0.455 OA
BRANCH  21  23
ATOM     23  C   UNL     1       0.423 -12.945  -2.448  0.00  0.00    +0.017 A 
ATOM     24  C   UNL     1       0.537 -14.338  -2.471  0.00  0.00    +0.013 A 
ATOM     25  C   UNL     1       0.281 -15.066  -1.328  0.00  0.00    +0.029 A 
ATOM     26  C   UNL     1      -0.089 -14.421  -0.161  0.00  0.00    +0.105 A 
ATOM     27  C   UNL     1      -0.204 -13.043  -0.131  0.00  0.00    +0.029 A 
ATOM     28  C   UNL     1       0.055 -12.301  -1.264  0.00  0.00    +0.013 A 
BRANCH  26  29
ATOM     29  S   UNL     1      -0.414 -15.361   1.294  0.00  0.00    +0.056 S 
ATOM     30  O   UNL     1      -1.271 -14.568   2.106  0.00  0.00    -0.153 OA
ATOM     31  O   UNL     1      -0.768 -16.668   0.863  0.00  0.00    -0.153 OA
BRANCH  29  32
ATOM     32  N   UNL     1       1.017 -15.504   2.115  0.00  0.00    -0.204 NA
ATOM     33  H   UNL     1       1.823 -15.100   1.758  0.00  0.00    +0.144 HD
ATOM     34  H   UNL     1       1.049 -15.992   2.953  0.00  0.00    +0.144 HD
ENDBRANCH  29  32
ENDBRANCH  26  29
ENDBRANCH  21  23
ENDBRANCH   7  18
BRANCH   3  35
ATOM     35  C   UNL     1       0.287  -4.384  -4.200  0.00  0.00    +0.142 C 
BRANCH  35  36
ATOM     36  C   UNL     1       1.671  -3.809  -4.043  0.00  0.00    -0.015 C 
ATOM     37  C   UNL     1       2.186  -3.070  -4.995  0.00  0.00    +0.005 C 
ENDBRANCH  35  36
ENDBRANCH   3  35
TORSDOF 9
