REMARK  Name = ZINC63465013
REMARK  8 active torsions:
REMARK  status: ('A' for Active; 'I' for Inactive)
REMARK    1  A    between atoms: C_1  and  O_2
REMARK    2  A    between atoms: O_2  and  C_3
REMARK    3  A    between atoms: C_8  and  C_13
REMARK    4  A    between atoms: N_15  and  N_16
REMARK    5  A    between atoms: C_17  and  C_18
REMARK    6  A    between atoms: C_22  and  O_25
REMARK    7  A    between atoms: C_23  and  O_24
REMARK    8  A    between atoms: O_25  and  C_26
REMARK                            x       y       z     vdW  Elec       q    Type
REMARK                         _______ _______ _______ _____ _____    ______ ____
ROOT
ATOM      1  C   UNL     1       3.447  -4.748  -3.515  0.00  0.00    +0.259 C 
ATOM      2  O   UNL     1       3.740  -5.163  -2.414  0.00  0.00    -0.271 OA
ATOM      3  N   UNL     1       4.289  -4.934  -4.551  0.00  0.00    -0.205 N 
ATOM      4  H   UNL     1       4.054  -4.602  -5.432  0.00  0.00    +0.177 HD
ENDROOT
BRANCH   1  10
ATOM      5  C   UNL     1       0.605  -0.606  -1.053  0.00  0.00    +0.122 A 
ATOM      6  C   UNL     1       1.171   0.200  -2.059  0.00  0.00    +0.046 A 
ATOM      7  C   UNL     1       1.785  -0.338  -3.135  0.00  0.00    +0.013 A 
ATOM      8  C   UNL     1       1.862  -1.799  -3.257  0.00  0.00    -0.003 A 
ATOM      9  C   UNL     1       2.399  -2.610  -4.195  0.00  0.00    +0.016 C 
ATOM     10  C   UNL     1       2.142  -4.025  -3.725  0.00  0.00    +0.191 C 
ATOM     11  N   UNL     1       1.419  -3.902  -2.454  0.00  0.00    -0.370 N 
ATOM     12  C   UNL     1       1.260  -2.626  -2.186  0.00  0.00    +0.047 A 
ATOM     13  C   UNL     1       0.643  -1.962  -1.097  0.00  0.00    +0.071 A 
ATOM     14  H   UNL     1       1.112  -4.639  -1.904  0.00  0.00    +0.161 HD
BRANCH   5  16
ATOM     15  C   UNL     1      -0.017   1.425   0.010  0.00  0.00    +0.277 C 
ATOM     16  O   UNL     1       0.002  -0.004   0.002  0.00  0.00    -0.495 OA
ENDBRANCH   5  16
ENDBRANCH   1  10
BRANCH   3  17
ATOM     17  N   UNL     1       5.502  -5.606  -4.356  0.00  0.00    -0.188 NA
ATOM     18  C   UNL     1       6.313  -5.785  -5.354  0.00  0.00    +0.142 C 
BRANCH  18  19
ATOM     19  C   UNL     1       7.589  -6.493  -5.148  0.00  0.00    +0.040 A 
ATOM     20  C   UNL     1       8.467  -6.682  -6.219  0.00  0.00    +0.013 A 
ATOM     21  C   UNL     1       9.661  -7.345  -6.023  0.00  0.00    +0.004 A 
ATOM     22  C   UNL     1       9.995  -7.825  -4.768  0.00  0.00    +0.049 A 
ATOM     23  C   UNL     1       9.134  -7.645  -3.697  0.00  0.00    +0.162 A 
ATOM     24  C   UNL     1       7.931  -6.973  -3.878  0.00  0.00    +0.167 A 
BRANCH  24  25
ATOM     25  O   UNL     1       7.087  -6.789  -2.829  0.00  0.00    -0.503 OA
ATOM     26  H   UNL     1       6.446  -7.504  -2.709  0.00  0.00    +0.292 HD
ENDBRANCH  24  25
BRANCH  23  27
ATOM     27  O   UNL     1       9.469  -8.120  -2.468  0.00  0.00    -0.491 OA
ATOM     28  C   UNL     1      10.724  -8.794  -2.353  0.00  0.00    +0.277 C 
ENDBRANCH  23  27
ENDBRANCH  18  19
ENDBRANCH   3  17
TORSDOF 6
