REMARK  Name = ZINC11143260
REMARK  5 active torsions:
REMARK  status: ('A' for Active; 'I' for Inactive)
REMARK    1  A    between atoms: C_1  and  C_2
REMARK    2  A    between atoms: C_5  and  C_27
REMARK    3  A    between atoms: N_11  and  C_12
REMARK    4  A    between atoms: C_12  and  C_13
REMARK    5  A    between atoms: C_19  and  C_21
REMARK                            x       y       z     vdW  Elec       q    Type
REMARK                         _______ _______ _______ _____ _____    ______ ____
ROOT
ATOM      1  C   UNL     1       3.262   1.228  -1.131  0.00  0.00    +0.046 C 
ATOM      2  C   UNL     1       2.052   1.980  -1.622  0.00  0.00    -0.024 A 
ATOM      3  C   UNL     1       1.160   1.357  -2.456  0.00  0.00    +0.006 A 
ATOM      4  C   UNL     1       0.037   2.014  -2.936  0.00  0.00    +0.005 A 
ATOM      5  C   UNL     1      -0.196   3.324  -2.558  0.00  0.00    -0.035 A 
ATOM      6  C   UNL     1       0.691   3.955  -1.723  0.00  0.00    +0.044 A 
ATOM      7  C   UNL     1       1.849   3.320  -1.219  0.00  0.00    +0.083 A 
ATOM      8  N   UNL     1       2.624   4.073  -0.409  0.00  0.00    -0.224 NA
ATOM      9  C   UNL     1       2.329   5.316  -0.106  0.00  0.00    +0.169 A 
ATOM     10  S   UNL     1       0.804   5.575  -1.002  0.00  0.00    -0.052 S 
ATOM     11  N   UNL     1       3.022   6.200   0.702  0.00  0.00    -0.241 N 
ATOM     12  C   UNL     1       2.551   7.449   0.894  0.00  0.00    +0.290 C 
ATOM     13  O   UNL     1       1.497   7.786   0.385  0.00  0.00    -0.266 OA
ATOM     14  C   UNL     1      -1.413   4.054  -3.063  0.00  0.00    +0.045 C 
ENDROOT
BRANCH  12  15
ATOM     15  C   UNL     1       3.305   8.398   1.712  0.00  0.00    +0.217 C 
ATOM     16  C   UNL     1       4.637   8.468   1.573  0.00  0.00    +0.238 C 
ATOM     17  O   UNL     1       5.382   9.320   2.309  0.00  0.00    -0.492 OA
ATOM     18  C   UNL     1       4.687  10.393   2.954  0.00  0.00    +0.269 C 
ATOM     19  C   UNL     1       3.428   9.816   3.617  0.00  0.00    +0.270 C 
ATOM     20  O   UNL     1       2.638   9.193   2.594  0.00  0.00    -0.481 OA
ENDBRANCH  12  15
BRANCH  11  21
ATOM     21  C   UNL     1       4.267   5.780   1.349  0.00  0.00    +0.147 C 
BRANCH  21  22
ATOM     22  C   UNL     1       5.112   4.979   0.357  0.00  0.00    +0.136 C 
ATOM     23  C   UNL     1       6.391   4.452   1.044  0.00  0.00    +0.035 C 
ATOM     24  C   UNL     1       7.478   4.565  -0.049  0.00  0.00    +0.031 C 
ATOM     25  C   UNL     1       6.727   5.147  -1.266  0.00  0.00    +0.160 C 
ATOM     26  O   UNL     1       5.587   5.836  -0.704  0.00  0.00    -0.375 OA
ENDBRANCH  21  22
ENDBRANCH  11  21
TORSDOF 3
