REMARK  Name = ZINC19218268
REMARK  14 active torsions:
REMARK  status: ('A' for Active; 'I' for Inactive)
REMARK    1  A    between atoms: C_1  and  C_2
REMARK    2  A    between atoms: C_2  and  N_3
REMARK    3  A    between atoms: N_6  and  C_9
REMARK    4  A    between atoms: C_9  and  C_10
REMARK    5  A    between atoms: C_10  and  C_12
REMARK    6  A    between atoms: C_10  and  O_31
REMARK    7  A    between atoms: C_12  and  O_13
REMARK    8  A    between atoms: O_13  and  C_14
REMARK    9  A    between atoms: C_17  and  C_22
REMARK   10  A    between atoms: C_19  and  O_20
REMARK   11  A    between atoms: O_20  and  C_21
REMARK   12  A    between atoms: C_22  and  N_23
REMARK   13  A    between atoms: N_23  and  C_24
REMARK   14  A    between atoms: C_27  and  O_30
REMARK                            x       y       z     vdW  Elec       q    Type
REMARK                         _______ _______ _______ _____ _____    ______ ____
ROOT
ATOM      1  C   UNL     1       1.107  -0.343  -7.037  0.00  0.00    +0.162 A 
ATOM      2  C   UNL     1       0.494  -1.247  -6.184  0.00  0.00    +0.049 A 
ATOM      3  C   UNL     1      -0.184  -0.793  -5.067  0.00  0.00    +0.005 A 
ATOM      4  C   UNL     1      -0.251   0.561  -4.798  0.00  0.00    -0.061 A 
ATOM      5  C   UNL     1       0.354   1.468  -5.648  0.00  0.00    +0.051 A 
ATOM      6  C   UNL     1       1.038   1.020  -6.766  0.00  0.00    +0.162 A 
ENDROOT
BRANCH   6   7
ATOM      7  O   UNL     1       1.638   1.911  -7.600  0.00  0.00    -0.491 OA
ATOM      8  C   UNL     1       1.528   3.295  -7.260  0.00  0.00    +0.277 C 
ENDBRANCH   6   7
BRANCH   1   9
ATOM      9  O   UNL     1       1.773  -0.787  -8.136  0.00  0.00    -0.486 OA
BRANCH   9  10
ATOM     10  C   UNL     1       1.801  -2.200  -8.350  0.00  0.00    +0.261 C 
BRANCH  10  11
ATOM     11  C   UNL     1       2.589  -2.506  -9.625  0.00  0.00    +0.166 C 
BRANCH  11  12
ATOM     12  O   UNL     1       3.954  -2.124  -9.444  0.00  0.00    -0.387 OA
ATOM     13  H   UNL     1       4.207  -1.077  -9.220  0.00  0.00    +0.210 HD
ENDBRANCH  11  12
BRANCH  11  14
ATOM     14  C   UNL     1       2.514  -4.005  -9.923  0.00  0.00    +0.119 C 
BRANCH  14  18
ATOM     15  N   UNL     1       3.649  -5.393 -13.748  0.00  0.00    +0.381 N 
ATOM     16  C   UNL     1       4.283  -6.011 -12.576  0.00  0.00    -0.063 C 
ATOM     17  C   UNL     1       3.423  -5.749 -11.337  0.00  0.00    +0.066 C 
ATOM     18  N   UNL     1       3.272  -4.300 -11.147  0.00  0.00    -0.303 NA
ATOM     19  C   UNL     1       2.638  -3.681 -12.320  0.00  0.00    +0.066 C 
ATOM     20  C   UNL     1       3.498  -3.944 -13.559  0.00  0.00    -0.063 C 
ATOM     21  H   UNL     1       2.645  -5.828 -13.861  0.00  0.00    -0.082 HD
BRANCH  15  23
ATOM     22  C   UNL     1       3.595  -5.247 -16.192  0.00  0.00    -0.017 C 
ATOM     23  C   UNL     1       4.406  -5.687 -14.972  0.00  0.00    -0.082 C 
ENDBRANCH  15  23
ENDBRANCH  14  18
ENDBRANCH  11  14
ENDBRANCH  10  11
ENDBRANCH   9  10
ENDBRANCH   1   9
BRANCH   4  24
ATOM     24  C   UNL     1      -0.990   1.050  -3.579  0.00  0.00    -0.046 C 
BRANCH  24  25
ATOM     25  N   UNL     1      -0.065   1.119  -2.440  0.00  0.00    +0.384 N 
ATOM     26  H   UNL     1       0.348   0.119  -2.242  0.00  0.00    -0.085 HD
ATOM     27  H   UNL     1       0.754   1.814  -2.675  0.00  0.00    -0.085 HD
BRANCH  25  28
ATOM     28  C   UNL     1      -0.753   1.593  -1.232  0.00  0.00    -0.071 C 
ATOM     29  C   UNL     1      -0.013   1.086   0.008  0.00  0.00    -0.013 C 
ATOM     30  C   UNL     1      -0.729   1.579   1.267  0.00  0.00    +0.030 C 
ATOM     31  C   UNL     1      -0.750   3.109   1.275  0.00  0.00    +0.114 C 
ATOM     32  C   UNL     1      -1.490   3.616   0.036  0.00  0.00    +0.030 C 
ATOM     33  C   UNL     1      -0.773   3.123  -1.223  0.00  0.00    -0.013 C 
BRANCH  31  34
ATOM     34  O   UNL     1       0.591   3.604   1.265  0.00  0.00    -0.392 OA
ATOM     35  H   UNL     1       0.777   4.688   1.269  0.00  0.00    +0.210 HD
ENDBRANCH  31  34
ENDBRANCH  25  28
ENDBRANCH  24  25
ENDBRANCH   4  24
TORSDOF 12
