REMARK  Name = ZINC61571223
REMARK  5 active torsions:
REMARK  status: ('A' for Active; 'I' for Inactive)
REMARK    1  A    between atoms: C_4  and  N_14
REMARK    2  A    between atoms: C_5  and  C_7
REMARK    3  A    between atoms: C_7  and  N_8
REMARK    4  A    between atoms: C_15  and  C_17
REMARK    5  A    between atoms: C_20  and  C_23
REMARK                            x       y       z     vdW  Elec       q    Type
REMARK                         _______ _______ _______ _____ _____    ______ ____
ROOT
ATOM      1  N   UNL     1       3.568  -0.161   0.422  0.00  0.00    -0.281 N 
ATOM      2  C   UNL     1       4.438   0.619   1.094  0.00  0.00    +0.248 C 
ATOM      3  O   UNL     1       4.111   1.739   1.434  0.00  0.00    -0.270 OA
ATOM      4  H   UNL     1       3.848  -1.031   0.097  0.00  0.00    +0.155 HD
ENDROOT
BRANCH   1   8
ATOM      5  C   UNL     1      -0.323   1.160  -0.257  0.00  0.00    +0.000 A 
ATOM      6  C   UNL     1       0.704   2.077  -0.127  0.00  0.00    +0.002 A 
ATOM      7  C   UNL     1       1.995   1.642   0.099  0.00  0.00    +0.023 A 
ATOM      8  C   UNL     1       2.262   0.282   0.195  0.00  0.00    +0.035 A 
ATOM      9  C   UNL     1       1.228  -0.635   0.064  0.00  0.00    -0.043 A 
ATOM     10  C   UNL     1      -0.061  -0.194  -0.162  0.00  0.00    +0.003 A 
BRANCH   9  11
ATOM     11  C   UNL     1       1.512  -2.112   0.167  0.00  0.00    -0.041 C 
BRANCH  11  12
ATOM     12  N   UNL     1       1.694  -2.478   1.578  0.00  0.00    +0.383 N 
ATOM     13  C   UNL     1       2.157  -3.865   1.658  0.00  0.00    -0.068 C 
ATOM     14  C   UNL     1       2.705  -4.151   3.061  0.00  0.00    +0.050 C 
ATOM     15  S   UNL     1       1.350  -3.937   4.257  0.00  0.00    -0.164 S 
ATOM     16  C   UNL     1       0.669  -2.312   3.801  0.00  0.00    +0.050 C 
ATOM     17  C   UNL     1       0.425  -2.301   2.287  0.00  0.00    -0.068 C 
ATOM     18  H   UNL     1       2.390  -1.874   1.989  0.00  0.00    -0.081 HD
ENDBRANCH  11  12
ENDBRANCH   9  11
ENDBRANCH   1   8
BRANCH   2  19
ATOM     19  C   UNL     1       5.790   0.113   1.416  0.00  0.00    +0.037 A 
ATOM     20  C   UNL     1       6.167  -1.171   1.020  0.00  0.00    +0.014 A 
ATOM     21  C   UNL     1       7.427  -1.643   1.320  0.00  0.00    +0.014 A 
ATOM     22  C   UNL     1       8.325  -0.837   2.020  0.00  0.00    +0.037 A 
ATOM     23  C   UNL     1       7.948   0.447   2.417  0.00  0.00    +0.014 A 
ATOM     24  C   UNL     1       6.691   0.921   2.112  0.00  0.00    +0.014 A 
BRANCH  22  25
ATOM     25  C   UNL     1       9.678  -1.343   2.344  0.00  0.00    +0.242 C 
ATOM     26  O   UNL     1      10.006  -2.462   1.999  0.00  0.00    -0.270 OA
ATOM     27  N   UNL     1      10.546  -0.565   3.020  0.00  0.00    -0.325 N 
ATOM     28  H   UNL     1      10.284   0.328   3.295  0.00  0.00    +0.145 HD
ATOM     29  H   UNL     1      11.432  -0.897   3.232  0.00  0.00    +0.145 HD
ENDBRANCH  22  25
ENDBRANCH   2  19
TORSDOF 5
