REMARK  Name = ZINC14461829
REMARK  11 active torsions:
REMARK  status: ('A' for Active; 'I' for Inactive)
REMARK    1  A    between atoms: C_1  and  C_2
REMARK    2  A    between atoms: C_2  and  N_3
REMARK    3  A    between atoms: N_3  and  C_4
REMARK    4  A    between atoms: N_3  and  C_6
REMARK    5  A    between atoms: C_4  and  C_5
REMARK    6  A    between atoms: C_9  and  C_12
REMARK    7  A    between atoms: C_23  and  S_28
REMARK    8  A    between atoms: S_28  and  N_31
REMARK    9  A    between atoms: N_31  and  C_32
REMARK   10  A    between atoms: C_33  and  C_39
REMARK   11  A    between atoms: C_37  and  C_38
REMARK                            x       y       z     vdW  Elec       q    Type
REMARK                         _______ _______ _______ _____ _____    ______ ____
ROOT
ATOM      1  C   UNL     1       1.439   1.206   2.030  0.00  0.00    +0.105 C 
ATOM      2  C   UNL     1       2.526   0.791   1.055  0.00  0.00    +0.029 C 
ATOM      3  C   UNL     1       3.952   1.275   1.351  0.00  0.00    +0.033 C 
ATOM      4  C   UNL     1       4.793   0.156   0.733  0.00  0.00    -0.030 C 
ATOM      5  C   UNL     1       4.096  -0.973   0.707  0.00  0.00    -0.023 C 
ATOM      6  C   UNL     1       2.767  -0.725   1.323  0.00  0.00    +0.049 C 
ATOM      7  C   UNL     1       1.557  -1.461   0.901  0.00  0.00    -0.018 A 
ATOM      8  C   UNL     1       1.612  -2.724   0.352  0.00  0.00    +0.034 A 
ATOM      9  C   UNL     1       0.449  -3.380  -0.007  0.00  0.00    +0.109 A 
ATOM     10  C   UNL     1      -0.777  -2.769   0.184  0.00  0.00    +0.030 A 
ATOM     11  C   UNL     1      -0.842  -1.502   0.725  0.00  0.00    +0.025 A 
ATOM     12  C   UNL     1       0.321  -0.831   1.084  0.00  0.00    +0.031 A 
ATOM     13  N   UNL     1       0.229   0.460   1.619  0.00  0.00    -0.336 N 
ATOM     14  H   UNL     1      -0.642   0.874   1.718  0.00  0.00    +0.147 HD
ENDROOT
BRANCH   1  18
ATOM     15  C   UNL     1       2.547   0.143   6.018  0.00  0.00    +0.030 A 
ATOM     16  C   UNL     1       2.920   1.375   5.497  0.00  0.00    +0.023 A 
ATOM     17  C   UNL     1       2.561   1.716   4.208  0.00  0.00    +0.007 A 
ATOM     18  C   UNL     1       1.829   0.832   3.436  0.00  0.00    -0.027 A 
ATOM     19  C   UNL     1       1.451  -0.394   3.954  0.00  0.00    +0.007 A 
ATOM     20  C   UNL     1       1.812  -0.743   5.240  0.00  0.00    +0.023 A 
BRANCH  15  21
ATOM     21  N   UNL     1       2.908  -0.204   7.322  0.00  0.00    -0.330 N 
BRANCH  21  23
ATOM     22  C   UNL     1       3.600  -2.537   7.567  0.00  0.00    +0.024 C 
ATOM     23  C   UNL     1       2.513  -1.504   7.870  0.00  0.00    +0.102 C 
ENDBRANCH  21  23
BRANCH  21  24
ATOM     24  C   UNL     1       3.683   0.732   8.141  0.00  0.00    +0.102 C 
ATOM     25  C   UNL     1       2.728   1.639   8.921  0.00  0.00    +0.024 C 
ENDBRANCH  21  24
ENDBRANCH  15  21
ENDBRANCH   1  18
BRANCH   9  26
ATOM     26  S   UNL     1       0.529  -4.995  -0.708  0.00  0.00    +0.072 S 
ATOM     27  O   UNL     1      -0.609  -5.130  -1.547  0.00  0.00    -0.150 OA
ATOM     28  O   UNL     1       1.855  -5.163  -1.190  0.00  0.00    -0.150 OA
BRANCH  26  29
ATOM     29  N   UNL     1       0.336  -6.077   0.531  0.00  0.00    -0.216 N 
ATOM     30  H   UNL     1       1.077  -6.640   0.803  0.00  0.00    +0.174 HD
BRANCH  29  31
ATOM     31  C   UNL     1      -0.895  -6.178   1.184  0.00  0.00    +0.054 A 
ATOM     32  C   UNL     1      -1.053  -5.644   2.457  0.00  0.00    -0.028 A 
ATOM     33  C   UNL     1      -2.273  -5.742   3.098  0.00  0.00    +0.005 A 
ATOM     34  C   UNL     1      -3.332  -6.379   2.478  0.00  0.00    +0.001 A 
ATOM     35  C   UNL     1      -3.176  -6.916   1.213  0.00  0.00    +0.005 A 
ATOM     36  C   UNL     1      -1.961  -6.817   0.564  0.00  0.00    -0.028 A 
ATOM     37  C   UNL     1      -1.792  -7.402  -0.814  0.00  0.00    +0.046 C 
ATOM     38  C   UNL     1       0.102  -4.955   3.135  0.00  0.00    +0.046 C 
ENDBRANCH  29  31
ENDBRANCH  26  29
ENDBRANCH   9  26
TORSDOF 7
