REMARK  Name = ZINC64220440
REMARK  9 active torsions:
REMARK  status: ('A' for Active; 'I' for Inactive)
REMARK    1  A    between atoms: C_1  and  C_2
REMARK    2  A    between atoms: N_4  and  C_5
REMARK    3  A    between atoms: C_5  and  C_7
REMARK    4  A    between atoms: C_5  and  C_17
REMARK    5  A    between atoms: C_7  and  C_8
REMARK    6  A    between atoms: N_19  and  C_20
REMARK    7  A    between atoms: C_20  and  C_21
REMARK    8  A    between atoms: C_21  and  C_23
REMARK    9  A    between atoms: C_21  and  N_30
REMARK                            x       y       z     vdW  Elec       q    Type
REMARK                         _______ _______ _______ _____ _____    ______ ____
ROOT
ATOM      1  C   UNL     1      -0.885  -2.873  -0.371  0.00  0.00    +0.234 C 
ATOM      2  O   UNL     1      -1.465  -2.079   0.339  0.00  0.00    -0.274 OA
ATOM      3  N   UNL     1      -1.415  -4.092  -0.592  0.00  0.00    -0.315 N 
ATOM      4  H   UNL     1      -0.951  -4.727  -1.160  0.00  0.00    +0.149 HD
ENDROOT
BRANCH   1   5
ATOM      5  C   UNL     1       0.428  -2.496  -1.006  0.00  0.00    +0.163 C 
BRANCH   5   9
ATOM      6  C   UNL     1       0.681   1.158   0.107  0.00  0.00    +0.109 C 
ATOM      7  C   UNL     1       0.545  -0.343   0.128  0.00  0.00    +0.211 C 
ATOM      8  O   UNL     1       0.424  -0.926   1.185  0.00  0.00    -0.276 OA
ATOM      9  N   UNL     1       0.560  -1.037  -1.027  0.00  0.00    -0.304 N 
ATOM     10  H   UNL     1       0.657  -0.571  -1.872  0.00  0.00    +0.149 HD
ENDBRANCH   5   9
BRANCH   5  11
ATOM     11  C   UNL     1       1.578  -3.100  -0.198  0.00  0.00    +0.065 C 
BRANCH  11  12
ATOM     12  C   UNL     1       2.884  -2.827  -0.900  0.00  0.00    -0.039 C 
ATOM     13  C   UNL     1       3.737  -1.806  -0.660  0.00  0.00    -0.001 A 
ATOM     14  C   UNL     1       3.707  -0.686   0.288  0.00  0.00    +0.010 A 
ATOM     15  C   UNL     1       4.731   0.198   0.292  0.00  0.00    +0.001 A 
ATOM     16  C   UNL     1       5.817   0.071  -0.584  0.00  0.00    +0.002 A 
ATOM     17  C   UNL     1       5.916  -0.930  -1.484  0.00  0.00    +0.026 A 
ATOM     18  C   UNL     1       4.896  -1.917  -1.575  0.00  0.00    +0.043 A 
ATOM     19  N   UNL     1       4.763  -2.966  -2.350  0.00  0.00    -0.380 N 
ATOM     20  C   UNL     1       3.507  -3.643  -2.010  0.00  0.00    +0.144 C 
ATOM     21  H   UNL     1       5.393  -3.250  -3.032  0.00  0.00    +0.160 HD
ENDBRANCH  11  12
ENDBRANCH   5  11
ENDBRANCH   1   5
BRANCH   3  22
ATOM     22  C   UNL     1      -2.692  -4.459   0.025  0.00  0.00    +0.093 C 
BRANCH  22  23
ATOM     23  C   UNL     1      -3.127  -5.835  -0.482  0.00  0.00    -0.019 C 
BRANCH  23  24
ATOM     24  C   UNL     1      -2.148  -6.878  -0.008  0.00  0.00    -0.041 A 
ATOM     25  C   UNL     1      -1.103  -7.267  -0.824  0.00  0.00    +0.003 A 
ATOM     26  C   UNL     1      -0.205  -8.224  -0.389  0.00  0.00    +0.000 A 
ATOM     27  C   UNL     1      -0.351  -8.792   0.863  0.00  0.00    +0.001 A 
ATOM     28  C   UNL     1      -1.396  -8.404   1.680  0.00  0.00    +0.020 A 
ATOM     29  C   UNL     1      -2.292  -7.442   1.247  0.00  0.00    +0.043 A 
ATOM     30 CL   UNL     1      -3.601  -6.949   2.276  0.00  0.00    -0.083 Cl
ENDBRANCH  23  24
BRANCH  23  31
ATOM     31  N   UNL     1      -3.161  -5.828  -1.950  0.00  0.00    +0.385 N 
ATOM     32  C   UNL     1      -3.680  -7.124  -2.458  0.00  0.00    -0.078 C 
ATOM     33  C   UNL     1      -4.179  -6.773  -3.882  0.00  0.00    -0.020 C 
ATOM     34  C   UNL     1      -4.778  -5.359  -3.700  0.00  0.00    -0.020 C 
ATOM     35  C   UNL     1      -4.107  -4.798  -2.433  0.00  0.00    -0.078 C 
ATOM     36  H   UNL     1      -2.239  -5.653  -2.319  0.00  0.00    -0.081 HD
ENDBRANCH  23  31
ENDBRANCH  22  23
ENDBRANCH   3  22
TORSDOF 8
