REMARK  Name = ZINC63768784
REMARK  12 active torsions:
REMARK  status: ('A' for Active; 'I' for Inactive)
REMARK    1  A    between atoms: C_1  and  C_2
REMARK    2  A    between atoms: C_2  and  C_3
REMARK    3  A    between atoms: C_3  and  N_4
REMARK    4  A    between atoms: N_7  and  C_8
REMARK    5  A    between atoms: C_8  and  C_9
REMARK    6  A    between atoms: C_8  and  C_10
REMARK    7  A    between atoms: C_8  and  C_11
REMARK    8  A    between atoms: N_13  and  C_14
REMARK    9  A    between atoms: C_14  and  C_15
REMARK   10  A    between atoms: C_15  and  C_16
REMARK   11  A    between atoms: C_15  and  N_18
REMARK   12  A    between atoms: C_16  and  C_17
REMARK                            x       y       z     vdW  Elec       q    Type
REMARK                         _______ _______ _______ _____ _____    ______ ____
ROOT
ATOM      1  C   UNL     1       1.872  -6.685   3.740  0.00  0.00    +0.236 C 
ATOM      2  O   UNL     1       2.858  -7.387   3.655  0.00  0.00    -0.273 OA
ATOM      3  N   UNL     1       0.719  -7.070   3.158  0.00  0.00    -0.315 N 
ATOM      4  H   UNL     1      -0.069  -6.509   3.225  0.00  0.00    +0.149 HD
ENDROOT
BRANCH   1   5
ATOM      5  C   UNL     1       1.936  -5.383   4.496  0.00  0.00    +0.106 C 
ATOM      6  C   UNL     1       3.379  -4.875   4.513  0.00  0.00    +0.041 C 
ATOM      7  C   UNL     1       1.455  -5.603   5.931  0.00  0.00    +0.041 C 
BRANCH   5  11
ATOM      8  N   UNL     1       0.188  -2.239   3.739  0.00  0.00    -0.299 N 
ATOM      9  C   UNL     1       0.978  -3.148   4.343  0.00  0.00    +0.300 C 
ATOM     10  O   UNL     1       1.600  -2.845   5.343  0.00  0.00    -0.253 OA
ATOM     11  N   UNL     1       1.078  -4.394   3.839  0.00  0.00    -0.286 N 
ATOM     12  H   UNL     1      -0.308  -2.481   2.941  0.00  0.00    +0.150 HD
ATOM     13  H   UNL     1       0.582  -4.636   3.041  0.00  0.00    +0.151 HD
BRANCH   8  14
ATOM     14  C   UNL     1       0.079  -0.884   4.286  0.00  0.00    +0.105 C 
BRANCH  14  16
ATOM     15  C   UNL     1      -0.987   1.356   3.991  0.00  0.00    +0.005 C 
ATOM     16  C   UNL     1      -0.873  -0.058   3.419  0.00  0.00    +0.015 C 
ENDBRANCH  14  16
ENDBRANCH   8  14
ENDBRANCH   5  11
ENDBRANCH   1   5
BRANCH   3  17
ATOM     17  C   UNL     1       0.656  -8.336   2.423  0.00  0.00    +0.089 C 
BRANCH  17  18
ATOM     18  C   UNL     1      -0.701  -8.456   1.728  0.00  0.00    -0.051 C 
BRANCH  18  19
ATOM     19  N   UNL     1      -0.734  -7.564   0.561  0.00  0.00    +0.385 N 
ATOM     20  C   UNL     1       0.432  -7.830  -0.295  0.00  0.00    -0.073 C 
ATOM     21  C   UNL     1       0.224  -7.125  -1.636  0.00  0.00    +0.017 C 
ATOM     22  C   UNL     1      -0.139  -5.681  -1.402  0.00  0.00    -0.048 A 
ATOM     23  C   UNL     1      -0.034  -4.789  -2.459  0.00  0.00    +0.004 A 
ATOM     24  C   UNL     1      -0.361  -3.460  -2.283  0.00  0.00    +0.000 A 
ATOM     25  C   UNL     1      -0.795  -3.015  -1.048  0.00  0.00    +0.000 A 
ATOM     26  C   UNL     1      -0.899  -3.902   0.004  0.00  0.00    +0.002 A 
ATOM     27  C   UNL     1      -0.570  -5.238  -0.170  0.00  0.00    -0.061 A 
ATOM     28  C   UNL     1      -0.690  -6.169   1.008  0.00  0.00    -0.042 C 
ATOM     29  H   UNL     1      -1.582  -7.724   0.037  0.00  0.00    -0.081 HD
ENDBRANCH  18  19
BRANCH  18  30
ATOM     30  C   UNL     1      -0.915  -9.900   1.272  0.00  0.00    -0.017 C 
ATOM     31  C   UNL     1      -2.330 -10.054   0.711  0.00  0.00    +0.002 C 
ENDBRANCH  18  30
ENDBRANCH  17  18
ENDBRANCH   3  17
TORSDOF 8
