REMARK  Name = ZINC03441867
REMARK  9 active torsions:
REMARK  status: ('A' for Active; 'I' for Inactive)
REMARK    1  A    between atoms: C_1  and  O_2
REMARK    2  A    between atoms: O_2  and  C_3
REMARK    3  A    between atoms: C_6  and  N_9
REMARK    4  A    between atoms: N_9  and  C_10
REMARK    5  A    between atoms: C_10  and  C_11
REMARK    6  A    between atoms: N_13  and  N_14
REMARK    7  A    between atoms: N_14  and  C_15
REMARK    8  A    between atoms: C_15  and  N_17
REMARK    9  A    between atoms: N_17  and  C_18
REMARK                            x       y       z     vdW  Elec       q    Type
REMARK                         _______ _______ _______ _____ _____    ______ ____
ROOT
ATOM      1  C   UNL     1       2.276   4.488   0.004  0.00  0.00    +0.246 C 
ATOM      2  O   UNL     1       3.334   3.896  -0.009  0.00  0.00    -0.273 OA
ATOM      3  N   UNL     1       1.118   3.798   0.012  0.00  0.00    -0.234 N 
ATOM      4  H   UNL     1       0.271   4.272   0.022  0.00  0.00    +0.173 HD
ENDROOT
BRANCH   3   5
ATOM      5  N   UNL     1       1.137   2.397   0.004  0.00  0.00    -0.246 N 
ATOM      6  H   UNL     1       1.983   1.924  -0.006  0.00  0.00    +0.172 HD
BRANCH   5   7
ATOM      7  C   UNL     1      -0.021   1.708   0.011  0.00  0.00    +0.147 C 
ATOM      8  S   UNL     1       0.002  -0.004   0.002  0.00  0.00    -0.017 S 
BRANCH   7   9
ATOM      9  N   UNL     1      -1.197   2.366   0.021  0.00  0.00    -0.322 N 
ATOM     10  H   UNL     1      -1.210   3.336   0.026  0.00  0.00    +0.148 HD
BRANCH   9  11
ATOM     11  C   UNL     1      -2.456   1.616   0.022  0.00  0.00    +0.075 C 
ATOM     12  C   UNL     1      -2.923   1.343  -1.426  0.00  0.00    +0.026 C 
ATOM     13  C   UNL     1      -4.303   2.061  -1.536  0.00  0.00    -0.009 C 
ATOM     14  C   UNL     1      -5.259   1.208  -0.647  0.00  0.00    +0.004 C 
ATOM     15  C   UNL     1      -4.792   1.481   0.801  0.00  0.00    +0.005 C 
ATOM     16  C   UNL     1      -3.598   2.473   0.650  0.00  0.00    +0.010 C 
ATOM     17  C   UNL     1      -4.063   3.298  -0.601  0.00  0.00    +0.009 C 
ENDBRANCH   9  11
ENDBRANCH   7   9
ENDBRANCH   5   7
ENDBRANCH   3   5
BRANCH   1  18
ATOM     18  C   UNL     1       2.255   5.995   0.013  0.00  0.00    +0.199 C 
BRANCH  18  19
ATOM     19  N   UNL     1       3.630   6.502   0.002  0.00  0.00    -0.335 N 
ATOM     20  H   UNL     1       4.375   5.882  -0.008  0.00  0.00    +0.147 HD
BRANCH  19  24
ATOM     21  C   UNL     1       4.336  10.610   0.018  0.00  0.00    +0.120 A 
ATOM     22  C   UNL     1       5.402   9.723   0.003  0.00  0.00    +0.047 A 
ATOM     23  C   UNL     1       5.169   8.362  -0.002  0.00  0.00    +0.026 A 
ATOM     24  C   UNL     1       3.867   7.881   0.007  0.00  0.00    +0.028 A 
ATOM     25  C   UNL     1       2.799   8.769   0.017  0.00  0.00    +0.026 A 
ATOM     26  C   UNL     1       3.034  10.130   0.028  0.00  0.00    +0.047 A 
BRANCH  21  28
ATOM     27  C   UNL     1       3.421  12.805   0.039  0.00  0.00    +0.277 C 
ATOM     28  O   UNL     1       4.566  11.950   0.023  0.00  0.00    -0.495 OA
ENDBRANCH  21  28
ENDBRANCH  19  24
ENDBRANCH  18  19
ENDBRANCH   1  18
TORSDOF 8
