REMARK  Name = ZINC59644991
REMARK  8 active torsions:
REMARK  status: ('A' for Active; 'I' for Inactive)
REMARK    1  A    between atoms: C_3  and  N_28
REMARK    2  A    between atoms: C_6  and  C_7
REMARK    3  A    between atoms: C_7  and  O_8
REMARK    4  A    between atoms: O_8  and  C_9
REMARK    5  A    between atoms: C_12  and  C_16
REMARK    6  A    between atoms: N_17  and  N_18
REMARK    7  A    between atoms: C_19  and  C_21
REMARK    8  A    between atoms: C_21  and  C_22
REMARK                            x       y       z     vdW  Elec       q    Type
REMARK                         _______ _______ _______ _____ _____    ______ ____
ROOT
ATOM      1  C   UNL     1      -2.873  -1.700  -1.505  0.00  0.00    +0.135 A 
ATOM      2  C   UNL     1      -3.591  -2.133  -0.398  0.00  0.00    +0.047 A 
ATOM      3  C   UNL     1      -4.767  -2.832  -0.566  0.00  0.00    +0.013 A 
ATOM      4  C   UNL     1      -5.238  -3.104  -1.853  0.00  0.00    -0.004 A 
ATOM      5  C   UNL     1      -4.513  -2.667  -2.965  0.00  0.00    +0.028 A 
ATOM      6  C   UNL     1      -3.340  -1.964  -2.787  0.00  0.00    +0.060 A 
ATOM      7 BR   UNL     1      -2.362  -1.364  -4.290  0.00  0.00    -0.046 Br
ENDROOT
BRANCH   4   8
ATOM      8  C   UNL     1      -6.495  -3.852  -2.038  0.00  0.00    +0.138 C 
ATOM      9  N   UNL     1      -6.930  -4.104  -3.234  0.00  0.00    -0.188 NA
BRANCH   9  10
ATOM     10  N   UNL     1      -8.125  -4.814  -3.409  0.00  0.00    -0.207 N 
ATOM     11  C   UNL     1      -8.577  -5.076  -4.652  0.00  0.00    +0.238 C 
ATOM     12  O   UNL     1      -7.950  -4.697  -5.618  0.00  0.00    -0.274 OA
ATOM     13  H   UNL     1      -8.627  -5.117  -2.637  0.00  0.00    +0.177 HD
BRANCH  11  14
ATOM     14  C   UNL     1      -9.863  -5.840  -4.840  0.00  0.00    +0.153 C 
BRANCH  14  15
ATOM     15  C   UNL     1     -10.142  -5.998  -6.313  0.00  0.00    +0.059 A 
ATOM     16  C   UNL     1     -10.350  -7.216  -6.867  0.00  0.00    +0.072 A 
ATOM     17  S   UNL     1     -10.618  -6.766  -8.573  0.00  0.00    -0.061 S 
ATOM     18  C   UNL     1     -10.440  -5.101  -8.405  0.00  0.00    +0.156 A 
ATOM     19  N   UNL     1     -10.200  -4.953  -7.120  0.00  0.00    -0.230 NA
ATOM     20  N   UNL     1     -10.529  -4.122  -9.383  0.00  0.00    -0.338 N 
ATOM     21  H   UNL     1     -10.717  -4.370 -10.302  0.00  0.00    +0.144 HD
ATOM     22  H   UNL     1     -10.403  -3.189  -9.148  0.00  0.00    +0.144 HD
ENDBRANCH  14  15
ENDBRANCH  11  14
ENDBRANCH   9  10
ENDBRANCH   4   8
BRANCH   1  23
ATOM     23  O   UNL     1      -1.715  -1.012  -1.334  0.00  0.00    -0.486 OA
BRANCH  23  24
ATOM     24  C   UNL     1      -1.293  -0.775   0.010  0.00  0.00    +0.264 C 
BRANCH  24  30
ATOM     25  C   UNL     1      -0.017   1.378   0.010  0.00  0.00    +0.009 A 
ATOM     26  C   UNL     1       1.171   2.086   0.002  0.00  0.00    +0.033 A 
ATOM     27  C   UNL     1       2.377   1.411  -0.013  0.00  0.00    +0.126 A 
ATOM     28  C   UNL     1       2.396   0.029  -0.020  0.00  0.00    +0.033 A 
ATOM     29  C   UNL     1       1.208  -0.679  -0.012  0.00  0.00    +0.009 A 
ATOM     30  C   UNL     1       0.002  -0.004   0.002  0.00  0.00    -0.010 A 
BRANCH  27  31
ATOM     31  N   UNL     1       3.649   2.168  -0.022  0.00  0.00    +0.056 N 
ATOM     32  O   UNL     1       3.633   3.377  -0.016  0.00  0.00    -0.126 OA
ATOM     33  O   UNL     1       4.704   1.578  -0.035  0.00  0.00    -0.126 OA
ENDBRANCH  27  31
ENDBRANCH  24  30
ENDBRANCH  23  24
ENDBRANCH   1  23
TORSDOF 8
