REMARK  Name = ZINC63633413
REMARK  11 active torsions:
REMARK  status: ('A' for Active; 'I' for Inactive)
REMARK    1  A    between atoms: C_1  and  C_2
REMARK    2  A    between atoms: C_2  and  O_3
REMARK    3  A    between atoms: O_3  and  C_4
REMARK    4  A    between atoms: C_9  and  S_14
REMARK    5  A    between atoms: S_14  and  C_15
REMARK    6  A    between atoms: C_15  and  C_16
REMARK    7  A    between atoms: N_18  and  C_19
REMARK    8  A    between atoms: C_19  and  C_20
REMARK    9  A    between atoms: C_20  and  N_21
REMARK   10  A    between atoms: C_22  and  C_24
REMARK   11  A    between atoms: C_27  and  C_30
REMARK                            x       y       z     vdW  Elec       q    Type
REMARK                         _______ _______ _______ _____ _____    ______ ____
ROOT
ATOM      1  C   UNL     1       5.684  -6.303  -1.447  0.00  0.00    +0.223 C 
ATOM      2  O   UNL     1       6.063  -7.270  -2.072  0.00  0.00    -0.275 OA
ATOM      3  N   UNL     1       6.484  -5.747  -0.516  0.00  0.00    -0.313 N 
ATOM      4  H   UNL     1       6.181  -4.973  -0.015  0.00  0.00    +0.149 HD
ENDROOT
BRANCH   1   5
ATOM      5  C   UNL     1       4.319  -5.723  -1.711  0.00  0.00    +0.168 C 
BRANCH   5   6
ATOM      6  S   UNL     1       3.493  -6.685  -3.009  0.00  0.00    -0.106 S 
BRANCH   6  12
ATOM      7  C   UNL     1       0.776  -1.807  -1.336  0.00  0.00    +0.123 A 
ATOM      8  C   UNL     1       0.208  -2.690  -0.325  0.00  0.00    +0.048 A 
ATOM      9  C   UNL     1       0.281  -4.030  -0.429  0.00  0.00    +0.031 A 
ATOM     10  C   UNL     1       0.949  -4.637  -1.589  0.00  0.00    +0.061 A 
ATOM     11  N   UNL     1       1.157  -5.877  -1.931  0.00  0.00    -0.355 N 
ATOM     12  C   UNL     1       1.885  -5.869  -3.205  0.00  0.00    +0.236 C 
ATOM     13  N   UNL     1       2.076  -4.458  -3.565  0.00  0.00    -0.355 N 
ATOM     14  C   UNL     1       1.530  -3.738  -2.623  0.00  0.00    +0.064 A 
ATOM     15  C   UNL     1       1.403  -2.291  -2.436  0.00  0.00    +0.073 A 
ATOM     16  H   UNL     1       0.882  -6.662  -1.433  0.00  0.00    +0.162 HD
ATOM     17  H   UNL     1       2.524  -4.123  -4.357  0.00  0.00    +0.162 HD
BRANCH   7  18
ATOM     18  O   UNL     1       0.671  -0.465  -1.174  0.00  0.00    -0.492 OA
BRANCH  18  20
ATOM     19  C   UNL     1      -0.019   1.526   0.010  0.00  0.00    +0.048 C 
ATOM     20  C   UNL     1       0.002  -0.004   0.002  0.00  0.00    +0.225 C 
ENDBRANCH  18  20
ENDBRANCH   7  18
ENDBRANCH   6  12
ENDBRANCH   5   6
ENDBRANCH   1   5
BRANCH   3  21
ATOM     21  C   UNL     1       7.811  -6.311  -0.259  0.00  0.00    +0.123 C 
BRANCH  21  22
ATOM     22  C   UNL     1       8.507  -5.499   0.836  0.00  0.00    +0.123 C 
BRANCH  22  23
ATOM     23  N   UNL     1       9.835  -6.064   1.093  0.00  0.00    -0.310 N 
ATOM     24  C   UNL     1      10.634  -5.507   2.024  0.00  0.00    +0.244 C 
ATOM     25  O   UNL     1      10.255  -4.538   2.651  0.00  0.00    -0.270 OA
ATOM     26  H   UNL     1      10.138  -6.837   0.593  0.00  0.00    +0.149 HD
BRANCH  24  27
ATOM     27  C   UNL     1      11.974  -6.077   2.283  0.00  0.00    +0.037 A 
ATOM     28  C   UNL     1      12.415  -7.187   1.561  0.00  0.00    +0.013 A 
ATOM     29  C   UNL     1      13.667  -7.713   1.808  0.00  0.00    +0.004 A 
ATOM     30  C   UNL     1      14.483  -7.143   2.769  0.00  0.00    -0.050 A 
ATOM     31  C   UNL     1      14.051  -6.043   3.488  0.00  0.00    +0.004 A 
ATOM     32  C   UNL     1      12.805  -5.503   3.247  0.00  0.00    +0.013 A 
ATOM     33  C   UNL     1      15.848  -7.723   3.033  0.00  0.00    +0.044 C 
ENDBRANCH  24  27
ENDBRANCH  22  23
ENDBRANCH  21  22
ENDBRANCH   3  21
TORSDOF 9
