REMARK  Name = ZINC35968942
REMARK  7 active torsions:
REMARK  status: ('A' for Active; 'I' for Inactive)
REMARK    1  A    between atoms: C_2  and  C_3
REMARK    2  A    between atoms: C_3  and  N_4
REMARK    3  A    between atoms: C_7  and  C_12
REMARK    4  A    between atoms: N_21  and  C_23
REMARK    5  A    between atoms: C_23  and  C_25
REMARK    6  A    between atoms: C_23  and  C_32
REMARK    7  A    between atoms: C_25  and  C_26
REMARK                            x       y       z     vdW  Elec       q    Type
REMARK                         _______ _______ _______ _____ _____    ______ ____
ROOT
ATOM      1  N   UNL     1      -1.687  -0.844  -0.514  0.00  0.00    -0.253 N 
ATOM      2  C   UNL     1      -2.094  -0.651  -1.803  0.00  0.00    +0.043 C 
ATOM      3  C   UNL     1      -2.056  -1.653  -2.706  0.00  0.00    +0.058 C 
ATOM      4  C   UNL     1      -1.545  -3.001  -2.241  0.00  0.00    +0.142 C 
ATOM      5  N   UNL     1      -1.129  -3.107  -0.832  0.00  0.00    -0.288 N 
ATOM      6  C   UNL     1      -1.222  -2.012  -0.051  0.00  0.00    +0.307 C 
ATOM      7  O   UNL     1      -0.877  -2.088   1.112  0.00  0.00    -0.252 OA
ATOM      8  C   UNL     1      -2.527  -1.203  -3.957  0.00  0.00    +0.247 C 
ATOM      9  O   UNL     1      -2.602  -1.899  -4.953  0.00  0.00    -0.270 OA
ATOM     10  N   UNL     1      -2.882   0.093  -3.905  0.00  0.00    -0.280 N 
ATOM     11  C   UNL     1      -2.638   0.557  -2.531  0.00  0.00    +0.160 C 
ATOM     12  H   UNL     1      -0.793  -3.944  -0.475  0.00  0.00    +0.151 HD
ENDROOT
BRANCH   4  13
ATOM     13  C   UNL     1      -0.365  -3.373  -3.102  0.00  0.00    -0.022 A 
ATOM     14  C   UNL     1       0.880  -2.833  -2.838  0.00  0.00    +0.007 A 
ATOM     15  C   UNL     1       1.962  -3.173  -3.627  0.00  0.00    +0.020 A 
ATOM     16  C   UNL     1       1.800  -4.055  -4.681  0.00  0.00    +0.041 A 
ATOM     17  C   UNL     1       0.553  -4.595  -4.944  0.00  0.00    +0.020 A 
ATOM     18  C   UNL     1      -0.527  -4.258  -4.151  0.00  0.00    +0.007 A 
ATOM     19 CL   UNL     1       3.158  -4.483  -5.673  0.00  0.00    -0.084 Cl
ENDBRANCH   4  13
BRANCH   1  20
ATOM     20  C   UNL     1      -1.756   0.289   0.411  0.00  0.00    +0.141 C 
BRANCH  20  22
ATOM     21  C   UNL     1      -0.470   2.342   0.104  0.00  0.00    +0.005 C 
ATOM     22  C   UNL     1      -0.460   1.058   0.362  0.00  0.00    -0.015 C 
ENDBRANCH  20  22
ENDBRANCH   1  20
BRANCH  10  23
ATOM     23  C   UNL     1      -3.413   0.893  -5.011  0.00  0.00    +0.167 C 
BRANCH  23  24
ATOM     24  C   UNL     1      -4.696   0.277  -5.507  0.00  0.00    +0.237 C 
ATOM     25  O   UNL     1      -4.899  -0.909  -5.353  0.00  0.00    -0.274 OA
ATOM     26  N   UNL     1      -5.619   1.044  -6.121  0.00  0.00    -0.296 N 
ATOM     27  C   UNL     1      -5.348   2.458  -6.424  0.00  0.00    +0.136 C 
ATOM     28  C   UNL     1      -5.679   2.709  -7.900  0.00  0.00    +0.179 C 
ATOM     29  O   UNL     1      -7.003   2.244  -8.171  0.00  0.00    -0.377 OA
ATOM     30  C   UNL     1      -7.180   0.838  -7.980  0.00  0.00    +0.179 C 
ATOM     31  C   UNL     1      -6.924   0.490  -6.513  0.00  0.00    +0.136 C 
ENDBRANCH  23  24
BRANCH  23  32
ATOM     32  C   UNL     1      -2.392   0.929  -6.150  0.00  0.00    +0.067 C 
BRANCH  32  33
ATOM     33  C   UNL     1      -1.160   1.669  -5.697  0.00  0.00    -0.045 A 
ATOM     34  C   UNL     1      -1.070   3.037  -5.875  0.00  0.00    +0.004 A 
ATOM     35  C   UNL     1       0.060   3.716  -5.460  0.00  0.00    +0.000 A 
ATOM     36  C   UNL     1       1.101   3.026  -4.865  0.00  0.00    +0.000 A 
ATOM     37  C   UNL     1       1.010   1.659  -4.686  0.00  0.00    +0.000 A 
ATOM     38  C   UNL     1      -0.122   0.981  -5.098  0.00  0.00    +0.004 A 
ENDBRANCH  32  33
ENDBRANCH  23  32
ENDBRANCH  10  23
TORSDOF 7
