REMARK  Name = ZINC36027429
REMARK  8 active torsions:
REMARK  status: ('A' for Active; 'I' for Inactive)
REMARK    1  A    between atoms: C_1  and  C_2
REMARK    2  A    between atoms: C_2  and  C_3
REMARK    3  A    between atoms: C_3  and  C_5
REMARK    4  A    between atoms: C_3  and  C_6
REMARK    5  A    between atoms: N_10  and  C_29
REMARK    6  A    between atoms: N_15  and  S_18
REMARK    7  A    between atoms: S_18  and  C_21
REMARK    8  A    between atoms: C_29  and  C_30
REMARK                            x       y       z     vdW  Elec       q    Type
REMARK                         _______ _______ _______ _____ _____    ______ ____
ROOT
ATOM      1  C   UNL     1      -2.356  -2.389  -0.088  0.00  0.00    +0.022 C 
ATOM      2  C   UNL     1      -1.387  -2.674  -1.215  0.00  0.00    +0.201 C 
ATOM      3  O   UNL     1      -0.284  -2.185  -1.341  0.00  0.00    -0.277 OA
ATOM      4  N   UNL     1      -1.957  -3.562  -2.056  0.00  0.00    -0.309 N 
ATOM      5  C   UNL     1      -3.289  -3.919  -1.561  0.00  0.00    +0.006 C 
ATOM      6  N   UNL     1      -3.667  -2.876  -0.583  0.00  0.00    +0.401 N 
ATOM      7  C   UNL     1      -3.248  -5.281  -0.870  0.00  0.00    +0.023 C 
ATOM      8  C   UNL     1      -2.816  -6.350  -1.880  0.00  0.00    +0.109 C 
ATOM      9  N   UNL     1      -3.705  -6.282  -3.048  0.00  0.00    -0.177 NA
ATOM     10  C   UNL     1      -3.870  -4.995  -3.737  0.00  0.00    +0.109 C 
ATOM     11  C   UNL     1      -4.293  -3.938  -2.712  0.00  0.00    +0.023 C 
ATOM     12  H   UNL     1      -4.208  -3.271   0.172  0.00  0.00    -0.082 HD
ATOM     13  H   UNL     1      -4.176  -2.131  -1.035  0.00  0.00    -0.082 HD
ENDROOT
BRANCH   9  14
ATOM     14  S   UNL     1      -4.505  -7.632  -3.578  0.00  0.00    +0.061 S 
ATOM     15  O   UNL     1      -4.796  -7.418  -4.952  0.00  0.00    -0.153 OA
ATOM     16  O   UNL     1      -3.757  -8.751  -3.123  0.00  0.00    -0.153 OA
BRANCH  14  17
ATOM     17  C   UNL     1      -6.052  -7.684  -2.737  0.00  0.00    +0.107 A 
ATOM     18  C   UNL     1      -6.159  -8.341  -1.526  0.00  0.00    +0.030 A 
ATOM     19  C   UNL     1      -7.372  -8.383  -0.865  0.00  0.00    +0.023 A 
ATOM     20  C   UNL     1      -8.481  -7.767  -1.417  0.00  0.00    +0.059 A 
ATOM     21  C   UNL     1      -8.375  -7.109  -2.630  0.00  0.00    +0.061 A 
ATOM     22  C   UNL     1      -7.158  -7.063  -3.287  0.00  0.00    +0.050 A 
ATOM     23 CL   UNL     1      -9.766  -6.336  -3.324  0.00  0.00    -0.082 Cl
ATOM     24 CL   UNL     1     -10.006  -7.820  -0.588  0.00  0.00    -0.082 Cl
ENDBRANCH  14  17
ENDBRANCH   9  14
BRANCH   1  25
ATOM     25  C   UNL     1      -2.418  -0.887   0.195  0.00  0.00    -0.020 C 
ATOM     26  C   UNL     1      -3.457  -0.616   1.285  0.00  0.00    +0.006 C 
BRANCH  25  28
ATOM     27  C   UNL     1      -1.073   1.120   0.830  0.00  0.00    +0.004 C 
ATOM     28  C   UNL     1      -1.046  -0.401   0.666  0.00  0.00    -0.001 C 
ENDBRANCH  25  28
ENDBRANCH   1  25
BRANCH   4  29
ATOM     29  C   UNL     1      -1.339  -4.088  -3.276  0.00  0.00    +0.141 C 
BRANCH  29  30
ATOM     30  C   UNL     1      -1.483  -3.080  -4.387  0.00  0.00    -0.030 A 
ATOM     31  C   UNL     1      -2.732  -2.800  -4.910  0.00  0.00    +0.005 A 
ATOM     32  C   UNL     1      -2.863  -1.875  -5.928  0.00  0.00    +0.000 A 
ATOM     33  C   UNL     1      -1.746  -1.230  -6.425  0.00  0.00    +0.000 A 
ATOM     34  C   UNL     1      -0.497  -1.508  -5.901  0.00  0.00    +0.000 A 
ATOM     35  C   UNL     1      -0.366  -2.430  -4.880  0.00  0.00    +0.005 A 
ENDBRANCH  29  30
ENDBRANCH   4  29
TORSDOF 6
