REMARK  Name = ZINC19794033
REMARK  9 active torsions:
REMARK  status: ('A' for Active; 'I' for Inactive)
REMARK    1  A    between atoms: C_1  and  C_2
REMARK    2  A    between atoms: C_2  and  N_3
REMARK    3  A    between atoms: N_6  and  C_9
REMARK    4  A    between atoms: C_9  and  C_10
REMARK    5  A    between atoms: C_11  and  O_31
REMARK    6  A    between atoms: C_16  and  C_20
REMARK    7  A    between atoms: C_17  and  C_19
REMARK    8  A    between atoms: N_22  and  C_23
REMARK    9  A    between atoms: C_28  and  C_29
REMARK                            x       y       z     vdW  Elec       q    Type
REMARK                         _______ _______ _______ _____ _____    ______ ____
ROOT
ATOM      1  C   UNL     1       2.971  -3.761  -2.332  0.00  0.00    +0.019 A 
ATOM      2  C   UNL     1       3.648  -4.451  -1.342  0.00  0.00    +0.122 A 
ATOM      3  C   UNL     1       3.816  -5.828  -1.442  0.00  0.00    +0.049 A 
ATOM      4  C   UNL     1       3.313  -6.519  -2.523  0.00  0.00    +0.050 A 
ATOM      5  C   UNL     1       2.631  -5.842  -3.526  0.00  0.00    +0.136 A 
ATOM      6  C   UNL     1       2.456  -4.454  -3.422  0.00  0.00    +0.040 A 
ATOM      7  C   UNL     1       1.698  -4.061  -4.626  0.00  0.00    +0.086 A 
ATOM      8  C   UNL     1       1.486  -5.212  -5.320  0.00  0.00    +0.115 A 
ATOM      9  O   UNL     1       2.043  -6.242  -4.673  0.00  0.00    -0.459 OA
ATOM     10  C   UNL     1       0.746  -5.310  -6.630  0.00  0.00    +0.087 C 
ENDROOT
BRANCH   7  11
ATOM     11  C   UNL     1       1.261  -2.707  -4.998  0.00  0.00    +0.252 C 
ATOM     12  O   UNL     1       1.947  -2.029  -5.739  0.00  0.00    -0.270 OA
ATOM     13  N   UNL     1       0.100  -2.218  -4.518  0.00  0.00    -0.281 N 
ATOM     14  H   UNL     1      -0.486  -2.786  -3.994  0.00  0.00    +0.155 HD
BRANCH  13  15
ATOM     15  C   UNL     1      -0.259  -0.891  -4.776  0.00  0.00    +0.038 A 
ATOM     16  C   UNL     1       0.108  -0.291  -5.973  0.00  0.00    +0.023 A 
ATOM     17  C   UNL     1      -0.248   1.020  -6.226  0.00  0.00    +0.003 A 
ATOM     18  C   UNL     1      -0.969   1.735  -5.287  0.00  0.00    +0.020 A 
ATOM     19  C   UNL     1      -1.336   1.140  -4.092  0.00  0.00    +0.046 A 
ATOM     20  C   UNL     1      -0.988  -0.173  -3.837  0.00  0.00    -0.011 A 
ATOM     21  C   UNL     1      -1.393  -0.822  -2.538  0.00  0.00    +0.047 C 
ATOM     22 CL   UNL     1      -2.240   2.042  -2.916  0.00  0.00    -0.083 Cl
ENDBRANCH  13  15
ENDBRANCH   7  11
BRANCH   2  23
ATOM     23  O   UNL     1       4.150  -3.782  -0.270  0.00  0.00    -0.506 OA
ATOM     24  H   UNL     1       3.535  -3.713   0.474  0.00  0.00    +0.292 HD
ENDBRANCH   2  23
BRANCH   1  25
ATOM     25  C   UNL     1       2.788  -2.269  -2.226  0.00  0.00    +0.123 C 
BRANCH  25  29
ATOM     26  N   UNL     1       5.849   0.378  -3.447  0.00  0.00    +0.381 N 
ATOM     27  C   UNL     1       4.548   0.469  -4.122  0.00  0.00    -0.063 C 
ATOM     28  C   UNL     1       3.474  -0.184  -3.249  0.00  0.00    +0.066 C 
ATOM     29  N   UNL     1       3.826  -1.591  -3.014  0.00  0.00    -0.302 NA
ATOM     30  C   UNL     1       5.138  -1.699  -2.362  0.00  0.00    +0.066 C 
ATOM     31  C   UNL     1       6.199  -1.034  -3.242  0.00  0.00    -0.063 C 
ATOM     32  H   UNL     1       5.798   0.845  -2.554  0.00  0.00    -0.082 HD
BRANCH  26  34
ATOM     33  C   UNL     1       6.580   2.518  -4.388  0.00  0.00    -0.017 C 
ATOM     34  C   UNL     1       6.877   1.021  -4.277  0.00  0.00    -0.082 C 
ENDBRANCH  26  34
ENDBRANCH  25  29
ENDBRANCH   1  25
TORSDOF 6
