REMARK  Name = ZINC04305370
REMARK  8 active torsions:
REMARK  status: ('A' for Active; 'I' for Inactive)
REMARK    1  A    between atoms: C_1  and  C_2
REMARK    2  A    between atoms: C_6  and  C_26
REMARK    3  A    between atoms: C_7  and  N_8
REMARK    4  A    between atoms: N_8  and  C_9
REMARK    5  A    between atoms: C_9  and  N_11
REMARK    6  A    between atoms: N_11  and  N_12
REMARK    7  A    between atoms: C_13  and  C_15
REMARK    8  A    between atoms: C_20  and  C_21
REMARK                            x       y       z     vdW  Elec       q    Type
REMARK                         _______ _______ _______ _____ _____    ______ ____
ROOT
ATOM      1  N   UNL     1       5.131   4.119  -0.452  0.00  0.00    -0.231 N 
ATOM      2  C   UNL     1       4.093   3.358  -0.850  0.00  0.00    +0.261 C 
ATOM      3  O   UNL     1       4.295   2.307  -1.427  0.00  0.00    -0.269 OA
ATOM      4  H   UNL     1       4.970   4.957   0.008  0.00  0.00    +0.173 HD
ENDROOT
BRANCH   2   5
ATOM      5  C   UNL     1       2.707   3.800  -0.585  0.00  0.00    +0.048 A 
ATOM      6  C   UNL     1       2.470   4.936   0.186  0.00  0.00    +0.014 A 
ATOM      7  C   UNL     1       1.174   5.343   0.435  0.00  0.00    +0.001 A 
ATOM      8  C   UNL     1       0.105   4.631  -0.081  0.00  0.00    +0.001 A 
ATOM      9  C   UNL     1       0.322   3.505  -0.851  0.00  0.00    +0.012 A 
ATOM     10  C   UNL     1       1.621   3.080  -1.113  0.00  0.00    +0.025 A 
BRANCH  10  11
ATOM     11  C   UNL     1       1.858   1.874  -1.938  0.00  0.00    +0.100 C 
ATOM     12  C   UNL     1       1.513  -0.502  -2.289  0.00  0.00    +0.115 C 
ATOM     13  C   UNL     1       1.922  -0.236  -3.739  0.00  0.00    +0.040 C 
ATOM     14  C   UNL     1       3.093   0.759  -3.738  0.00  0.00    +0.104 C 
ATOM     15  N   UNL     1       2.626   1.987  -3.077  0.00  0.00    -0.330 N 
ATOM     16  H   UNL     1       2.857   2.859  -3.433  0.00  0.00    +0.147 HD
ATOM     17  N   UNL     1       1.285   0.754  -1.485  0.00  0.00    -0.373 N 
ATOM     18  H   UNL     1       0.717   0.749  -0.629  0.00  0.00    +0.161 HD
ENDBRANCH  10  11
ENDBRANCH   2   5
BRANCH   1  19
ATOM     19  N   UNL     1       6.444   3.699  -0.704  0.00  0.00    -0.245 N 
ATOM     20  H   UNL     1       6.605   2.861  -1.164  0.00  0.00    +0.172 HD
BRANCH  19  21
ATOM     21  C   UNL     1       7.483   4.460  -0.306  0.00  0.00    +0.151 C 
ATOM     22  S   UNL     1       9.087   3.948  -0.613  0.00  0.00    -0.017 S 
BRANCH  21  23
ATOM     23  N   UNL     1       7.258   5.625   0.334  0.00  0.00    -0.295 N 
ATOM     24  H   UNL     1       6.354   5.878   0.579  0.00  0.00    +0.154 HD
BRANCH  23  31
ATOM     25  C   UNL     1       9.261   4.659   2.110  0.00  0.00    +0.045 C 
ATOM     26  C   UNL     1       9.329   6.039   1.507  0.00  0.00    -0.029 A 
ATOM     27  C   UNL     1      10.387   6.874   1.808  0.00  0.00    +0.005 A 
ATOM     28  C   UNL     1      10.447   8.142   1.259  0.00  0.00    +0.001 A 
ATOM     29  C   UNL     1       9.450   8.576   0.404  0.00  0.00    +0.005 A 
ATOM     30  C   UNL     1       8.392   7.744   0.095  0.00  0.00    -0.029 A 
ATOM     31  C   UNL     1       8.329   6.470   0.644  0.00  0.00    +0.038 A 
ATOM     32  C   UNL     1       7.307   8.218  -0.837  0.00  0.00    +0.045 C 
ENDBRANCH  23  31
ENDBRANCH  21  23
ENDBRANCH  19  21
ENDBRANCH   1  19
TORSDOF 6
