REMARK  Name = ZINC37581714
REMARK  8 active torsions:
REMARK  status: ('A' for Active; 'I' for Inactive)
REMARK    1  A    between atoms: C_1  and  C_2
REMARK    2  A    between atoms: C_5  and  S_12
REMARK    3  A    between atoms: C_6  and  C_8
REMARK    4  A    between atoms: C_9  and  C_10
REMARK    5  A    between atoms: C_10  and  N_11
REMARK    6  A    between atoms: S_12  and  N_15
REMARK    7  A    between atoms: N_15  and  C_16
REMARK    8  A    between atoms: C_16  and  C_17
REMARK                            x       y       z     vdW  Elec       q    Type
REMARK                         _______ _______ _______ _____ _____    ______ ____
ROOT
ATOM      1  C   UNL     1      -0.074   1.264  -1.196  0.00  0.00    +0.044 C 
ATOM      2  C   UNL     1      -0.037  -0.217  -0.919  0.00  0.00    -0.049 A 
ATOM      3  C   UNL     1      -0.096  -1.117  -1.968  0.00  0.00    +0.005 A 
ATOM      4  C   UNL     1      -0.062  -2.478  -1.722  0.00  0.00    +0.030 A 
ATOM      5  C   UNL     1       0.030  -2.946  -0.428  0.00  0.00    +0.121 A 
ATOM      6  C   UNL     1       0.090  -2.044   0.635  0.00  0.00    +0.051 A 
ATOM      7  C   UNL     1       0.061  -0.672   0.380  0.00  0.00    +0.022 A 
ENDROOT
BRANCH   5   8
ATOM      8  S   UNL     1       0.072  -4.680  -0.117  0.00  0.00    +0.060 S 
ATOM      9  O   UNL     1      -0.047  -5.322  -1.379  0.00  0.00    -0.153 OA
ATOM     10  O   UNL     1       1.171  -4.910   0.754  0.00  0.00    -0.153 OA
BRANCH   8  11
ATOM     11  N   UNL     1      -1.296  -5.057   0.737  0.00  0.00    -0.185 NA
ATOM     12  H   UNL     1      -1.224  -5.403   1.640  0.00  0.00    +0.148 HD
BRANCH  11  13
ATOM     13  C   UNL     1      -2.615  -4.869   0.128  0.00  0.00    +0.148 C 
BRANCH  13  14
ATOM     14  C   UNL     1      -3.646  -5.633   0.917  0.00  0.00    +0.005 A 
ATOM     15  C   UNL     1      -4.395  -5.220   1.969  0.00  0.00    +0.012 A 
ATOM     16  C   UNL     1      -5.290  -6.104   2.543  0.00  0.00    +0.008 A 
ATOM     17  C   UNL     1      -5.392  -7.357   2.037  0.00  0.00    +0.045 A 
ATOM     18  S   UNL     1      -4.205  -7.315   0.704  0.00  0.00    -0.100 S 
ENDBRANCH  13  14
ENDBRANCH  11  13
ENDBRANCH   8  11
ENDBRANCH   5   8
BRANCH   6  19
ATOM     19  C   UNL     1       0.186  -2.523   1.981  0.00  0.00    -0.066 C 
ATOM     20  C   UNL     1       0.264  -2.916   3.084  0.00  0.00    -0.117 C 
BRANCH  20  21
ATOM     21  C   UNL     1       0.362  -3.409   4.468  0.00  0.00    +0.005 C 
BRANCH  21  22
ATOM     22  N   UNL     1       0.410  -2.268   5.392  0.00  0.00    +0.385 N 
ATOM     23  H   UNL     1       1.215  -1.697   5.180  0.00  0.00    -0.089 HD
ATOM     24  H   UNL     1      -0.429  -1.717   5.290  0.00  0.00    -0.089 HD
ATOM     25  H   UNL     1       0.477  -2.606   6.340  0.00  0.00    -0.089 HD
ENDBRANCH  21  22
ENDBRANCH  20  21
ENDBRANCH   6  19
TORSDOF 7
