REMARK  Name = ZINC38547518
REMARK  11 active torsions:
REMARK  status: ('A' for Active; 'I' for Inactive)
REMARK    1  A    between atoms: C_1  and  C_2
REMARK    2  A    between atoms: C_3  and  C_35
REMARK    3  A    between atoms: C_5  and  N_26
REMARK    4  A    between atoms: C_6  and  C_7
REMARK    5  A    between atoms: C_7  and  C_9
REMARK    6  A    between atoms: C_7  and  N_19
REMARK    7  A    between atoms: C_12  and  O_17
REMARK    8  A    between atoms: C_14  and  O_15
REMARK    9  A    between atoms: O_15  and  C_16
REMARK   10  A    between atoms: O_17  and  C_18
REMARK   11  A    between atoms: C_27  and  C_29
REMARK                            x       y       z     vdW  Elec       q    Type
REMARK                         _______ _______ _______ _____ _____    ______ ____
ROOT
ATOM      1  C   UNL     1       0.244  -0.029   2.462  0.00  0.00    +0.138 C 
ENDROOT
BRANCH   1   2
ATOM      2  N   UNL     1       1.322  -0.712   3.182  0.00  0.00    -0.319 N 
ATOM      3  C   UNL     1       1.918  -0.103   4.280  0.00  0.00    +0.097 A 
ATOM      4  C   UNL     1       1.413   1.102   4.760  0.00  0.00    +0.041 A 
ATOM      5  C   UNL     1       2.015   1.696   5.853  0.00  0.00    +0.005 A 
ATOM      6  C   UNL     1       3.108   1.065   6.433  0.00  0.00    +0.018 A 
ATOM      7  C   UNL     1       3.557  -0.129   5.905  0.00  0.00    +0.084 A 
ATOM      8  N   UNL     1       2.959  -0.677   4.864  0.00  0.00    -0.350 N 
ATOM      9  H   UNL     1       1.619  -1.588   2.893  0.00  0.00    +0.148 HD
ATOM     10  H   UNL     1       3.292  -1.518   4.515  0.00  0.00    +0.166 HD
ENDBRANCH   1   2
BRANCH   1  16
ATOM     11  C   UNL     1       0.162   1.766   0.168  0.00  0.00    +0.045 C 
ATOM     12  C   UNL     1       0.111   0.273  -0.028  0.00  0.00    -0.033 A 
ATOM     13  C   UNL     1       0.032  -0.254  -1.273  0.00  0.00    -0.008 A 
ATOM     14  S   UNL     1       0.001  -2.006  -0.935  0.00  0.00    -0.078 S 
ATOM     15  C   UNL     1       0.096  -1.923   0.846  0.00  0.00    +0.078 A 
ATOM     16  C   UNL     1       0.150  -0.578   1.061  0.00  0.00    +0.009 A 
ATOM     17  C   UNL     1      -0.018   0.456  -2.601  0.00  0.00    +0.052 C 
BRANCH  15  18
ATOM     18  N   UNL     1       0.115  -2.964   1.776  0.00  0.00    -0.276 N 
ATOM     19  C   UNL     1       0.151  -4.244   1.354  0.00  0.00    +0.249 C 
ATOM     20  O   UNL     1       0.247  -4.490   0.167  0.00  0.00    -0.270 OA
ATOM     21  H   UNL     1       0.103  -2.767   2.725  0.00  0.00    +0.156 HD
BRANCH  19  22
ATOM     22  C   UNL     1       0.074  -5.347   2.334  0.00  0.00    +0.037 A 
ATOM     23  C   UNL     1      -0.153  -5.072   3.683  0.00  0.00    +0.013 A 
ATOM     24  C   UNL     1      -0.225  -6.107   4.593  0.00  0.00    +0.001 A 
ATOM     25  C   UNL     1      -0.072  -7.415   4.170  0.00  0.00    +0.000 A 
ATOM     26  C   UNL     1       0.154  -7.695   2.834  0.00  0.00    +0.001 A 
ATOM     27  C   UNL     1       0.221  -6.670   1.913  0.00  0.00    +0.013 A 
ENDBRANCH  19  22
ENDBRANCH  15  18
ENDBRANCH   1  16
BRANCH   1  28
ATOM     28  C   UNL     1      -1.062  -0.255   3.179  0.00  0.00    +0.019 A 
ATOM     29  C   UNL     1      -1.185  -1.299   4.076  0.00  0.00    +0.013 A 
ATOM     30  C   UNL     1      -2.381  -1.509   4.735  0.00  0.00    +0.046 A 
ATOM     31  C   UNL     1      -3.461  -0.671   4.498  0.00  0.00    +0.124 A 
ATOM     32  C   UNL     1      -3.340   0.377   3.599  0.00  0.00    +0.091 A 
ATOM     33  C   UNL     1      -2.137   0.589   2.943  0.00  0.00    +0.129 A 
BRANCH  33  34
ATOM     34  O   UNL     1      -2.014   1.619   2.066  0.00  0.00    -0.495 OA
ATOM     35  C   UNL     1      -3.162   2.448   1.872  0.00  0.00    +0.277 C 
ENDBRANCH  33  34
BRANCH  31  36
ATOM     36  O   UNL     1      -4.638  -0.878   5.147  0.00  0.00    -0.495 OA
ATOM     37  C   UNL     1      -4.691  -1.977   6.059  0.00  0.00    +0.277 C 
ENDBRANCH  31  36
ENDBRANCH   1  28
TORSDOF 7
