REMARK  Name = ZINC39971185
REMARK  10 active torsions:
REMARK  status: ('A' for Active; 'I' for Inactive)
REMARK    1  A    between atoms: C_1  and  C_2
REMARK    2  A    between atoms: C_2  and  C_4
REMARK    3  A    between atoms: C_2  and  N_10
REMARK    4  A    between atoms: N_10  and  S_11
REMARK    5  A    between atoms: S_11  and  C_14
REMARK    6  A    between atoms: C_17  and  N_20
REMARK    7  A    between atoms: N_20  and  C_21
REMARK    8  A    between atoms: C_21  and  N_23
REMARK    9  A    between atoms: N_23  and  N_24
REMARK   10  A    between atoms: N_27  and  C_30
REMARK                            x       y       z     vdW  Elec       q    Type
REMARK                         _______ _______ _______ _____ _____    ______ ____
ROOT
ATOM      1  C   UNL     1       2.500  -2.216  -0.052  0.00  0.00    +0.105 A 
ATOM      2  C   UNL     1       2.433  -2.046   1.319  0.00  0.00    +0.030 A 
ATOM      3  C   UNL     1       2.564  -3.135   2.159  0.00  0.00    +0.025 A 
ATOM      4  C   UNL     1       2.764  -4.401   1.625  0.00  0.00    +0.033 A 
ATOM      5  C   UNL     1       2.831  -4.568   0.248  0.00  0.00    +0.025 A 
ATOM      6  C   UNL     1       2.694  -3.476  -0.587  0.00  0.00    +0.030 A 
ENDROOT
BRANCH   1   7
ATOM      7  S   UNL     1       2.332  -0.824  -1.119  0.00  0.00    +0.059 S 
ATOM      8  O   UNL     1       2.971  -1.170  -2.341  0.00  0.00    -0.153 OA
ATOM      9  O   UNL     1       2.706   0.318  -0.360  0.00  0.00    -0.153 OA
BRANCH   7  10
ATOM     10  N   UNL     1       0.720  -0.659  -1.459  0.00  0.00    -0.183 NA
ATOM     11  H   UNL     1       0.400  -0.783  -2.367  0.00  0.00    +0.149 HD
BRANCH  10  13
ATOM     12  C   UNL     1      -0.449   1.186  -0.360  0.00  0.00    +0.031 C 
ATOM     13  C   UNL     1      -0.224  -0.327  -0.389  0.00  0.00    +0.103 C 
BRANCH  13  14
ATOM     14  C   UNL     1      -1.535  -1.025  -0.641  0.00  0.00    -0.029 A 
ATOM     15  C   UNL     1      -2.035  -1.115  -1.927  0.00  0.00    +0.005 A 
ATOM     16  C   UNL     1      -3.238  -1.756  -2.158  0.00  0.00    +0.000 A 
ATOM     17  C   UNL     1      -3.941  -2.307  -1.103  0.00  0.00    +0.000 A 
ATOM     18  C   UNL     1      -3.441  -2.218   0.182  0.00  0.00    +0.000 A 
ATOM     19  C   UNL     1      -2.236  -1.581   0.413  0.00  0.00    +0.005 A 
ENDBRANCH  13  14
ENDBRANCH  10  13
ENDBRANCH   7  10
ENDBRANCH   1   7
BRANCH   4  20
ATOM     20  N   UNL     1       2.898  -5.506   2.473  0.00  0.00    -0.296 N 
ATOM     21  H   UNL     1       3.568  -6.181   2.286  0.00  0.00    +0.154 HD
BRANCH  20  22
ATOM     22  C   UNL     1       2.095  -5.631   3.548  0.00  0.00    +0.149 C 
ATOM     23  S   UNL     1       0.819  -4.517   3.798  0.00  0.00    -0.017 S 
BRANCH  22  24
ATOM     24  N   UNL     1       2.296  -6.634   4.425  0.00  0.00    -0.260 N 
ATOM     25  H   UNL     1       1.718  -6.725   5.199  0.00  0.00    +0.168 HD
BRANCH  24  26
ATOM     26  N   UNL     1       3.313  -7.523   4.225  0.00  0.00    -0.231 NA
ATOM     27  C   UNL     1       2.792  -8.880   4.007  0.00  0.00    +0.087 C 
ATOM     28  C   UNL     1       3.957  -9.832   3.729  0.00  0.00    -0.062 C 
ATOM     29  N   UNL     1       4.882  -9.822   4.870  0.00  0.00    +0.380 N 
ATOM     30  C   UNL     1       5.413  -8.466   5.060  0.00  0.00    -0.062 C 
ATOM     31  C   UNL     1       4.260  -7.502   5.349  0.00  0.00    +0.087 C 
ATOM     32  C   UNL     1       5.991 -10.750   4.610  0.00  0.00    -0.096 C 
ATOM     33  H   UNL     1       4.391 -10.110   5.703  0.00  0.00    -0.082 HD
ENDBRANCH  24  26
ENDBRANCH  22  24
ENDBRANCH  20  22
ENDBRANCH   4  20
TORSDOF 8
