REMARK  Name = ZINC09194871
REMARK  12 active torsions:
REMARK  status: ('A' for Active; 'I' for Inactive)
REMARK    1  A    between atoms: C_1  and  C_2
REMARK    2  A    between atoms: C_2  and  O_3
REMARK    3  A    between atoms: O_3  and  C_4
REMARK    4  A    between atoms: C_7  and  C_10
REMARK    5  A    between atoms: C_10  and  C_11
REMARK    6  A    between atoms: C_10  and  C_19
REMARK    7  A    between atoms: C_10  and  O_33
REMARK    8  A    between atoms: C_16  and  O_17
REMARK    9  A    between atoms: O_17  and  C_18
REMARK   10  A    between atoms: C_19  and  C_21
REMARK   11  A    between atoms: C_19  and  C_27
REMARK   12  A    between atoms: C_21  and  N_68
REMARK                            x       y       z     vdW  Elec       q    Type
REMARK                         _______ _______ _______ _____ _____    ______ ____
ROOT
ATOM      1  C   UNL     1      -1.791   2.459   3.555  0.00  0.00    +0.124 C 
ENDROOT
BRANCH   1   5
ATOM      2  C   UNL     1      -4.733  -0.044   1.729  0.00  0.00    +0.121 A 
ATOM      3  C   UNL     1      -5.074   1.231   2.155  0.00  0.00    +0.046 A 
ATOM      4  C   UNL     1      -4.121   2.038   2.745  0.00  0.00    +0.010 A 
ATOM      5  C   UNL     1      -2.829   1.576   2.911  0.00  0.00    -0.011 A 
ATOM      6  C   UNL     1      -2.485   0.307   2.482  0.00  0.00    +0.010 A 
ATOM      7  C   UNL     1      -3.436  -0.506   1.896  0.00  0.00    +0.046 A 
BRANCH   2   8
ATOM      8  O   UNL     1      -5.669  -0.841   1.148  0.00  0.00    -0.492 OA
BRANCH   8  10
ATOM      9  C   UNL     1      -6.428  -2.885   0.106  0.00  0.00    +0.048 C 
ATOM     10  C   UNL     1      -5.247  -2.141   0.733  0.00  0.00    +0.225 C 
ENDBRANCH   8  10
ENDBRANCH   2   8
ENDBRANCH   1   5
BRANCH   1  11
ATOM     11  C   UNL     1      -1.154   3.334   2.507  0.00  0.00    +0.030 A 
ATOM     12  C   UNL     1      -1.313   4.705   2.561  0.00  0.00    +0.010 A 
ATOM     13  C   UNL     1      -0.734   5.508   1.596  0.00  0.00    +0.001 A 
ATOM     14  C   UNL     1       0.010   4.941   0.577  0.00  0.00    +0.004 A 
ATOM     15  C   UNL     1       0.175   3.571   0.521  0.00  0.00    +0.046 A 
ATOM     16  C   UNL     1      -0.405   2.763   1.488  0.00  0.00    +0.126 A 
BRANCH  16  17
ATOM     17  O   UNL     1      -0.243   1.415   1.436  0.00  0.00    -0.495 OA
ATOM     18  C   UNL     1       0.586   0.901   0.391  0.00  0.00    +0.277 C 
ENDBRANCH  16  17
ENDBRANCH   1  11
BRANCH   1  19
ATOM     19  O   UNL     1      -2.413   3.279   4.547  0.00  0.00    -0.379 OA
ATOM     20  H   UNL     1      -2.844   2.782   5.255  0.00  0.00    +0.211 HD
ENDBRANCH   1  19
BRANCH   1  21
ATOM     21  C   UNL     1      -0.718   1.589   4.213  0.00  0.00    +0.043 C 
BRANCH  21  22
ATOM     22  C   UNL     1       0.384   2.467   4.747  0.00  0.00    -0.043 A 
ATOM     23  C   UNL     1       0.133   3.329   5.798  0.00  0.00    +0.004 A 
ATOM     24  C   UNL     1       1.145   4.132   6.290  0.00  0.00    +0.000 A 
ATOM     25  C   UNL     1       2.406   4.079   5.725  0.00  0.00    +0.000 A 
ATOM     26  C   UNL     1       2.655   3.221   4.670  0.00  0.00    +0.000 A 
ATOM     27  C   UNL     1       1.644   2.415   4.181  0.00  0.00    +0.004 A 
ENDBRANCH  21  22
BRANCH  21  28
ATOM     28  C   UNL     1      -1.341   0.795   5.364  0.00  0.00    -0.067 C 
BRANCH  28  34
ATOM     29  C   UNL     1       0.026  -1.157   4.938  0.00  0.00    -0.079 C 
ATOM     30  C   UNL     1       1.169  -2.009   5.494  0.00  0.00    -0.019 C 
ATOM     31  C   UNL     1       0.721  -2.663   6.803  0.00  0.00    -0.004 C 
ATOM     32  C   UNL     1       0.297  -1.573   7.791  0.00  0.00    -0.019 C 
ATOM     33  C   UNL     1      -0.820  -0.733   7.168  0.00  0.00    -0.079 C 
ATOM     34  N   UNL     1      -0.317  -0.111   5.925  0.00  0.00    +0.380 N 
ATOM     35  H   UNL     1       0.526   0.432   6.142  0.00  0.00    -0.082 HD
ENDBRANCH  28  34
ENDBRANCH  21  28
ENDBRANCH   1  21
TORSDOF 10
