REMARK  Name = ZINC38827271
REMARK  3 active torsions:
REMARK  status: ('A' for Active; 'I' for Inactive)
REMARK    1  A    between atoms: C_7  and  C_10
REMARK    2  A    between atoms: N_11  and  N_12
REMARK    3  A    between atoms: C_13  and  C_19
REMARK                            x       y       z     vdW  Elec       q    Type
REMARK                         _______ _______ _______ _____ _____    ______ ____
ROOT
ATOM      1  N   UNL     1       0.261  -5.437   0.076  0.00  0.00    -0.180 N 
ATOM      2  C   UNL     1       0.628  -6.857   0.188  0.00  0.00    +0.215 C 
ATOM      3  N   UNL     1      -0.666  -7.562   0.273  0.00  0.00    -0.215 NA
ATOM      4  N   UNL     1      -1.629  -6.596   0.211  0.00  0.00    -0.259 N 
ATOM      5  C   UNL     1      -1.083  -5.378   0.103  0.00  0.00    +0.168 C 
ATOM      6  S   UNL     1      -1.984  -3.925   0.007  0.00  0.00    -0.016 S 
ATOM      7  H   UNL     1      -0.768  -8.223  -0.482  0.00  0.00    +0.147 HD
ATOM      8  H   UNL     1      -2.583  -6.769   0.245  0.00  0.00    +0.168 HD
ENDROOT
BRANCH   2   9
ATOM      9  C   UNL     1       1.444  -7.094   1.433  0.00  0.00    +0.009 A 
ATOM     10  C   UNL     1       1.393  -8.318   2.083  0.00  0.00    +0.010 A 
ATOM     11  C   UNL     1       2.160  -8.491   3.225  0.00  0.00    +0.020 A 
ATOM     12  C   UNL     1       2.944  -7.445   3.674  0.00  0.00    +0.111 A 
ATOM     13  N   UNL     1       2.967  -6.294   3.031  0.00  0.00    -0.263 NA
ATOM     14  C   UNL     1       2.256  -6.096   1.938  0.00  0.00    +0.117 A 
ENDBRANCH   2   9
BRANCH   1  16
ATOM     15  C   UNL     1       0.674  -3.147  -0.241  0.00  0.00    +0.136 C 
ATOM     16  N   UNL     1       1.142  -4.353  -0.033  0.00  0.00    -0.184 NA
BRANCH  15  23
ATOM     17  C   UNL     1      -0.043   1.287  -0.861  0.00  0.00    +0.001 A 
ATOM     18  C   UNL     1       1.120   2.058  -0.782  0.00  0.00    +0.002 A 
ATOM     19  C   UNL     1       2.332   1.501  -0.541  0.00  0.00    +0.026 A 
ATOM     20  C   UNL     1       2.441   0.097  -0.362  0.00  0.00    +0.043 A 
ATOM     21  N   UNL     1       3.482  -0.673  -0.122  0.00  0.00    -0.380 N 
ATOM     22  C   UNL     1       3.041  -2.067  -0.024  0.00  0.00    +0.150 C 
ATOM     23  C   UNL     1       1.544  -2.049  -0.243  0.00  0.00    +0.000 C 
ATOM     24  C   UNL     1       1.212  -0.710  -0.446  0.00  0.00    +0.004 A 
ATOM     25  C   UNL     1      -0.016  -0.060  -0.700  0.00  0.00    +0.010 A 
ATOM     26  H   UNL     1       4.397  -0.365  -0.025  0.00  0.00    +0.160 HD
ENDBRANCH  15  23
ENDBRANCH   1  16
TORSDOF 3
