REMARK  Name = ZINC39926950
REMARK  8 active torsions:
REMARK  status: ('A' for Active; 'I' for Inactive)
REMARK    1  A    between atoms: C_1  and  C_2
REMARK    2  A    between atoms: C_2  and  O_3
REMARK    3  A    between atoms: O_3  and  C_4
REMARK    4  A    between atoms: C_4  and  C_6
REMARK    5  A    between atoms: C_6  and  C_19
REMARK    6  A    between atoms: C_7  and  N_8
REMARK    7  A    between atoms: N_8  and  N_9
REMARK    8  A    between atoms: N_9  and  C_10
REMARK                            x       y       z     vdW  Elec       q    Type
REMARK                         _______ _______ _______ _____ _____    ______ ____
ROOT
ATOM      1  N   UNL     1       2.359  -5.606   3.836  0.00  0.00    -0.203 NA
ATOM      2  H   UNL     1       1.450  -6.045   3.822  0.00  0.00    +0.148 HD
ENDROOT
BRANCH   1   3
ATOM      3  C   UNL     1       3.089  -5.945   5.064  0.00  0.00    +0.265 C 
ATOM      4  N   UNL     1       4.415  -5.312   5.053  0.00  0.00    -0.350 N 
ATOM      5  C   UNL     1       4.475  -4.514   6.079  0.00  0.00    +0.061 A 
ATOM      6  C   UNL     1       5.525  -3.622   6.591  0.00  0.00    +0.027 A 
ATOM      7  C   UNL     1       5.297  -2.897   7.704  0.00  0.00    +0.002 A 
ATOM      8  C   UNL     1       4.083  -2.954   8.411  0.00  0.00    +0.002 A 
ATOM      9  C   UNL     1       3.055  -3.738   8.028  0.00  0.00    +0.027 A 
ATOM     10  C   UNL     1       3.189  -4.574   6.827  0.00  0.00    +0.061 A 
ATOM     11  N   UNL     1       2.384  -5.407   6.235  0.00  0.00    -0.350 N 
ATOM     12  H   UNL     1       5.117  -5.463   4.401  0.00  0.00    +0.163 HD
ATOM     13  H   UNL     1       1.483  -5.632   6.515  0.00  0.00    +0.163 HD
ENDBRANCH   1   3
BRANCH   1  14
ATOM     14  N   UNL     1       2.249  -4.252   3.689  0.00  0.00    -0.283 N 
ATOM     15  H   UNL     1       2.632  -3.659   4.355  0.00  0.00    +0.166 HD
BRANCH  14  17
ATOM     16  C   UNL     1       1.497  -2.371   2.468  0.00  0.00    +0.150 C 
ATOM     17  C   UNL     1       1.608  -3.738   2.616  0.00  0.00    +0.110 C 
BRANCH  16  18
ATOM     18  C   UNL     1       0.801  -1.814   1.304  0.00  0.00    +0.351 C 
ATOM     19  O   UNL     1       0.321  -2.557   0.470  0.00  0.00    -0.244 OA
BRANCH  18  20
ATOM     20  O   UNL     1       0.693  -0.477   1.160  0.00  0.00    -0.461 OA
BRANCH  20  22
ATOM     21  C   UNL     1      -0.019   1.526   0.010  0.00  0.00    +0.048 C 
ATOM     22  C   UNL     1       0.002  -0.004   0.002  0.00  0.00    +0.229 C 
ENDBRANCH  20  22
ENDBRANCH  18  20
ENDBRANCH  16  18
BRANCH  16  23
ATOM     23  C   UNL     1       2.063  -1.497   3.451  0.00  0.00    +0.108 C 
ATOM     24  N   UNL     1       2.511  -0.803   4.231  0.00  0.00    -0.191 NA
ENDBRANCH  16  23
ENDBRANCH  14  17
ENDBRANCH   1  14
TORSDOF 7
