REMARK  Name = ZINC02128265
REMARK  6 active torsions:
REMARK  status: ('A' for Active; 'I' for Inactive)
REMARK    1  A    between atoms: C_1  and  C_2
REMARK    2  A    between atoms: C_5  and  N_8
REMARK    3  A    between atoms: C_9  and  O_37
REMARK    4  A    between atoms: C_10  and  C_23
REMARK    5  A    between atoms: N_13  and  C_16
REMARK    6  A    between atoms: C_19  and  C_22
REMARK                            x       y       z     vdW  Elec       q    Type
REMARK                         _______ _______ _______ _____ _____    ______ ____
ROOT
ATOM      1  N   UNL     1       0.726   3.498   0.652  0.00  0.00    -0.232 N 
ATOM      2  C   UNL     1       0.025   2.573   1.386  0.00  0.00    +0.208 A 
ATOM      3  C   UNL     1      -0.751   1.655   0.743  0.00  0.00    +0.069 A 
ATOM      4  C   UNL     1      -0.806   1.671  -0.661  0.00  0.00    +0.267 A 
ATOM      5  O   UNL     1      -1.489   0.856  -1.258  0.00  0.00    -0.267 OA
ATOM      6  N   UNL     1      -0.103   2.596  -1.344  0.00  0.00    -0.228 N 
ATOM      7  C   UNL     1       0.653   3.498  -0.692  0.00  0.00    +0.344 A 
ATOM      8  O   UNL     1       1.280   4.324  -1.326  0.00  0.00    -0.245 OA
ENDROOT
BRANCH   3   9
ATOM      9  C   UNL     1      -1.534   0.633   1.527  0.00  0.00    +0.018 C 
ATOM     10  C   UNL     1      -3.013   0.858   1.319  0.00  0.00    +0.011 A 
ATOM     11  C   UNL     1      -3.885  -0.154   1.093  0.00  0.00    -0.022 A 
ATOM     12  C   UNL     1      -5.194   0.439   0.935  0.00  0.00    +0.003 A 
ATOM     13  C   UNL     1      -6.460  -0.101   0.687  0.00  0.00    +0.010 A 
ATOM     14  C   UNL     1      -7.506   0.784   0.595  0.00  0.00    +0.001 A 
ATOM     15  C   UNL     1      -7.330   2.150   0.740  0.00  0.00    +0.002 A 
ATOM     16  C   UNL     1      -6.089   2.712   0.986  0.00  0.00    +0.026 A 
ATOM     17  C   UNL     1      -5.008   1.838   1.083  0.00  0.00    +0.047 A 
ATOM     18  N   UNL     1      -3.679   2.051   1.312  0.00  0.00    -0.359 N 
ATOM     19  H   UNL     1      -3.268   2.918   1.452  0.00  0.00    +0.166 HD
ATOM     20  C   UNL     1      -3.480  -1.606   1.036  0.00  0.00    +0.018 C 
ATOM     21  C   UNL     1      -2.079  -1.732   1.648  0.00  0.00    -0.076 C 
ATOM     22  N   UNL     1      -1.183  -0.722   1.048  0.00  0.00    +0.388 N 
ATOM     23  H   UNL     1      -0.213  -0.932   1.310  0.00  0.00    -0.084 HD
ATOM     24  H   UNL     1      -1.276  -0.753   0.026  0.00  0.00    -0.084 HD
ENDBRANCH   3   9
BRANCH   1  29
ATOM     25  C   UNL     1       3.947   7.348   3.300  0.00  0.00    +0.044 C 
ATOM     26  C   UNL     1       3.091   6.325   2.597  0.00  0.00    -0.050 A 
ATOM     27  C   UNL     1       1.761   6.599   2.338  0.00  0.00    +0.005 A 
ATOM     28  C   UNL     1       0.975   5.665   1.693  0.00  0.00    +0.026 A 
ATOM     29  C   UNL     1       1.521   4.449   1.306  0.00  0.00    +0.054 A 
ATOM     30  C   UNL     1       2.856   4.174   1.573  0.00  0.00    +0.026 A 
ATOM     31  C   UNL     1       3.639   5.115   2.212  0.00  0.00    +0.005 A 
ENDBRANCH   1  29
BRANCH   6  32
ATOM     32  C   UNL     1      -0.160   2.619  -2.744  0.00  0.00    +0.054 A 
ATOM     33  C   UNL     1       0.779   1.920  -3.490  0.00  0.00    +0.026 A 
ATOM     34  C   UNL     1       0.717   1.940  -4.870  0.00  0.00    +0.005 A 
ATOM     35  C   UNL     1      -0.272   2.665  -5.508  0.00  0.00    -0.050 A 
ATOM     36  C   UNL     1      -1.206   3.367  -4.768  0.00  0.00    +0.005 A 
ATOM     37  C   UNL     1      -1.153   3.346  -3.388  0.00  0.00    +0.026 A 
ATOM     38  C   UNL     1      -0.333   2.690  -7.014  0.00  0.00    +0.044 C 
ENDBRANCH   6  32
BRANCH   2  39
ATOM     39  O   UNL     1       0.100   2.576   2.734  0.00  0.00    -0.493 OA
ATOM     40  H   UNL     1       0.609   3.313   3.098  0.00  0.00    +0.294 HD
ENDBRANCH   2  39
TORSDOF 4
