REMARK  Name = ZINC26571044
REMARK  10 active torsions:
REMARK  status: ('A' for Active; 'I' for Inactive)
REMARK    1  A    between atoms: C_1  and  C_2
REMARK    2  A    between atoms: C_2  and  CA_3
REMARK    3  A    between atoms: CA_3  and  C_5
REMARK    4  A    between atoms: CA_3  and  N_7
REMARK    5  A    between atoms: C_5  and  O_6
REMARK    6  A    between atoms: N_7  and  C_8
REMARK    7  A    between atoms: C_8  and  C_9
REMARK    8  A    between atoms: C_9  and  C_11
REMARK    9  A    between atoms: C_9  and  O_27
REMARK   10  A    between atoms: C_11  and  N_12
REMARK                            x       y       z     vdW  Elec       q    Type
REMARK                         _______ _______ _______ _____ _____    ______ ____
ROOT
ATOM      1  N   UNL     1      -2.563   3.581   0.048  0.00  0.00    -0.337 N 
ATOM      2  C   UNL     1      -1.244   3.161   0.032  0.00  0.00    +0.050 A 
ATOM      3  C   UNL     1      -0.040   3.858   0.024  0.00  0.00    +0.027 A 
ATOM      4  C   UNL     1       1.155   3.171   0.008  0.00  0.00    +0.017 A 
ATOM      5  C   UNL     1       1.171   1.784   0.001  0.00  0.00    +0.019 A 
ATOM      6  C   UNL     1      -0.013   1.076   0.008  0.00  0.00    +0.026 A 
ATOM      7  C   UNL     1      -1.227   1.758   0.017  0.00  0.00    +0.009 A 
ATOM      8  C   UNL     1      -2.635   1.322   0.035  0.00  0.00    +0.009 A 
ATOM      9  C   UNL     1      -3.413   2.489   0.050  0.00  0.00    +0.050 A 
ATOM     10  C   UNL     1      -4.801   2.384   0.064  0.00  0.00    +0.027 A 
ATOM     11  C   UNL     1      -5.399   1.142   0.064  0.00  0.00    +0.017 A 
ATOM     12  C   UNL     1      -4.628  -0.011   0.050  0.00  0.00    +0.019 A 
ATOM     13  C   UNL     1      -3.252   0.073   0.035  0.00  0.00    +0.026 A 
ATOM     14 BR   UNL     1      -5.468  -1.706   0.050  0.00  0.00    -0.050 Br
ATOM     15 BR   UNL     1       2.821   0.861  -0.021  0.00  0.00    -0.050 Br
ENDROOT
BRANCH   1  16
ATOM     16  C   UNL     1      -2.996   4.980   0.059  0.00  0.00    +0.151 C 
BRANCH  16  17
ATOM     17  C   UNL     1      -3.162   5.475  -1.379  0.00  0.00    +0.117 C 
BRANCH  17  18
ATOM     18  O   UNL     1      -4.223   4.756  -2.011  0.00  0.00    -0.392 OA
ATOM     19  H   UNL     1      -4.163   3.662  -2.111  0.00  0.00    +0.210 HD
ENDBRANCH  17  18
BRANCH  17  20
ATOM     20  C   UNL     1      -3.492   6.968  -1.370  0.00  0.00    -0.049 C 
BRANCH  20  21
ATOM     21  N   UNL     1      -3.652   7.443  -2.751  0.00  0.00    +0.384 N 
ATOM     22  H1  UNL     1      -4.465   6.877  -3.227  0.00  0.00    -0.085 HD
ATOM     23  H2  UNL     1      -2.713   7.265  -3.296  0.00  0.00    -0.085 HD
BRANCH  21  24
ATOM     24  CA  UNL     1      -3.970   8.877  -2.781  0.00  0.00    -0.046 C 
BRANCH  24  26
ATOM     25  C   UNL     1      -6.071   8.490  -4.077  0.00  0.00    +0.002 C 
ATOM     26  C   UNL     1      -4.719   9.206  -4.074  0.00  0.00    -0.017 C 
ENDBRANCH  24  26
BRANCH  24  27
ATOM     27  C   UNL     1      -2.675   9.689  -2.721  0.00  0.00    +0.140 C 
BRANCH  27  28
ATOM     28  O   UNL     1      -1.906   9.448  -3.901  0.00  0.00    -0.397 OA
ATOM     29  H   UNL     1      -0.936   9.948  -4.037  0.00  0.00    +0.209 HD
ENDBRANCH  27  28
ENDBRANCH  24  27
ENDBRANCH  21  24
ENDBRANCH  20  21
ENDBRANCH  17  20
ENDBRANCH  16  17
ENDBRANCH   1  16
TORSDOF 9
