REMARK  Name = ZINC09540295
REMARK  15 active torsions:
REMARK  status: ('A' for Active; 'I' for Inactive)
REMARK    1  A    between atoms: C_1  and  C_2
REMARK    2  A    between atoms: C_3  and  C_23
REMARK    3  A    between atoms: C_4  and  N_10
REMARK    4  A    between atoms: C_6  and  C_7
REMARK    5  A    between atoms: C_11  and  C_13
REMARK    6  A    between atoms: C_13  and  N_54
REMARK    7  A    between atoms: C_14  and  C_15
REMARK    8  A    between atoms: C_14  and  N_54
REMARK    9  A    between atoms: C_19  and  O_21
REMARK   10  A    between atoms: O_21  and  C_22
REMARK   11  A    between atoms: C_23  and  O_25
REMARK   12  A    between atoms: O_25  and  C_26
REMARK   13  A    between atoms: C_26  and  C_27
REMARK   14  A    between atoms: C_27  and  O_28
REMARK   15  A    between atoms: O_28  and  C_29
REMARK                            x       y       z     vdW  Elec       q    Type
REMARK                         _______ _______ _______ _____ _____    ______ ____
ROOT
ATOM      1  C   UNL     1       6.132   1.346  -0.049  0.00  0.00    +0.046 C 
ATOM      2  C   UNL     1       4.705   0.861  -0.037  0.00  0.00    -0.015 A 
ATOM      3  C   UNL     1       3.644   1.753  -0.023  0.00  0.00    +0.091 A 
ATOM      4  C   UNL     1       2.349   1.224  -0.014  0.00  0.00    +0.087 A 
ATOM      5  S   UNL     1       2.630  -0.486  -0.018  0.00  0.00    -0.068 S 
ATOM      6  C   UNL     1       4.412  -0.476  -0.041  0.00  0.00    +0.079 A 
ENDROOT
BRANCH   6   7
ATOM      7  C   UNL     1       5.334  -1.614  -0.055  0.00  0.00    +0.248 C 
ATOM      8  O   UNL     1       6.536  -1.423  -0.065  0.00  0.00    -0.270 OA
ATOM      9  N   UNL     1       4.850  -2.872  -0.056  0.00  0.00    -0.325 N 
ATOM     10  H   UNL     1       3.892  -3.023  -0.049  0.00  0.00    +0.145 HD
ATOM     11  H   UNL     1       5.461  -3.626  -0.065  0.00  0.00    +0.145 HD
ENDBRANCH   6   7
BRANCH   4  12
ATOM     12  N   UNL     1       1.143   1.898   0.001  0.00  0.00    -0.281 N 
ATOM     13  C   UNL     1      -0.014   1.208   0.009  0.00  0.00    +0.201 C 
ATOM     14  O   UNL     1       0.002  -0.004   0.002  0.00  0.00    -0.278 OA
ATOM     15  H   UNL     1       1.130   2.868   0.007  0.00  0.00    +0.155 HD
BRANCH  13  16
ATOM     16  C   UNL     1      -1.330   1.944   0.019  0.00  0.00    +0.016 C 
BRANCH  16  17
ATOM     17  N   UNL     1      -2.432   0.964   0.019  0.00  0.00    +0.387 N 
ATOM     18  H   UNL     1      -2.357   0.371   0.854  0.00  0.00    -0.085 HD
ATOM     19  H   UNL     1      -2.365   0.380  -0.823  0.00  0.00    -0.085 HD
BRANCH  17  20
ATOM     20  C   UNL     1      -3.734   1.657   0.029  0.00  0.00    -0.046 C 
BRANCH  20  21
ATOM     21  C   UNL     1      -4.839   0.632   0.028  0.00  0.00    -0.061 A 
ATOM     22  C   UNL     1      -5.355   0.173  -1.170  0.00  0.00    +0.002 A 
ATOM     23  C   UNL     1      -6.365  -0.771  -1.173  0.00  0.00    +0.004 A 
ATOM     24  C   UNL     1      -6.869  -1.250   0.021  0.00  0.00    +0.045 A 
ATOM     25  C   UNL     1      -6.357  -0.786   1.224  0.00  0.00    +0.120 A 
ATOM     26  C   UNL     1      -5.339   0.157   1.225  0.00  0.00    +0.047 A 
BRANCH  25  27
ATOM     27  O   UNL     1      -6.851  -1.256   2.400  0.00  0.00    -0.495 OA
ATOM     28  C   UNL     1      -7.898  -2.225   2.322  0.00  0.00    +0.277 C 
ENDBRANCH  25  27
ENDBRANCH  20  21
ENDBRANCH  17  20
ENDBRANCH  16  17
ENDBRANCH  13  16
ENDBRANCH   4  12
BRANCH   3  29
ATOM     29  C   UNL     1       3.871   3.203  -0.019  0.00  0.00    +0.342 C 
ATOM     30  O   UNL     1       3.975   3.799   1.036  0.00  0.00    -0.245 OA
BRANCH  29  31
ATOM     31  O   UNL     1       3.964   3.874  -1.185  0.00  0.00    -0.459 OA
BRANCH  31  32
ATOM     32  C   UNL     1       4.189   5.306  -1.104  0.00  0.00    +0.260 C 
BRANCH  32  33
ATOM     33  C   UNL     1       4.266   5.890  -2.516  0.00  0.00    +0.200 C 
BRANCH  33  34
ATOM     34  O   UNL     1       3.001   5.742  -3.163  0.00  0.00    -0.380 OA
ATOM     35  C   UNL     1       2.964   6.259  -4.495  0.00  0.00    +0.194 C 
ENDBRANCH  33  34
ENDBRANCH  32  33
ENDBRANCH  31  32
ENDBRANCH  29  31
ENDBRANCH   3  29
TORSDOF 12
