REMARK  Name = ZINC35077954
REMARK  9 active torsions:
REMARK  status: ('A' for Active; 'I' for Inactive)
REMARK    1  A    between atoms: C_1  and  C_2
REMARK    2  A    between atoms: C_2  and  C_28
REMARK    3  A    between atoms: C_5  and  C_24
REMARK    4  A    between atoms: C_6  and  N_13
REMARK    5  A    between atoms: C_9  and  C_11
REMARK    6  A    between atoms: C_9  and  C_12
REMARK    7  A    between atoms: C_14  and  C_16
REMARK    8  A    between atoms: C_24  and  O_26
REMARK    9  A    between atoms: O_26  and  C_27
REMARK                            x       y       z     vdW  Elec       q    Type
REMARK                         _______ _______ _______ _____ _____    ______ ____
ROOT
ATOM      1  C   UNL     1      -0.019   1.526   0.010  0.00  0.00    -0.010 C 
ATOM      2  C   UNL     1       0.002  -0.004   0.002  0.00  0.00    -0.069 C 
ATOM      3  C   UNL     1      -1.434  -0.533  -0.097  0.00  0.00    +0.024 C 
ATOM      4  C   UNL     1      -2.143  -0.138   1.190  0.00  0.00    -0.024 A 
ATOM      5  C   UNL     1      -3.548   0.159   1.353  0.00  0.00    +0.091 A 
ATOM      6  C   UNL     1      -3.974   0.505   2.631  0.00  0.00    +0.086 A 
ATOM      7  S   UNL     1      -2.577   0.438   3.562  0.00  0.00    -0.079 S 
ATOM      8  C   UNL     1      -1.413  -0.053   2.326  0.00  0.00    -0.016 A 
ATOM      9  C   UNL     1       0.047  -0.334   2.463  0.00  0.00    -0.041 C 
ATOM     10  N   UNL     1       0.700  -0.526   1.169  0.00  0.00    +0.389 N 
ATOM     11  C   UNL     1       0.718   0.813   3.232  0.00  0.00    -0.005 C 
ATOM     12  C   UNL     1       0.214  -1.621   3.295  0.00  0.00    -0.005 C 
ATOM     13  C   UNL     1       0.759  -0.459  -1.260  0.00  0.00    -0.010 C 
ATOM     14  H   UNL     1       0.860  -1.526   1.031  0.00  0.00    -0.084 HD
ATOM     15  H   UNL     1       1.629  -0.102   1.208  0.00  0.00    -0.084 HD
ENDROOT
BRANCH   6  16
ATOM     16  N   UNL     1      -5.256   0.829   3.041  0.00  0.00    -0.275 N 
ATOM     17  C   UNL     1      -5.493   1.142   4.330  0.00  0.00    +0.249 C 
ATOM     18  O   UNL     1      -4.580   1.140   5.133  0.00  0.00    -0.270 OA
ATOM     19  H   UNL     1      -5.984   0.831   2.400  0.00  0.00    +0.156 HD
BRANCH  17  20
ATOM     20  C   UNL     1      -6.861   1.489   4.767  0.00  0.00    +0.040 A 
ATOM     21  C   UNL     1      -7.912   1.486   3.848  0.00  0.00    +0.033 A 
ATOM     22  C   UNL     1      -9.189   1.811   4.263  0.00  0.00    +0.043 A 
ATOM     23  C   UNL     1      -9.428   2.138   5.587  0.00  0.00    +0.040 A 
ATOM     24  C   UNL     1      -8.389   2.142   6.503  0.00  0.00    +0.043 A 
ATOM     25  C   UNL     1      -7.110   1.813   6.102  0.00  0.00    +0.033 A 
ATOM     26 CL   UNL     1      -8.699   2.553   8.161  0.00  0.00    -0.083 Cl
ATOM     27 CL   UNL     1     -10.497   1.809   3.121  0.00  0.00    -0.083 Cl
ENDBRANCH  17  20
ENDBRANCH   6  16
BRANCH   5  28
ATOM     28  C   UNL     1      -4.491   0.097   0.234  0.00  0.00    +0.342 C 
ATOM     29  O   UNL     1      -5.071  -0.942  -0.016  0.00  0.00    -0.245 OA
BRANCH  28  30
ATOM     30  O   UNL     1      -4.715   1.193  -0.520  0.00  0.00    -0.464 OA
ATOM     31  C   UNL     1      -5.646   1.061  -1.595  0.00  0.00    +0.280 C 
ENDBRANCH  28  30
ENDBRANCH   5  28
TORSDOF 4
