REMARK  Name = ZINC59037927
REMARK  10 active torsions:
REMARK  status: ('A' for Active; 'I' for Inactive)
REMARK    1  A    between atoms: C_1  and  C_2
REMARK    2  A    between atoms: C_5  and  S_8
REMARK    3  A    between atoms: S_8  and  N_11
REMARK    4  A    between atoms: N_11  and  C_12
REMARK    5  A    between atoms: C_12  and  C_13
REMARK    6  A    between atoms: C_13  and  N_14
REMARK    7  A    between atoms: N_17  and  C_18
REMARK    8  A    between atoms: C_18  and  C_19
REMARK    9  A    between atoms: C_19  and  C_21
REMARK   10  A    between atoms: C_19  and  N_26
REMARK                            x       y       z     vdW  Elec       q    Type
REMARK                         _______ _______ _______ _____ _____    ______ ____
ROOT
ATOM      1  N   UNL     1       4.686  -5.184   2.125  0.00  0.00    -0.298 N 
ATOM      2  C   UNL     1       5.921  -5.717   2.204  0.00  0.00    +0.300 C 
ATOM      3  O   UNL     1       6.372  -6.346   1.266  0.00  0.00    -0.253 OA
ATOM      4  N   UNL     1       6.656  -5.553   3.321  0.00  0.00    -0.301 N 
ATOM      5  H   UNL     1       4.326  -4.682   2.873  0.00  0.00    +0.150 HD
ATOM      6  H   UNL     1       6.296  -5.051   4.069  0.00  0.00    +0.150 HD
ENDROOT
BRANCH   1   7
ATOM      7  C   UNL     1       3.887  -5.362   0.910  0.00  0.00    +0.122 C 
BRANCH   7   8
ATOM      8  C   UNL     1       2.536  -4.664   1.081  0.00  0.00    +0.124 C 
BRANCH   8   9
ATOM      9  N   UNL     1       1.737  -4.842  -0.134  0.00  0.00    -0.188 NA
ATOM     10  H   UNL     1       2.160  -5.146  -0.952  0.00  0.00    +0.148 HD
BRANCH   9  11
ATOM     11  S   UNL     1       0.112  -4.524  -0.110  0.00  0.00    +0.058 S 
ATOM     12  O   UNL     1      -0.416  -5.194   1.026  0.00  0.00    -0.153 OA
ATOM     13  O   UNL     1      -0.367  -4.763  -1.427  0.00  0.00    -0.153 OA
BRANCH  11  18
ATOM     14  C   UNL     1      -0.539   1.385   0.917  0.00  0.00    +0.044 C 
ATOM     15  C   UNL     1      -0.377  -0.091   0.660  0.00  0.00    -0.050 A 
ATOM     16  C   UNL     1      -0.278  -0.560  -0.636  0.00  0.00    +0.005 A 
ATOM     17  C   UNL     1      -0.128  -1.914  -0.872  0.00  0.00    +0.029 A 
ATOM     18  C   UNL     1      -0.077  -2.799   0.190  0.00  0.00    +0.105 A 
ATOM     19  C   UNL     1      -0.175  -2.329   1.486  0.00  0.00    +0.029 A 
ATOM     20  C   UNL     1      -0.320  -0.975   1.722  0.00  0.00    +0.005 A 
ENDBRANCH  11  18
ENDBRANCH   9  11
ENDBRANCH   8   9
ENDBRANCH   7   8
ENDBRANCH   1   7
BRANCH   4  21
ATOM     21  C   UNL     1       7.999  -6.133   3.407  0.00  0.00    +0.095 C 
BRANCH  21  22
ATOM     22  C   UNL     1       8.662  -5.692   4.713  0.00  0.00    -0.013 C 
BRANCH  22  23
ATOM     23  N   UNL     1       9.954  -6.376   4.861  0.00  0.00    +0.386 N 
ATOM     24  C   UNL     1      10.603  -5.975   6.136  0.00  0.00    -0.078 C 
ATOM     25  C   UNL     1      11.592  -7.136   6.411  0.00  0.00    -0.020 C 
ATOM     26  C   UNL     1      10.805  -8.380   5.937  0.00  0.00    -0.020 C 
ATOM     27  C   UNL     1       9.749  -7.838   4.955  0.00  0.00    -0.078 C 
ATOM     28  H   UNL     1      10.555  -6.159   4.080  0.00  0.00    -0.081 HD
ENDBRANCH  22  23
BRANCH  22  29
ATOM     29  C   UNL     1       8.883  -4.202   4.687  0.00  0.00    -0.022 A 
ATOM     30  C   UNL     1       8.152  -3.220   5.269  0.00  0.00    +0.009 A 
ATOM     31  C   UNL     1       8.547  -1.905   5.109  0.00  0.00    +0.008 A 
ATOM     32  C   UNL     1       9.655  -1.637   4.375  0.00  0.00    +0.045 A 
ATOM     33  S   UNL     1      10.180  -3.272   3.888  0.00  0.00    -0.103 S 
ENDBRANCH  22  29
ENDBRANCH  21  22
ENDBRANCH   4  21
TORSDOF 9
