REMARK  Name = ZINC06200120
REMARK  7 active torsions:
REMARK  status: ('A' for Active; 'I' for Inactive)
REMARK    1  A    between atoms: C_1  and  C_2
REMARK    2  A    between atoms: C_9  and  O_20
REMARK    3  A    between atoms: C_12  and  C_14
REMARK    4  A    between atoms: C_23  and  O_34
REMARK    5  A    between atoms: C_24  and  C_31
REMARK    6  A    between atoms: C_27  and  O_30
REMARK    7  A    between atoms: N_32  and  O_33
REMARK                            x       y       z     vdW  Elec       q    Type
REMARK                         _______ _______ _______ _____ _____    ______ ____
ROOT
ATOM      1  C   UNL     1       2.114   2.428   6.985  0.00  0.00    +0.014 C 
ATOM      2  C   UNL     1       2.948   1.333   6.318  0.00  0.00    +0.004 C 
ATOM      3  C   UNL     1       3.920   1.911   5.324  0.00  0.00    +0.010 C 
ATOM      4  C   UNL     1       3.288   2.035   3.931  0.00  0.00    +0.005 C 
ATOM      5  C   UNL     1       1.768   2.055   4.008  0.00  0.00    +0.009 C 
ATOM      6  C   UNL     1       1.242   0.728   4.539  0.00  0.00    +0.025 C 
ATOM      7  C   UNL     1       2.086   0.227   5.677  0.00  0.00    +0.075 C 
ATOM      8  C   UNL     1       1.347  -0.337   6.901  0.00  0.00    +0.036 C 
ATOM      9  C   UNL     1       2.459  -0.371   7.986  0.00  0.00    +0.011 C 
ATOM     10  C   UNL     1       3.608   0.529   7.463  0.00  0.00    +0.027 C 
ATOM     11  C   UNL     1      -0.243   0.807   4.851  0.00  0.00    +0.009 C 
ATOM     12  C   UNL     1      -0.981   1.616   3.777  0.00  0.00    +0.036 C 
ATOM     13  C   UNL     1      -0.173   1.620   2.491  0.00  0.00    +0.079 C 
ATOM     14  C   UNL     1       1.125   2.406   2.673  0.00  0.00    +0.041 C 
ATOM     15  C   UNL     1       2.019   2.147   1.468  0.00  0.00    +0.018 C 
ATOM     16  C   UNL     1       1.305   2.619   0.197  0.00  0.00    +0.032 C 
ATOM     17  C   UNL     1      -0.078   1.999   0.044  0.00  0.00    +0.117 C 
ATOM     18  C   UNL     1      -0.939   2.187   1.297  0.00  0.00    +0.067 C 
ENDROOT
BRANCH  10  19
ATOM     19  C   UNL     1       4.074   1.471   8.543  0.00  0.00    -0.020 C 
ATOM     20  C   UNL     1       3.484   1.709   9.693  0.00  0.00    +0.199 C 
ATOM     21  O   UNL     1       4.144   2.602  10.452  0.00  0.00    -0.433 OA
ATOM     22  C   UNL     1       5.258   3.056   9.855  0.00  0.00    +0.316 C 
ATOM     23  O   UNL     1       6.046   3.862  10.289  0.00  0.00    -0.250 OA
ATOM     24  C   UNL     1       5.316   2.341   8.518  0.00  0.00    +0.155 C 
ENDBRANCH  10  19
BRANCH   7  25
ATOM     25  O   UNL     1       2.957  -0.811   5.173  0.00  0.00    -0.388 OA
ATOM     26  H   UNL     1       2.491  -1.547   4.752  0.00  0.00    +0.210 HD
ENDBRANCH   7  25
BRANCH  17  27
ATOM     27  O   UNL     1      -0.742   2.605  -1.071  0.00  0.00    -0.392 OA
ATOM     28  H   UNL     1      -0.271   2.509  -1.909  0.00  0.00    +0.210 HD
ENDBRANCH  17  27
BRANCH  14  29
ATOM     29  C   UNL     1       0.819   3.889   2.732  0.00  0.00    +0.135 C 
ATOM     30  N   UNL     1       1.301   4.677   1.847  0.00  0.00    -0.099 NA
BRANCH  30  31
ATOM     31  O   UNL     1       1.015   6.063   1.902  0.00  0.00    -0.409 OA
ATOM     32  H   UNL     1       1.423   6.577   1.192  0.00  0.00    +0.328 HD
ENDBRANCH  30  31
ENDBRANCH  14  29
BRANCH  13  33
ATOM     33  O   UNL     1       0.138   0.260   2.145  0.00  0.00    -0.388 OA
ATOM     34  H   UNL     1      -0.640  -0.300   2.014  0.00  0.00    +0.210 HD
ENDBRANCH  13  33
TORSDOF 6
