REMARK  Name = ZINC47045081
REMARK  12 active torsions:
REMARK  status: ('A' for Active; 'I' for Inactive)
REMARK    1  A    between atoms: C_1  and  C_2
REMARK    2  A    between atoms: C_2  and  C_3
REMARK    3  A    between atoms: C_2  and  N_4
REMARK    4  A    between atoms: C_8  and  C_10
REMARK    5  A    between atoms: C_10  and  N_11
REMARK    6  A    between atoms: N_11  and  C_12
REMARK    7  A    between atoms: N_11  and  C_18
REMARK    8  A    between atoms: C_12  and  C_13
REMARK    9  A    between atoms: C_18  and  C_19
REMARK   10  A    between atoms: N_24  and  C_25
REMARK   11  A    between atoms: C_25  and  C_26
REMARK   12  A    between atoms: C_25  and  C_27
REMARK                            x       y       z     vdW  Elec       q    Type
REMARK                         _______ _______ _______ _____ _____    ______ ____
ROOT
ATOM      1  N   UNL     1       6.290  -1.703  -3.412  0.00  0.00    +0.394 N 
ATOM      2  H   UNL     1       6.722  -0.859  -3.067  0.00  0.00    -0.080 HD
ENDROOT
BRANCH   1   3
ATOM      3  C   UNL     1       4.888  -1.431  -3.756  0.00  0.00    +0.020 C 
BRANCH   3   8
ATOM      4  N   UNL     1       0.946   0.351  -1.659  0.00  0.00    -0.297 N 
ATOM      5  C   UNL     1       2.250   0.019  -1.576  0.00  0.00    +0.306 C 
ATOM      6  O   UNL     1       2.857   0.196  -0.538  0.00  0.00    -0.252 OA
ATOM      7  N   UNL     1       2.880  -0.508  -2.644  0.00  0.00    -0.242 N 
ATOM      8  C   UNL     1       4.183  -0.841  -2.562  0.00  0.00    +0.204 C 
ATOM      9  O   UNL     1       4.789  -0.664  -1.526  0.00  0.00    -0.277 OA
ATOM     10  H   UNL     1       0.461   0.210  -2.487  0.00  0.00    +0.151 HD
ATOM     11  H   UNL     1       2.395  -0.649  -3.473  0.00  0.00    +0.159 HD
BRANCH   4  13
ATOM     12  C   UNL     1       0.493   2.437  -0.465  0.00  0.00    +0.027 C 
ATOM     13  C   UNL     1       0.261   0.925  -0.498  0.00  0.00    +0.068 C 
ATOM     14  C   UNL     1      -1.239   0.641  -0.599  0.00  0.00    +0.027 C 
ENDBRANCH   4  13
ENDBRANCH   3   8
ENDBRANCH   1   3
BRANCH   1  15
ATOM     15  C   UNL     1       6.346  -2.742  -2.375  0.00  0.00    -0.041 C 
BRANCH  15  16
ATOM     16  C   UNL     1       5.658  -3.987  -2.873  0.00  0.00    -0.057 A 
ATOM     17  C   UNL     1       4.310  -4.184  -2.639  0.00  0.00    +0.009 A 
ATOM     18  C   UNL     1       3.721  -5.314  -3.100  0.00  0.00    +0.045 A 
ATOM     19  S   UNL     1       5.087  -6.145  -3.893  0.00  0.00    -0.105 S 
ATOM     20  C   UNL     1       6.350  -4.928  -3.561  0.00  0.00    +0.047 A 
ENDBRANCH  15  16
ENDBRANCH   1  15
BRANCH   1  21
ATOM     21  C   UNL     1       7.006  -2.166  -4.608  0.00  0.00    +0.020 C 
BRANCH  21  22
ATOM     22  C   UNL     1       8.475  -2.294  -4.296  0.00  0.00    +0.204 C 
ATOM     23  O   UNL     1       8.901  -1.925  -3.222  0.00  0.00    -0.277 OA
ATOM     24  N   UNL     1       9.315  -2.819  -5.209  0.00  0.00    -0.242 N 
ATOM     25  C   UNL     1      10.629  -2.934  -4.930  0.00  0.00    +0.306 C 
ATOM     26  O   UNL     1      11.055  -2.564  -3.854  0.00  0.00    -0.252 OA
ATOM     27  N   UNL     1      11.469  -3.459  -5.844  0.00  0.00    -0.297 N 
ATOM     28  H   UNL     1       8.974  -3.115  -6.068  0.00  0.00    +0.159 HD
ATOM     29  H   UNL     1      11.128  -3.754  -6.703  0.00  0.00    +0.151 HD
BRANCH  27  30
ATOM     30  C   UNL     1      12.896  -3.584  -5.540  0.00  0.00    +0.068 C 
ATOM     31  C   UNL     1      13.501  -4.707  -6.384  0.00  0.00    +0.027 C 
ATOM     32  C   UNL     1      13.603  -2.266  -5.863  0.00  0.00    +0.027 C 
ENDBRANCH  27  30
ENDBRANCH  21  22
ENDBRANCH   1  21
TORSDOF 8
