REMARK  Name = ZINC38018641
REMARK  6 active torsions:
REMARK  status: ('A' for Active; 'I' for Inactive)
REMARK    1  A    between atoms: C_1  and  C_2
REMARK    2  A    between atoms: C_5  and  N_8
REMARK    3  A    between atoms: C_9  and  C_11
REMARK    4  A    between atoms: C_11  and  N_12
REMARK    5  A    between atoms: N_12  and  C_13
REMARK    6  A    between atoms: C_13  and  C_14
REMARK                            x       y       z     vdW  Elec       q    Type
REMARK                         _______ _______ _______ _____ _____    ______ ____
ROOT
ATOM      1  N   UNL     1       0.059  -4.170  -0.021  0.00  0.00    -0.287 N 
ATOM      2  C   UNL     1       0.175  -4.848   1.138  0.00  0.00    +0.200 C 
ATOM      3  O   UNL     1       0.173  -4.251   2.193  0.00  0.00    -0.278 OA
ATOM      4  H   UNL     1      -0.017  -4.651  -0.860  0.00  0.00    +0.155 HD
ENDROOT
BRANCH   1   9
ATOM      5  C   UNL     1       0.008   1.503   0.007  0.00  0.00    +0.044 C 
ATOM      6  C   UNL     1       0.022  -0.004  -0.001  0.00  0.00    -0.050 A 
ATOM      7  C   UNL     1       0.777  -0.692   0.931  0.00  0.00    +0.005 A 
ATOM      8  C   UNL     1       0.791  -2.073   0.927  0.00  0.00    +0.023 A 
ATOM      9  C   UNL     1       0.046  -2.771  -0.014  0.00  0.00    +0.033 A 
ATOM     10  C   UNL     1      -0.712  -2.077  -0.948  0.00  0.00    +0.023 A 
ATOM     11  C   UNL     1      -0.726  -0.696  -0.936  0.00  0.00    +0.005 A 
ENDBRANCH   1   9
BRANCH   2  12
ATOM     12  C   UNL     1       0.309  -6.349   1.121  0.00  0.00    +0.016 C 
BRANCH  12  13
ATOM     13  N   UNL     1       0.420  -6.846   2.499  0.00  0.00    +0.388 N 
ATOM     14  H   UNL     1       1.233  -6.441   2.938  0.00  0.00    -0.085 HD
ATOM     15  H   UNL     1      -0.406  -6.588   3.018  0.00  0.00    -0.085 HD
BRANCH  13  16
ATOM     16  C   UNL     1       0.550  -8.309   2.483  0.00  0.00    -0.039 C 
BRANCH  16  17
ATOM     17  C   UNL     1       0.664  -8.819   3.897  0.00  0.00    -0.026 A 
ATOM     18  C   UNL     1      -0.319  -9.206   4.746  0.00  0.00    +0.010 A 
ATOM     19  C   UNL     1       0.023  -9.644   6.012  0.00  0.00    +0.023 A 
ATOM     20  C   UNL     1       1.332  -9.673   6.367  0.00  0.00    +0.055 A 
ATOM     21  S   UNL     1       2.129  -9.076   4.884  0.00  0.00    -0.088 S 
ATOM     22 BR   UNL     1       2.112 -10.212   8.003  0.00  0.00    -0.043 Br
ENDBRANCH  16  17
ENDBRANCH  13  16
ENDBRANCH  12  13
ENDBRANCH   2  12
TORSDOF 5
