REMARK  Name = ZINC67502156
REMARK  11 active torsions:
REMARK  status: ('A' for Active; 'I' for Inactive)
REMARK    1  A    between atoms: C_1  and  C_2
REMARK    2  A    between atoms: C_2  and  O_3
REMARK    3  A    between atoms: O_3  and  C_4
REMARK    4  A    between atoms: C_6  and  C_18
REMARK    5  A    between atoms: C_9  and  O_10
REMARK    6  A    between atoms: O_10  and  C_11
REMARK    7  A    between atoms: C_11  and  C_12
REMARK    8  A    between atoms: C_18  and  N_19
REMARK    9  A    between atoms: N_19  and  C_20
REMARK   10  A    between atoms: N_25  and  C_27
REMARK   11  A    between atoms: C_27  and  C_28
REMARK                            x       y       z     vdW  Elec       q    Type
REMARK                         _______ _______ _______ _____ _____    ______ ____
ROOT
ATOM      1  C   UNL     1       0.802  -1.825   1.306  0.00  0.00    +0.162 A 
ATOM      2  C   UNL     1       0.261  -2.673   0.353  0.00  0.00    +0.051 A 
ATOM      3  C   UNL     1       0.372  -4.043   0.502  0.00  0.00    -0.061 A 
ATOM      4  C   UNL     1       1.024  -4.570   1.602  0.00  0.00    +0.005 A 
ATOM      5  C   UNL     1       1.566  -3.730   2.557  0.00  0.00    +0.049 A 
ATOM      6  C   UNL     1       1.462  -2.356   2.410  0.00  0.00    +0.162 A 
ENDROOT
BRANCH   1   7
ATOM      7  O   UNL     1       0.693  -0.477   1.160  0.00  0.00    -0.489 OA
BRANCH   7   9
ATOM      8  C   UNL     1      -0.019   1.526   0.010  0.00  0.00    +0.048 C 
ATOM      9  C   UNL     1       0.002  -0.004   0.002  0.00  0.00    +0.226 C 
ENDBRANCH   7   9
ENDBRANCH   1   7
BRANCH   6  10
ATOM     10  O   UNL     1       2.000  -1.528   3.345  0.00  0.00    -0.484 OA
BRANCH  10  11
ATOM     11  C   UNL     1       2.664  -2.143   4.451  0.00  0.00    +0.264 C 
BRANCH  11  12
ATOM     12  C   UNL     1       3.191  -1.077   5.376  0.00  0.00    -0.010 A 
ATOM     13  C   UNL     1       4.462  -0.566   5.189  0.00  0.00    +0.007 A 
ATOM     14  C   UNL     1       4.947   0.412   6.037  0.00  0.00    +0.000 A 
ATOM     15  C   UNL     1       4.160   0.879   7.073  0.00  0.00    +0.000 A 
ATOM     16  C   UNL     1       2.888   0.370   7.260  0.00  0.00    +0.000 A 
ATOM     17  C   UNL     1       2.403  -0.605   6.409  0.00  0.00    +0.007 A 
ENDBRANCH  11  12
ENDBRANCH  10  11
ENDBRANCH   6  10
BRANCH   3  18
ATOM     18  C   UNL     1      -0.217  -4.963  -0.535  0.00  0.00    -0.046 C 
BRANCH  18  19
ATOM     19  N   UNL     1       0.787  -5.241  -1.571  0.00  0.00    +0.384 N 
ATOM     20  H   UNL     1       1.067  -4.376  -2.008  0.00  0.00    -0.085 HD
ATOM     21  H   UNL     1       1.592  -5.680  -1.149  0.00  0.00    -0.085 HD
BRANCH  19  22
ATOM     22  C   UNL     1       0.213  -6.138  -2.582  0.00  0.00    -0.057 C 
ATOM     23  C   UNL     1      -0.095  -7.496  -1.945  0.00  0.00    -0.013 C 
ATOM     24  C   UNL     1      -0.637  -8.443  -3.019  0.00  0.00    +0.014 C 
ATOM     25  C   UNL     1       0.389  -8.569  -4.146  0.00  0.00    +0.085 C 
ATOM     26  N   UNL     1       0.649  -7.244  -4.723  0.00  0.00    -0.296 NA
ATOM     27  C   UNL     1       1.214  -6.330  -3.723  0.00  0.00    +0.069 C 
BRANCH  26  28
ATOM     28  C   UNL     1       1.525  -7.344  -5.899  0.00  0.00    +0.180 C 
BRANCH  28  29
ATOM     29  C   UNL     1       0.805  -8.080  -7.000  0.00  0.00    +0.225 C 
ATOM     30  O   UNL     1      -0.326  -8.481  -6.823  0.00  0.00    -0.275 OA
ATOM     31  N   UNL     1       1.418  -8.292  -8.181  0.00  0.00    -0.328 N 
ATOM     32  H   UNL     1       2.323  -7.971  -8.323  0.00  0.00    +0.145 HD
ATOM     33  H   UNL     1       0.955  -8.765  -8.890  0.00  0.00    +0.145 HD
ENDBRANCH  28  29
ENDBRANCH  26  28
ENDBRANCH  19  22
ENDBRANCH  18  19
ENDBRANCH   3  18
TORSDOF 10
