REMARK  Name = ZINC66977948
REMARK  7 active torsions:
REMARK  status: ('A' for Active; 'I' for Inactive)
REMARK    1  A    between atoms: C_1  and  N_2
REMARK    2  A    between atoms: C_6  and  C_7
REMARK    3  A    between atoms: C_7  and  C_8
REMARK    4  A    between atoms: C_8  and  N_9
REMARK    5  A    between atoms: N_12  and  C_13
REMARK    6  A    between atoms: C_13  and  C_14
REMARK    7  A    between atoms: C_14  and  O_24
REMARK                            x       y       z     vdW  Elec       q    Type
REMARK                         _______ _______ _______ _____ _____    ______ ____
ROOT
ATOM      1  N   UNL     1       1.446  -0.354   4.636  0.00  0.00    -0.299 N 
ATOM      2  C   UNL     1       2.622  -0.097   5.243  0.00  0.00    +0.300 C 
ATOM      3  O   UNL     1       3.664  -0.433   4.716  0.00  0.00    -0.253 OA
ATOM      4  N   UNL     1       2.641   0.532   6.435  0.00  0.00    -0.296 N 
ATOM      5  H   UNL     1       0.614  -0.086   5.057  0.00  0.00    +0.150 HD
ATOM      6  H   UNL     1       1.810   0.800   6.856  0.00  0.00    +0.150 HD
ENDROOT
BRANCH   1   7
ATOM      7  C   UNL     1       1.425  -1.038   3.341  0.00  0.00    +0.113 C 
BRANCH   7   8
ATOM      8  C   UNL     1      -0.024  -1.205   2.876  0.00  0.00    +0.091 C 
BRANCH   8  14
ATOM      9  C   UNL     1      -0.147   0.136   0.086  0.00  0.00    +0.150 C 
ATOM     10  N   UNL     1      -0.100  -1.307   0.336  0.00  0.00    -0.339 N 
ATOM     11  C   UNL     1      -0.097  -2.296  -0.610  0.00  0.00    +0.104 A 
ATOM     12  C   UNL     1      -0.046  -3.468   0.051  0.00  0.00    +0.101 A 
ATOM     13  N   UNL     1      -0.019  -3.201   1.366  0.00  0.00    -0.350 N 
ATOM     14  C   UNL     1      -0.045  -1.909   1.544  0.00  0.00    +0.088 A 
ATOM     15  H   UNL     1       0.019  -3.865   2.072  0.00  0.00    +0.166 HD
ENDBRANCH   8  14
ENDBRANCH   7   8
ENDBRANCH   1   7
BRANCH   4  16
ATOM     16  C   UNL     1       3.919   0.811   7.095  0.00  0.00    +0.145 C 
BRANCH  16  17
ATOM     17  C   UNL     1       3.659   1.405   8.481  0.00  0.00    +0.107 C 
ATOM     18  C   UNL     1       2.804   0.432   9.292  0.00  0.00    +0.041 C 
ATOM     19  C   UNL     1       2.737   0.938  10.738  0.00  0.00    +0.008 C 
ATOM     20  C   UNL     1       4.115   0.762  11.374  0.00  0.00    +0.035 C 
ATOM     21  C   UNL     1       5.183   1.363  10.499  0.00  0.00    -0.041 A 
ATOM     22  C   UNL     1       4.975   1.655   9.169  0.00  0.00    -0.011 A 
ATOM     23  C   UNL     1       6.005   2.203   8.416  0.00  0.00    +0.007 A 
ATOM     24  C   UNL     1       7.233   2.461   8.990  0.00  0.00    +0.000 A 
ATOM     25  C   UNL     1       7.440   2.172  10.325  0.00  0.00    +0.000 A 
ATOM     26  C   UNL     1       6.419   1.625  11.075  0.00  0.00    +0.004 A 
BRANCH  17  27
ATOM     27  O   UNL     1       2.958   2.642   8.339  0.00  0.00    -0.382 OA
ATOM     28  H   UNL     1       3.436   3.308   7.827  0.00  0.00    +0.211 HD
ENDBRANCH  17  27
ENDBRANCH  16  17
ENDBRANCH   4  16
TORSDOF 6
