REMARK  Name = ZINC26198722
REMARK  12 active torsions:
REMARK  status: ('A' for Active; 'I' for Inactive)
REMARK    1  A    between atoms: C_1  and  C_2
REMARK    2  A    between atoms: C_7  and  C_8
REMARK    3  A    between atoms: C_8  and  N_9
REMARK    4  A    between atoms: N_9  and  C_10
REMARK    5  A    between atoms: N_9  and  C_11
REMARK    6  A    between atoms: C_11  and  C_13
REMARK    7  A    between atoms: C_11  and  C_14
REMARK    8  A    between atoms: N_16  and  C_17
REMARK    9  A    between atoms: C_17  and  C_19
REMARK   10  A    between atoms: C_17  and  C_20
REMARK   11  A    between atoms: C_23  and  S_26
REMARK   12  A    between atoms: S_26  and  N_29
REMARK                            x       y       z     vdW  Elec       q    Type
REMARK                         _______ _______ _______ _____ _____    ______ ____
ROOT
ATOM      1  C   UNL     1       2.040   2.151   1.156  0.00  0.00    +0.200 C 
ATOM      2  O   UNL     1       1.531   1.802   2.200  0.00  0.00    -0.278 OA
ATOM      3  N   UNL     1       1.345   2.062   0.005  0.00  0.00    -0.310 N 
ATOM      4  H   UNL     1       1.806   2.380  -0.942  0.00  0.00    +0.149 HD
ENDROOT
BRANCH   1   5
ATOM      5  C   UNL     1       3.449   2.686   1.146  0.00  0.00    +0.016 C 
ATOM      6  C   UNL     1       4.361   1.705   0.407  0.00  0.00    -0.004 C 
BRANCH   5   7
ATOM      7  N   UNL     1       3.921   2.848   2.528  0.00  0.00    +0.388 N 
ATOM      8  C   UNL     1       3.986   1.553   3.217  0.00  0.00    -0.095 C 
ATOM      9  H   UNL     1       4.939   3.263   2.491  0.00  0.00    -0.081 HD
BRANCH   7  10
ATOM     10  C   UNL     1       3.074   3.795   3.265  0.00  0.00    -0.042 C 
BRANCH  10  17
ATOM     11  C   UNL     1       5.216   5.731   3.382  0.00  0.00    +0.044 C 
ATOM     12  C   UNL     1       4.746   5.050   4.642  0.00  0.00    -0.049 A 
ATOM     13  C   UNL     1       5.339   5.352   5.854  0.00  0.00    +0.003 A 
ATOM     14  C   UNL     1       4.907   4.728   7.009  0.00  0.00    +0.000 A 
ATOM     15  C   UNL     1       3.882   3.802   6.953  0.00  0.00    +0.000 A 
ATOM     16  C   UNL     1       3.286   3.504   5.743  0.00  0.00    +0.002 A 
ATOM     17  C   UNL     1       3.721   4.124   4.586  0.00  0.00    -0.061 A 
ENDBRANCH  10  17
ENDBRANCH   7  10
ENDBRANCH   5   7
ENDBRANCH   1   5
BRANCH   3  18
ATOM     18  C   UNL     1      -0.025   1.543   0.014  0.00  0.00    +0.100 C 
ATOM     19  C   UNL     1       0.009   0.015  -0.059  0.00  0.00    +0.033 C 
BRANCH  18  20
ATOM     20  C   UNL     1      -0.776   2.086  -1.174  0.00  0.00    -0.027 A 
ATOM     21  C   UNL     1      -0.145   2.198  -2.399  0.00  0.00    +0.007 A 
ATOM     22  C   UNL     1      -0.836   2.692  -3.489  0.00  0.00    +0.029 A 
ATOM     23  C   UNL     1      -2.155   3.083  -3.353  0.00  0.00    +0.105 A 
ATOM     24  C   UNL     1      -2.784   2.976  -2.127  0.00  0.00    +0.029 A 
ATOM     25  C   UNL     1      -2.095   2.478  -1.037  0.00  0.00    +0.007 A 
BRANCH  23  26
ATOM     26  S   UNL     1      -3.033   3.720  -4.741  0.00  0.00    +0.056 S 
ATOM     27  O   UNL     1      -2.388   3.209  -5.899  0.00  0.00    -0.153 OA
ATOM     28  O   UNL     1      -4.414   3.505  -4.482  0.00  0.00    -0.153 OA
BRANCH  26  29
ATOM     29  N   UNL     1      -2.804   5.360  -4.756  0.00  0.00    -0.204 NA
ATOM     30  H   UNL     1      -3.339   5.797  -5.612  0.00  0.00    +0.144 HD
ATOM     31  H   UNL     1      -1.730   5.579  -4.844  0.00  0.00    +0.144 HD
ENDBRANCH  26  29
ENDBRANCH  23  26
ENDBRANCH  18  20
ENDBRANCH   3  18
TORSDOF 8
