REMARK  Name = ZINC37946537
REMARK  4 active torsions:
REMARK  status: ('A' for Active; 'I' for Inactive)
REMARK    1  A    between atoms: C_7  and  C_11
REMARK    2  A    between atoms: C_7  and  N_14
REMARK    3  A    between atoms: N_14  and  C_15
REMARK    4  A    between atoms: C_15  and  C_16
REMARK                            x       y       z     vdW  Elec       q    Type
REMARK                         _______ _______ _______ _____ _____    ______ ____
ROOT
ATOM      1  C   UNL     1      -0.107   1.204  -0.479  0.00  0.00    +0.000 A 
ATOM      2  C   UNL     1       1.076   1.867  -0.754  0.00  0.00    +0.001 A 
ATOM      3  C   UNL     1       2.259   1.160  -0.786  0.00  0.00    +0.015 A 
ATOM      4  C   UNL     1       2.271  -0.213  -0.539  0.00  0.00    +0.010 A 
ATOM      5  C   UNL     1       1.093  -0.876  -0.251  0.00  0.00    -0.036 A 
ATOM      6  C   UNL     1      -0.097  -0.152  -0.232  0.00  0.00    +0.004 A 
ATOM      7  C   UNL     1       0.995  -2.337   0.073  0.00  0.00    +0.038 C 
ATOM      8  C   UNL     1       2.139  -3.165  -0.485  0.00  0.00    +0.012 C 
ATOM      9  C   UNL     1       3.460  -2.672   0.124  0.00  0.00    +0.074 C 
ATOM     10  S   UNL     1       3.821  -1.053  -0.619  0.00  0.00    -0.125 S 
ENDROOT
BRANCH   7  11
ATOM     11  C   UNL     1       0.971  -2.498   1.572  0.00  0.00    +0.204 C 
ATOM     12  O   UNL     1       1.430  -1.629   2.282  0.00  0.00    -0.277 OA
ATOM     13  N   UNL     1       0.438  -3.607   2.122  0.00  0.00    -0.330 N 
ATOM     14  H   UNL     1       0.133  -4.332   1.554  0.00  0.00    +0.145 HD
ATOM     15  H   UNL     1       0.360  -3.680   3.086  0.00  0.00    +0.145 HD
ENDBRANCH   7  11
BRANCH   7  16
ATOM     16  N   UNL     1      -0.268  -2.855  -0.471  0.00  0.00    +0.394 N 
ATOM     17  H   UNL     1      -0.351  -3.836  -0.251  0.00  0.00    -0.083 HD
ATOM     18  H   UNL     1      -1.041  -2.352  -0.063  0.00  0.00    -0.083 HD
BRANCH  16  19
ATOM     19  C   UNL     1      -0.282  -2.677  -1.929  0.00  0.00    -0.037 C 
BRANCH  19  20
ATOM     20  C   UNL     1      -1.541  -3.280  -2.496  0.00  0.00    -0.027 A 
ATOM     21  C   UNL     1      -2.747  -2.699  -2.705  0.00  0.00    +0.009 A 
ATOM     22  C   UNL     1      -3.772  -3.454  -3.244  0.00  0.00    +0.008 A 
ATOM     23  C   UNL     1      -3.540  -4.755  -3.547  0.00  0.00    +0.045 A 
ATOM     24  S   UNL     1      -1.829  -4.945  -3.075  0.00  0.00    -0.104 S 
ENDBRANCH  19  20
ENDBRANCH  16  19
ENDBRANCH   7  16
TORSDOF 4
