REMARK  Name = ZINC35197098
REMARK  5 active torsions:
REMARK  status: ('A' for Active; 'I' for Inactive)
REMARK    1  A    between atoms: C_1  and  C_2
REMARK    2  A    between atoms: C_8  and  C_10
REMARK    3  A    between atoms: C_16  and  C_18
REMARK    4  A    between atoms: C_19  and  C_20
REMARK    5  A    between atoms: C_19  and  C_21
REMARK                            x       y       z     vdW  Elec       q    Type
REMARK                         _______ _______ _______ _____ _____    ______ ____
ROOT
ATOM      1  C   UNL     1       0.862  -4.799   3.357  0.00  0.00    +0.173 C 
ATOM      2  C   UNL     1       1.449  -3.646   4.209  0.00  0.00    +0.102 C 
ATOM      3  S   UNL     1       0.026  -3.331   5.345  0.00  0.00    -0.139 S 
ATOM      4  C   UNL     1      -0.630  -5.058   5.339  0.00  0.00    +0.178 C 
ATOM      5  N   UNL     1      -0.241  -5.505   3.987  0.00  0.00    -0.276 N 
ATOM      6  C   UNL     1      -0.877  -6.521   3.371  0.00  0.00    +0.241 C 
ATOM      7  O   UNL     1      -0.531  -6.868   2.257  0.00  0.00    -0.271 OA
ENDROOT
BRANCH   1  15
ATOM      8  C   UNL     1       3.053   0.093   0.077  0.00  0.00    +0.007 C 
ATOM      9  C   UNL     1       2.663  -1.384   0.161  0.00  0.00    -0.011 C 
ATOM     10  C   UNL     1       1.160  -1.530  -0.089  0.00  0.00    +0.022 C 
ATOM     11  C   UNL     1       0.780  -3.013  -0.038  0.00  0.00    +0.108 C 
ATOM     12  N   UNL     1       1.236  -3.575   1.240  0.00  0.00    -0.300 N 
ATOM     13  C   UNL     1       2.646  -3.411   1.621  0.00  0.00    +0.108 C 
ATOM     14  C   UNL     1       3.006  -1.923   1.552  0.00  0.00    +0.022 C 
ATOM     15  C   UNL     1       0.378  -4.228   2.049  0.00  0.00    +0.237 C 
ATOM     16  O   UNL     1      -0.783  -4.356   1.724  0.00  0.00    -0.274 OA
ENDBRANCH   1  15
BRANCH   6  17
ATOM     17  C   UNL     1      -1.988  -7.210   4.044  0.00  0.00    +0.066 C 
ATOM     18  C   UNL     1      -2.696  -8.127   3.391  0.00  0.00    -0.071 C 
ATOM     19  C   UNL     1      -2.463  -8.350   1.919  0.00  0.00    +0.039 C 
ATOM     20  C   UNL     1      -3.732  -8.942   4.122  0.00  0.00    +0.039 C 
ENDBRANCH   6  17
TORSDOF 2
