REMARK  Name = ZINC17449685
REMARK  4 active torsions:
REMARK  status: ('A' for Active; 'I' for Inactive)
REMARK    1  A    between atoms: C_6  and  N_7
REMARK    2  A    between atoms: N_7  and  C_8
REMARK    3  A    between atoms: C_8  and  N_10
REMARK    4  A    between atoms: N_10  and  C_11
REMARK                            x       y       z     vdW  Elec       q    Type
REMARK                         _______ _______ _______ _____ _____    ______ ____
ROOT
ATOM      1  N   UNL     1      -1.198  -0.727   0.421  0.00  0.00    -0.297 N 
ATOM      2  H   UNL     1      -1.156  -1.636   0.087  0.00  0.00    +0.154 HD
ENDROOT
BRANCH   1   8
ATOM      3  C   UNL     1       0.916  -0.719   1.589  0.00  0.00    +0.027 A 
ATOM      4  C   UNL     1       2.074  -0.067   1.968  0.00  0.00    +0.051 A 
ATOM      5  C   UNL     1       2.301   1.241   1.566  0.00  0.00    +0.162 A 
ATOM      6  C   UNL     1       1.362   1.897   0.777  0.00  0.00    +0.164 A 
ATOM      7  C   UNL     1       0.200   1.242   0.398  0.00  0.00    +0.072 A 
ATOM      8  C   UNL     1      -0.024  -0.066   0.804  0.00  0.00    +0.036 A 
ATOM      9  O   UNL     1       1.571   3.177   0.366  0.00  0.00    -0.485 OA
ATOM     10  C   UNL     1       2.567   3.926   1.072  0.00  0.00    +0.270 C 
ATOM     11  C   UNL     1       3.814   3.043   1.222  0.00  0.00    +0.270 C 
ATOM     12  O   UNL     1       3.446   1.869   1.953  0.00  0.00    -0.485 OA
ENDBRANCH   1   8
BRANCH   1  13
ATOM     13  C   UNL     1      -2.387  -0.099   0.518  0.00  0.00    +0.139 C 
ATOM     14  S   UNL     1      -2.452   1.541   1.005  0.00  0.00    -0.018 S 
BRANCH  13  15
ATOM     15  N   UNL     1      -3.525  -0.762   0.231  0.00  0.00    -0.297 N 
ATOM     16  H   UNL     1      -3.494  -1.708   0.015  0.00  0.00    +0.154 HD
BRANCH  15  17
ATOM     17  C   UNL     1      -4.751  -0.087   0.245  0.00  0.00    +0.035 A 
ATOM     18  C   UNL     1      -5.661  -0.278  -0.787  0.00  0.00    +0.026 A 
ATOM     19  C   UNL     1      -6.871   0.388  -0.772  0.00  0.00    +0.043 A 
ATOM     20  C   UNL     1      -7.178   1.246   0.271  0.00  0.00    +0.159 A 
ATOM     21  C   UNL     1      -6.271   1.438   1.302  0.00  0.00    +0.160 A 
ATOM     22  C   UNL     1      -5.061   0.768   1.293  0.00  0.00    +0.064 A 
ATOM     23  F   UNL     1      -6.572   2.276   2.319  0.00  0.00    -0.202 F 
ATOM     24  F   UNL     1      -8.362   1.897   0.283  0.00  0.00    -0.202 F 
ENDBRANCH  15  17
ENDBRANCH  13  15
ENDBRANCH   1  13
TORSDOF 4
