REMARK  Name = ZINC40381595
REMARK  5 active torsions:
REMARK  status: ('A' for Active; 'I' for Inactive)
REMARK    1  A    between atoms: C_3  and  C_6
REMARK    2  A    between atoms: C_7  and  C_8
REMARK    3  A    between atoms: N_10  and  C_11
REMARK    4  A    between atoms: C_13  and  S_18
REMARK    5  A    between atoms: S_18  and  N_21
REMARK                            x       y       z     vdW  Elec       q    Type
REMARK                         _______ _______ _______ _____ _____    ______ ____
ROOT
ATOM      1  C   UNL     1       8.348   0.533  -0.166  0.00  0.00    +0.071 A 
ATOM      2  C   UNL     1       8.730   1.868  -0.152  0.00  0.00    +0.054 A 
ATOM      3  C   UNL     1      10.066   2.204  -0.252  0.00  0.00    +0.107 A 
ATOM      4  C   UNL     1      11.024   1.214  -0.368  0.00  0.00    +0.031 A 
ATOM      5  C   UNL     1      10.649  -0.117  -0.383  0.00  0.00    +0.042 A 
ATOM      6  C   UNL     1       9.314  -0.461  -0.277  0.00  0.00    +0.145 A 
ATOM      7  F   UNL     1       8.948  -1.762  -0.286  0.00  0.00    -0.204 F 
ENDROOT
BRANCH   1  10
ATOM      8  C   UNL     1       6.056   0.977  -0.624  0.00  0.00    +0.241 C 
ATOM      9  O   UNL     1       6.377   2.029  -1.148  0.00  0.00    -0.270 OA
ATOM     10  N   UNL     1       6.996   0.190  -0.064  0.00  0.00    -0.280 N 
ATOM     11  H   UNL     1       6.734  -0.616   0.409  0.00  0.00    +0.155 HD
BRANCH   8  13
ATOM     12  C   UNL     1       3.752   1.375  -1.167  0.00  0.00    +0.020 C 
ATOM     13  C   UNL     1       4.698   0.582  -0.603  0.00  0.00    +0.068 C 
BRANCH  12  16
ATOM     14  C   UNL     1       0.078   0.997  -1.485  0.00  0.00    +0.008 A 
ATOM     15  C   UNL     1       1.281   1.637  -1.660  0.00  0.00    +0.015 A 
ATOM     16  C   UNL     1       2.393   0.979  -1.146  0.00  0.00    +0.012 A 
ATOM     17  S   UNL     1       1.661  -0.492  -0.455  0.00  0.00    -0.097 S 
ATOM     18  C   UNL     1       0.053  -0.198  -0.843  0.00  0.00    +0.046 A 
ENDBRANCH  12  16
ENDBRANCH   8  13
ENDBRANCH   1  10
BRANCH   3  19
ATOM     19  S   UNL     1      10.550   3.898  -0.234  0.00  0.00    +0.056 S 
ATOM     20  O   UNL     1      11.809   3.968  -0.890  0.00  0.00    -0.153 OA
ATOM     21  O   UNL     1       9.423   4.648  -0.666  0.00  0.00    -0.153 OA
BRANCH  19  22
ATOM     22  N   UNL     1      10.817   4.314   1.347  0.00  0.00    -0.204 NA
ATOM     23  H   UNL     1      11.471   4.997   1.565  0.00  0.00    +0.144 HD
ATOM     24  H   UNL     1      10.320   3.875   2.054  0.00  0.00    +0.144 HD
ENDBRANCH  19  22
ENDBRANCH   3  19
TORSDOF 5
