REMARK  Name = ZINC36629278
REMARK  6 active torsions:
REMARK  status: ('A' for Active; 'I' for Inactive)
REMARK    1  A    between atoms: C_1  and  N_2
REMARK    2  A    between atoms: C_8  and  N_13
REMARK    3  A    between atoms: C_9  and  C_10
REMARK    4  A    between atoms: C_14  and  C_16
REMARK    5  A    between atoms: C_21  and  O_22
REMARK    6  A    between atoms: O_22  and  C_23
REMARK                            x       y       z     vdW  Elec       q    Type
REMARK                         _______ _______ _______ _____ _____    ______ ____
ROOT
ATOM      1  C   UNL     1      -0.018   1.465   0.010  0.00  0.00    -0.096 C 
ATOM      2  N   UNL     1       0.002  -0.004   0.002  0.00  0.00    +0.381 N 
ATOM      3  C   UNL     1      -1.376  -0.512   0.008  0.00  0.00    -0.074 C 
ATOM      4  C   UNL     1      -1.389  -2.010  -0.313  0.00  0.00    +0.018 C 
ATOM      5  C   UNL     1      -0.409  -2.698   0.626  0.00  0.00    -0.027 A 
ATOM      6  C   UNL     1       0.522  -1.973   1.288  0.00  0.00    -0.021 A 
ATOM      7  S   UNL     1       1.417  -3.159   2.244  0.00  0.00    -0.079 S 
ATOM      8  C   UNL     1       0.606  -4.560   1.794  0.00  0.00    +0.085 A 
ATOM      9  C   UNL     1      -0.363  -4.120   0.903  0.00  0.00    +0.068 A 
ATOM     10  C   UNL     1       0.715  -0.492   1.197  0.00  0.00    -0.036 C 
ATOM     11  H   UNL     1       0.475  -0.329  -0.828  0.00  0.00    -0.082 HD
ENDROOT
BRANCH   9  12
ATOM     12  C   UNL     1      -1.300  -5.053   0.269  0.00  0.00    +0.244 C 
ATOM     13  O   UNL     1      -1.014  -5.574  -0.794  0.00  0.00    -0.270 OA
ATOM     14  N   UNL     1      -2.476  -5.334   0.862  0.00  0.00    -0.325 N 
ATOM     15  H   UNL     1      -2.704  -4.919   1.709  0.00  0.00    +0.145 HD
ATOM     16  H   UNL     1      -3.096  -5.951   0.443  0.00  0.00    +0.145 HD
ENDBRANCH   9  12
BRANCH   8  17
ATOM     17  N   UNL     1       0.848  -5.857   2.215  0.00  0.00    -0.275 N 
ATOM     18  C   UNL     1       1.840  -6.106   3.094  0.00  0.00    +0.252 C 
ATOM     19  O   UNL     1       2.521  -5.192   3.516  0.00  0.00    -0.270 OA
ATOM     20  H   UNL     1       0.305  -6.587   1.878  0.00  0.00    +0.156 HD
BRANCH  18  21
ATOM     21  C   UNL     1       2.098  -7.487   3.543  0.00  0.00    +0.080 A 
ATOM     22  C   UNL     1       1.321  -8.541   3.055  0.00  0.00    +0.036 A 
ATOM     23  C   UNL     1       1.568  -9.830   3.479  0.00  0.00    +0.042 A 
ATOM     24  C   UNL     1       2.584 -10.084   4.387  0.00  0.00    +0.023 A 
ATOM     25  C   UNL     1       3.358  -9.051   4.877  0.00  0.00    +0.048 A 
ATOM     26  C   UNL     1       3.128  -7.750   4.456  0.00  0.00    +0.132 A 
ATOM     27 CL   UNL     1       0.602 -11.139   2.873  0.00  0.00    -0.084 Cl
BRANCH  26  28
ATOM     28  O   UNL     1       3.892  -6.735   4.932  0.00  0.00    -0.494 OA
ATOM     29  C   UNL     1       4.923  -7.079   5.860  0.00  0.00    +0.277 C 
ENDBRANCH  26  28
ENDBRANCH  18  21
ENDBRANCH   8  17
TORSDOF 4
