REMARK  Name = ZINC13063286
REMARK  14 active torsions:
REMARK  status: ('A' for Active; 'I' for Inactive)
REMARK    1  A    between atoms: C_1  and  C_2
REMARK    2  A    between atoms: C_2  and  C_3
REMARK    3  A    between atoms: C_3  and  C_4
REMARK    4  A    between atoms: C_4  and  N_5
REMARK    5  A    between atoms: N_5  and  C_6
REMARK    6  A    between atoms: C_7  and  N_19
REMARK    7  A    between atoms: N_8  and  C_15
REMARK    8  A    between atoms: C_15  and  C_16
REMARK    9  A    between atoms: C_16  and  C_17
REMARK   10  A    between atoms: C_16  and  C_18
REMARK   11  A    between atoms: C_20  and  C_22
REMARK   12  A    between atoms: C_22  and  N_66
REMARK   13  A    between atoms: C_24  and  C_31
REMARK   14  A    between atoms: C_27  and  C_30
REMARK                            x       y       z     vdW  Elec       q    Type
REMARK                         _______ _______ _______ _____ _____    ______ ____
ROOT
ATOM      1  N   UNL     1      -0.148   1.448   4.826  0.00  0.00    -0.266 N 
ATOM      2  C   UNL     1      -0.849   1.565   3.679  0.00  0.00    +0.203 C 
ATOM      3  O   UNL     1      -1.811   2.302   3.628  0.00  0.00    -0.277 OA
ENDROOT
BRANCH   1   4
ATOM      4  C   UNL     1      -0.597   2.095   5.996  0.00  0.00    +0.140 A 
ATOM      5  C   UNL     1      -0.671   3.472   6.051  0.00  0.00    +0.127 A 
ATOM      6  N   UNL     1      -1.113   4.075   7.206  0.00  0.00    -0.280 N 
ATOM      7  C   UNL     1      -1.468   3.331   8.269  0.00  0.00    +0.331 A 
ATOM      8  O   UNL     1      -1.856   3.883   9.281  0.00  0.00    -0.246 OA
ATOM      9  N   UNL     1      -1.402   1.988   8.234  0.00  0.00    -0.273 N 
ATOM     10  H   UNL     1      -1.668   1.459   9.039  0.00  0.00    +0.173 HD
ATOM     11  C   UNL     1      -0.981   1.348   7.125  0.00  0.00    +0.277 A 
ATOM     12  O   UNL     1      -0.930   0.130   7.102  0.00  0.00    -0.266 OA
BRANCH   5  13
ATOM     13  N   UNL     1      -0.309   4.232   4.965  0.00  0.00    -0.343 N 
ATOM     14  H   UNL     1      -0.038   3.800   4.140  0.00  0.00    +0.144 HD
ATOM     15  H   UNL     1      -0.325   5.200   5.024  0.00  0.00    +0.144 HD
ENDBRANCH   5  13
BRANCH   6  16
ATOM     16  C   UNL     1      -1.197   5.536   7.279  0.00  0.00    +0.131 C 
BRANCH  16  17
ATOM     17  C   UNL     1      -2.582   5.991   6.814  0.00  0.00    +0.003 C 
ATOM     18  C   UNL     1      -3.642   5.475   7.788  0.00  0.00    +0.009 C 
ATOM     19  C   UNL     1      -2.629   7.519   6.771  0.00  0.00    +0.009 C 
ENDBRANCH  16  17
ENDBRANCH   6  16
ENDBRANCH   1   4
BRANCH   1  20
ATOM     20  C   UNL     1       1.079   0.647   4.856  0.00  0.00    +0.114 C 
BRANCH  20  21
ATOM     21  C   UNL     1       2.260   1.508   4.403  0.00  0.00    +0.019 C 
BRANCH  21  23
ATOM     22  C   UNL     1       4.723   1.533   3.982  0.00  0.00    +0.004 C 
ATOM     23  C   UNL     1       3.541   0.672   4.435  0.00  0.00    -0.002 C 
ENDBRANCH  21  23
ENDBRANCH  20  21
ENDBRANCH   1  20
BRANCH   2  24
ATOM     24  C   UNL     1      -0.437   0.780   2.460  0.00  0.00    +0.019 C 
BRANCH  24  32
ATOM     25  C   UNL     1      -0.798   0.576   0.075  0.00  0.00    -0.075 C 
ATOM     26  C   UNL     1      -1.654   1.076  -1.091  0.00  0.00    -0.031 C 
ATOM     27  C   UNL     1      -3.105   0.635  -0.878  0.00  0.00    +0.003 C 
ATOM     28  C   UNL     1      -3.604   1.180   0.463  0.00  0.00    -0.031 C 
ATOM     29  C   UNL     1      -2.691   0.677   1.584  0.00  0.00    -0.075 C 
ATOM     30  C   UNL     1      -5.033   0.695   0.712  0.00  0.00    +0.005 C 
ATOM     31  C   UNL     1      -1.128   0.486  -2.401  0.00  0.00    +0.005 C 
ATOM     32  N   UNL     1      -1.315   1.155   1.333  0.00  0.00    +0.386 N 
ATOM     33  H   UNL     1      -1.328   2.179   1.247  0.00  0.00    -0.081 HD
ENDBRANCH  24  32
ENDBRANCH   2  24
TORSDOF 9
