REMARK  Name = ZINC22010670
REMARK  14 active torsions:
REMARK  status: ('A' for Active; 'I' for Inactive)
REMARK    1  A    between atoms: C_1  and  C_2
REMARK    2  A    between atoms: C_8  and  N_10
REMARK    3  A    between atoms: N_13  and  C_18
REMARK    4  A    between atoms: C_14  and  C_17
REMARK    5  A    between atoms: C_18  and  C_20
REMARK    6  A    between atoms: C_18  and  C_23
REMARK    7  A    between atoms: C_20  and  O_21
REMARK    8  A    between atoms: O_21  and  C_22
REMARK    9  A    between atoms: C_26  and  C_29
REMARK   10  A    between atoms: C_33  and  O_35
REMARK   11  A    between atoms: O_35  and  C_36
REMARK   12  A    between atoms: C_36  and  C_37
REMARK   13  A    between atoms: C_36  and  C_38
REMARK   14  A    between atoms: C_36  and  C_39
REMARK                            x       y       z     vdW  Elec       q    Type
REMARK                         _______ _______ _______ _____ _____    ______ ____
ROOT
ATOM      1  N   UNL     1      -0.369   0.585   2.329  0.00  0.00    +0.384 N 
ATOM      2  C   UNL     1      -0.788   1.330   3.525  0.00  0.00    -0.063 C 
ATOM      3  C   UNL     1       0.120   0.958   4.699  0.00  0.00    +0.067 C 
ATOM      4  N   UNL     1       0.047  -0.491   4.931  0.00  0.00    -0.294 NA
ATOM      5  C   UNL     1       0.467  -1.236   3.736  0.00  0.00    +0.038 C 
ATOM      6  C   UNL     1      -0.442  -0.864   2.562  0.00  0.00    -0.060 C 
ATOM      7  C   UNL     1       0.362  -2.738   4.007  0.00  0.00    +0.022 C 
ATOM      8  H   UNL     1       0.680   0.843   2.119  0.00  0.00    -0.081 HD
ENDROOT
BRANCH   1  15
ATOM      9  C   UNL     1       0.381   2.873   0.687  0.00  0.00    +0.007 C 
ATOM     10  C   UNL     1      -1.075   2.485   0.953  0.00  0.00    -0.010 C 
ATOM     11  C   UNL     1      -1.938   2.889  -0.246  0.00  0.00    +0.112 C 
ATOM     12  N   UNL     1      -1.530   2.094  -1.412  0.00  0.00    -0.267 N 
ATOM     13  C   UNL     1      -1.500   0.629  -1.293  0.00  0.00    +0.109 C 
ATOM     14  C   UNL     1      -0.641   0.251  -0.082  0.00  0.00    +0.004 C 
ATOM     15  C   UNL     1      -1.170   0.972   1.160  0.00  0.00    -0.063 C 
ATOM     16  C   UNL     1      -1.190   2.696  -2.569  0.00  0.00    +0.403 C 
ATOM     17  O   UNL     1      -1.219   3.907  -2.654  0.00  0.00    -0.226 OA
BRANCH  16  18
ATOM     18  O   UNL     1      -0.818   1.954  -3.629  0.00  0.00    -0.445 OA
BRANCH  18  19
ATOM     19  C   UNL     1      -0.465   2.670  -4.842  0.00  0.00    +0.107 C 
ATOM     20  C   UNL     1       0.714   3.603  -4.559  0.00  0.00    +0.055 C 
ATOM     21  C   UNL     1      -0.071   1.668  -5.929  0.00  0.00    +0.055 C 
ATOM     22  C   UNL     1      -1.664   3.493  -5.316  0.00  0.00    +0.055 C 
ENDBRANCH  18  19
ENDBRANCH  16  18
ENDBRANCH   1  15
BRANCH   4  23
ATOM     23  C   UNL     1       0.849  -0.878   6.100  0.00  0.00    +0.113 C 
BRANCH  23  24
ATOM     24  C   UNL     1       0.359  -2.201   6.630  0.00  0.00    -0.028 A 
ATOM     25  C   UNL     1      -0.995  -2.480   6.647  0.00  0.00    +0.006 A 
ATOM     26  C   UNL     1      -1.444  -3.695   7.130  0.00  0.00    +0.013 A 
ATOM     27  C   UNL     1      -0.541  -4.628   7.603  0.00  0.00    +0.055 A 
ATOM     28  C   UNL     1       0.813  -4.346   7.591  0.00  0.00    +0.013 A 
ATOM     29  C   UNL     1       1.262  -3.133   7.104  0.00  0.00    +0.006 A 
BRANCH  27  30
ATOM     30  C   UNL     1      -1.031  -5.950   8.132  0.00  0.00    +0.417 C 
ATOM     31  F   UNL     1      -1.279  -5.840   9.505  0.00  0.00    -0.166 F 
ATOM     32  F   UNL     1      -2.211  -6.309   7.472  0.00  0.00    -0.166 F 
ATOM     33  F   UNL     1      -0.057  -6.931   7.912  0.00  0.00    -0.166 F 
ENDBRANCH  27  30
ENDBRANCH  23  24
BRANCH  23  34
ATOM     34  C   UNL     1       0.712   0.190   7.188  0.00  0.00    +0.183 C 
BRANCH  34  35
ATOM     35  O   UNL     1      -0.653   0.277   7.600  0.00  0.00    -0.381 OA
ATOM     36  C   UNL     1      -0.891   1.251   8.619  0.00  0.00    +0.194 C 
ENDBRANCH  34  35
ENDBRANCH  23  34
ENDBRANCH   4  23
TORSDOF 8
