REMARK  Name = ZINC59170454
REMARK  11 active torsions:
REMARK  status: ('A' for Active; 'I' for Inactive)
REMARK    1  A    between atoms: C_1  and  C_2
REMARK    2  A    between atoms: C_2  and  N_3
REMARK    3  A    between atoms: N_3  and  C_4
REMARK    4  A    between atoms: N_3  and  C_6
REMARK    5  A    between atoms: C_4  and  C_5
REMARK    6  A    between atoms: C_11  and  C_27
REMARK    7  A    between atoms: N_13  and  C_14
REMARK    8  A    between atoms: C_17  and  S_20
REMARK    9  A    between atoms: S_20  and  N_23
REMARK   10  A    between atoms: N_29  and  C_30
REMARK   11  A    between atoms: C_35  and  C_36
REMARK                            x       y       z     vdW  Elec       q    Type
REMARK                         _______ _______ _______ _____ _____    ______ ____
ROOT
ATOM      1  C   UNL     1       2.051  -0.691   1.223  0.00  0.00    +0.033 A 
ATOM      2  C   UNL     1       2.827   0.196   0.475  0.00  0.00    +0.024 A 
ATOM      3  C   UNL     1       4.180   0.237   0.639  0.00  0.00    +0.013 A 
ATOM      4  C   UNL     1       4.800  -0.623   1.558  0.00  0.00    +0.018 A 
ATOM      5  C   UNL     1       6.209  -0.614   1.710  0.00  0.00    +0.030 A 
ATOM      6  C   UNL     1       6.793  -1.613   2.478  0.00  0.00    +0.098 A 
ATOM      7  C   UNL     1       5.897  -2.635   3.054  0.00  0.00    +0.212 A 
ATOM      8  N   UNL     1       6.339  -3.839   3.349  0.00  0.00    -0.325 N 
ATOM      9  O   UNL     1       4.602  -2.289   3.269  0.00  0.00    -0.438 OA
ATOM     10  C   UNL     1       4.016  -1.498   2.337  0.00  0.00    +0.139 A 
ATOM     11  C   UNL     1       2.645  -1.530   2.158  0.00  0.00    +0.070 A 
ATOM     12  H   UNL     1       7.238  -4.101   3.098  0.00  0.00    +0.169 HD
ENDROOT
BRANCH   8  13
ATOM     13  C   UNL     1       5.529  -4.721   4.011  0.00  0.00    +0.042 A 
ATOM     14  C   UNL     1       4.780  -4.297   5.111  0.00  0.00    +0.027 A 
ATOM     15  C   UNL     1       3.966  -5.192   5.773  0.00  0.00    +0.030 A 
ATOM     16  C   UNL     1       3.890  -6.507   5.350  0.00  0.00    +0.105 A 
ATOM     17  C   UNL     1       4.629  -6.934   4.261  0.00  0.00    +0.030 A 
ATOM     18  C   UNL     1       5.443  -6.049   3.585  0.00  0.00    +0.027 A 
BRANCH  16  19
ATOM     19  S   UNL     1       2.848  -7.644   6.202  0.00  0.00    +0.056 S 
ATOM     20  O   UNL     1       3.369  -8.941   5.949  0.00  0.00    -0.153 OA
ATOM     21  O   UNL     1       2.681  -7.133   7.518  0.00  0.00    -0.153 OA
BRANCH  19  22
ATOM     22  N   UNL     1       1.360  -7.581   5.479  0.00  0.00    -0.204 NA
ATOM     23  H   UNL     1       0.792  -8.368   5.469  0.00  0.00    +0.144 HD
ATOM     24  H   UNL     1       1.056  -6.759   5.064  0.00  0.00    +0.144 HD
ENDBRANCH  19  22
ENDBRANCH  16  19
ENDBRANCH   8  13
BRANCH   6  25
ATOM     25  C   UNL     1       8.245  -1.652   2.707  0.00  0.00    +0.253 C 
ATOM     26  O   UNL     1       8.975  -0.881   2.113  0.00  0.00    -0.270 OA
ATOM     27  N   UNL     1       8.767  -2.542   3.574  0.00  0.00    -0.281 N 
ATOM     28  H   UNL     1       8.192  -3.191   4.008  0.00  0.00    +0.155 HD
BRANCH  27  29
ATOM     29  C   UNL     1      10.139  -2.529   3.848  0.00  0.00    +0.037 A 
ATOM     30  C   UNL     1      11.035  -2.062   2.895  0.00  0.00    +0.023 A 
ATOM     31  C   UNL     1      12.388  -2.051   3.168  0.00  0.00    +0.002 A 
ATOM     32  C   UNL     1      12.852  -2.505   4.390  0.00  0.00    +0.000 A 
ATOM     33  C   UNL     1      11.963  -2.971   5.340  0.00  0.00    +0.005 A 
ATOM     34  C   UNL     1      10.607  -2.979   5.075  0.00  0.00    -0.029 A 
ATOM     35  C   UNL     1       9.638  -3.481   6.114  0.00  0.00    +0.045 C 
ENDBRANCH  27  29
ENDBRANCH   6  25
BRANCH   1  36
ATOM     36  N   UNL     1       0.674  -0.730   1.036  0.00  0.00    -0.330 N 
BRANCH  36  38
ATOM     37  C   UNL     1      -0.344   1.471   0.724  0.00  0.00    +0.024 C 
ATOM     38  C   UNL     1       0.043   0.152   0.052  0.00  0.00    +0.102 C 
ENDBRANCH  36  38
BRANCH  36  39
ATOM     39  C   UNL     1      -0.146  -1.655   1.823  0.00  0.00    +0.102 C 
ATOM     40  C   UNL     1      -0.264  -2.989   1.082  0.00  0.00    +0.024 C 
ENDBRANCH  36  39
ENDBRANCH   1  36
TORSDOF 8
