REMARK  Name = ZINC65529985
REMARK  6 active torsions:
REMARK  status: ('A' for Active; 'I' for Inactive)
REMARK    1  A    between atoms: C_1  and  C_2
REMARK    2  A    between atoms: C_2  and  C_3
REMARK    3  A    between atoms: C_5  and  C_28
REMARK    4  A    between atoms: C_7  and  C_9
REMARK    5  A    between atoms: C_9  and  N_10
REMARK    6  A    between atoms: C_13  and  C_16
REMARK                            x       y       z     vdW  Elec       q    Type
REMARK                         _______ _______ _______ _____ _____    ______ ____
ROOT
ATOM      1  N   UNL     1       4.874  -1.666   3.542  0.00  0.00    +0.383 N 
ATOM      2  C   UNL     1       4.677  -1.769   2.091  0.00  0.00    -0.078 C 
ATOM      3  C   UNL     1       5.560  -2.886   1.530  0.00  0.00    -0.012 C 
ATOM      4  C   UNL     1       7.028  -2.567   1.826  0.00  0.00    +0.018 C 
ATOM      5  C   UNL     1       7.207  -2.388   3.337  0.00  0.00    -0.012 C 
ATOM      6  C   UNL     1       6.263  -1.289   3.830  0.00  0.00    -0.078 C 
ATOM      7  H   UNL     1       4.672  -2.557   3.970  0.00  0.00    -0.081 HD
ENDROOT
BRANCH   4   8
ATOM      8  C   UNL     1       7.910  -3.717   1.339  0.00  0.00    +0.143 C 
ATOM      9  N   UNL     1       9.249  -3.641   1.974  0.00  0.00    -0.238 NA
ATOM     10  N   UNL     1      10.180  -4.078   0.920  0.00  0.00    -0.238 NA
ATOM     11  C   UNL     1       9.567  -3.521  -0.318  0.00  0.00    +0.140 C 
ATOM     12  N   UNL     1       8.148  -3.598  -0.118  0.00  0.00    -0.269 NA
ATOM     13  C   UNL     1       7.272  -2.583  -0.702  0.00  0.00    +0.087 C 
ATOM     14  C   UNL     1       7.690  -2.280  -2.165  0.00  0.00    +0.015 C 
ATOM     15  C   UNL     1       8.074  -3.546  -2.879  0.00  0.00    +0.001 C 
ATOM     16  C   UNL     1       9.584  -3.747  -2.765  0.00  0.00    +0.003 C 
ATOM     17  C   UNL     1      10.018  -4.386  -1.510  0.00  0.00    +0.036 C 
ATOM     18  H   UNL     1       9.455  -2.698   2.270  0.00  0.00    +0.142 HD
ATOM     19  H   UNL     1      10.230  -5.085   0.877  0.00  0.00    +0.142 HD
ENDBRANCH   4   8
BRANCH   1  20
ATOM     20  C   UNL     1       3.968  -0.646   4.086  0.00  0.00    -0.021 C 
BRANCH  20  25
ATOM     21  C   UNL     1       0.592  -1.369   3.015  0.00  0.00    +0.107 A 
ATOM     22  N   UNL     1       0.581  -1.995   4.212  0.00  0.00    -0.346 N 
ATOM     23  C   UNL     1       1.818  -1.818   4.772  0.00  0.00    +0.034 A 
ATOM     24  H   UNL     1      -0.163  -2.479   4.601  0.00  0.00    +0.167 HD
ATOM     25  C   UNL     1       2.540  -1.090   3.899  0.00  0.00    +0.046 A 
ATOM     26  N   UNL     1       1.768  -0.835   2.833  0.00  0.00    -0.239 NA
ATOM     27  C   UNL     1       2.281  -2.337   6.109  0.00  0.00    +0.065 C 
BRANCH  21  29
ATOM     28  C   UNL     1      -0.862   0.159   1.711  0.00  0.00    +0.012 C 
ATOM     29  C   UNL     1      -0.562  -1.303   2.048  0.00  0.00    +0.071 C 
ENDBRANCH  21  29
ENDBRANCH  20  25
ENDBRANCH   1  20
TORSDOF 4
