REMARK  Name = ZINC09345086
REMARK  9 active torsions:
REMARK  status: ('A' for Active; 'I' for Inactive)
REMARK    1  A    between atoms: C_1  and  C_2
REMARK    2  A    between atoms: C_5  and  C_8
REMARK    3  A    between atoms: C_19  and  C_21
REMARK    4  A    between atoms: C_25  and  O_29
REMARK    5  A    between atoms: C_26  and  O_27
REMARK    6  A    between atoms: O_27  and  C_28
REMARK    7  A    between atoms: O_29  and  C_30
REMARK    8  A    between atoms: C_35  and  S_37
REMARK    9  A    between atoms: S_37  and  C_38
REMARK                            x       y       z     vdW  Elec       q    Type
REMARK                         _______ _______ _______ _____ _____    ______ ____
ROOT
ATOM      1  C   UNL     1       0.049  -4.170  -0.449  0.00  0.00    +0.159 C 
ATOM      2  C   UNL     1      -1.255  -4.686   0.119  0.00  0.00    +0.025 C 
ATOM      3  C   UNL     1      -1.211  -5.400   1.263  0.00  0.00    +0.058 C 
ATOM      4  C   UNL     1      -2.498  -5.908   1.803  0.00  0.00    +0.040 A 
ATOM      5  C   UNL     1      -2.606  -6.365   3.109  0.00  0.00    +0.013 A 
ATOM      6  C   UNL     1      -3.823  -6.829   3.571  0.00  0.00    +0.001 A 
ATOM      7  C   UNL     1      -4.927  -6.837   2.737  0.00  0.00    +0.004 A 
ATOM      8  C   UNL     1      -4.827  -6.384   1.434  0.00  0.00    +0.046 A 
ATOM      9  C   UNL     1      -3.615  -5.918   0.958  0.00  0.00    +0.131 A 
ATOM     10  O   UNL     1      -3.486  -5.474  -0.319  0.00  0.00    -0.479 OA
ATOM     11  C   UNL     1      -2.565  -4.409  -0.559  0.00  0.00    +0.238 C 
ATOM     12  N   UNL     1      -0.040  -5.648   1.899  0.00  0.00    -0.326 N 
ATOM     13  C   UNL     1       1.136  -5.237   1.476  0.00  0.00    +0.216 C 
ATOM     14  N   UNL     1       1.256  -4.498   0.319  0.00  0.00    -0.209 N 
ATOM     15  N   UNL     1       2.616  -4.226   0.154  0.00  0.00    -0.239 N 
ATOM     16  C   UNL     1       3.257  -4.805   1.217  0.00  0.00    +0.174 C 
ATOM     17  N   UNL     1       2.373  -5.396   1.980  0.00  0.00    -0.192 NA
ATOM     18  H   UNL     1      -0.072  -6.162   2.721  0.00  0.00    +0.169 HD
ATOM     19  H   UNL     1       3.026  -3.726  -0.570  0.00  0.00    +0.172 HD
ENDROOT
BRANCH   1  24
ATOM     20  C   UNL     1      -0.321   1.582  -0.861  0.00  0.00    +0.044 C 
ATOM     21  C   UNL     1      -0.224   0.082  -0.754  0.00  0.00    -0.050 A 
ATOM     22  C   UNL     1      -0.515  -0.710  -1.849  0.00  0.00    +0.004 A 
ATOM     23  C   UNL     1      -0.426  -2.086  -1.751  0.00  0.00    +0.006 A 
ATOM     24  C   UNL     1      -0.047  -2.670  -0.557  0.00  0.00    -0.021 A 
ATOM     25  C   UNL     1       0.245  -1.879   0.538  0.00  0.00    +0.006 A 
ATOM     26  C   UNL     1       0.160  -0.502   0.439  0.00  0.00    +0.004 A 
ENDBRANCH   1  24
BRANCH  11  27
ATOM     27  C   UNL     1      -3.139  -3.122  -0.026  0.00  0.00    +0.042 A 
ATOM     28  C   UNL     1      -2.897  -2.747   1.283  0.00  0.00    +0.011 A 
ATOM     29  C   UNL     1      -3.423  -1.567   1.775  0.00  0.00    +0.004 A 
ATOM     30  C   UNL     1      -4.194  -0.757   0.961  0.00  0.00    +0.049 A 
ATOM     31  C   UNL     1      -4.440  -1.127  -0.351  0.00  0.00    +0.162 A 
ATOM     32  C   UNL     1      -3.905  -2.312  -0.849  0.00  0.00    +0.168 A 
BRANCH  32  33
ATOM     33  O   UNL     1      -4.139  -2.677  -2.138  0.00  0.00    -0.491 OA
ATOM     34  C   UNL     1      -5.338  -3.410  -2.397  0.00  0.00    +0.277 C 
ENDBRANCH  32  33
BRANCH  31  35
ATOM     35  O   UNL     1      -5.197  -0.332  -1.153  0.00  0.00    -0.491 OA
ATOM     36  C   UNL     1      -5.708   0.872  -0.576  0.00  0.00    +0.277 C 
ENDBRANCH  31  35
ENDBRANCH  11  27
BRANCH  16  37
ATOM     37  S   UNL     1       4.995  -4.767   1.509  0.00  0.00    -0.092 S 
ATOM     38  C   UNL     1       5.201  -5.699   3.051  0.00  0.00    +0.093 C 
ENDBRANCH  16  37
TORSDOF 5
