REMARK  Name = ZINC17290901
REMARK  10 active torsions:
REMARK  status: ('A' for Active; 'I' for Inactive)
REMARK    1  A    between atoms: C_1  and  C_2
REMARK    2  A    between atoms: C_6  and  C_7
REMARK    3  A    between atoms: C_7  and  N_8
REMARK    4  A    between atoms: N_8  and  C_9
REMARK    5  A    between atoms: N_8  and  C_10
REMARK    6  A    between atoms: C_10  and  C_11
REMARK    7  A    between atoms: N_13  and  C_14
REMARK    8  A    between atoms: C_19  and  S_20
REMARK    9  A    between atoms: S_20  and  C_21
REMARK   10  A    between atoms: C_21  and  C_22
REMARK                            x       y       z     vdW  Elec       q    Type
REMARK                         _______ _______ _______ _____ _____    ______ ____
ROOT
ATOM      1  C   UNL     1      -2.768   0.860   4.819  0.00  0.00    +0.201 C 
ATOM      2  O   UNL     1      -3.691   0.559   4.091  0.00  0.00    -0.278 OA
ATOM      3  N   UNL     1      -3.011   1.424   6.018  0.00  0.00    -0.286 N 
ATOM      4  H   UNL     1      -2.280   1.591   6.633  0.00  0.00    +0.155 HD
ENDROOT
BRANCH   3   5
ATOM      5  C   UNL     1      -4.321   1.768   6.378  0.00  0.00    +0.047 A 
ATOM      6  C   UNL     1      -5.267   2.025   5.396  0.00  0.00    +0.024 A 
ATOM      7  C   UNL     1      -6.559   2.365   5.753  0.00  0.00    +0.002 A 
ATOM      8  C   UNL     1      -6.913   2.450   7.087  0.00  0.00    +0.001 A 
ATOM      9  C   UNL     1      -5.977   2.196   8.072  0.00  0.00    +0.016 A 
ATOM     10  C   UNL     1      -4.679   1.849   7.724  0.00  0.00    +0.030 A 
BRANCH  10  11
ATOM     11  S   UNL     1      -3.486   1.518   8.977  0.00  0.00    -0.114 S 
BRANCH  11  12
ATOM     12  C   UNL     1      -4.402   1.744  10.526  0.00  0.00    +0.169 C 
BRANCH  12  13
ATOM     13  C   UNL     1      -3.485   1.488  11.694  0.00  0.00    +0.221 C 
ATOM     14  O   UNL     1      -2.327   1.183  11.501  0.00  0.00    -0.275 OA
ATOM     15  N   UNL     1      -3.951   1.598  12.954  0.00  0.00    -0.329 N 
ATOM     16  H   UNL     1      -4.877   1.842  13.109  0.00  0.00    +0.145 HD
ATOM     17  H   UNL     1      -3.361   1.433  13.706  0.00  0.00    +0.145 HD
ENDBRANCH  12  13
ENDBRANCH  11  12
ENDBRANCH  10  11
ENDBRANCH   3   5
BRANCH   1  18
ATOM     18  C   UNL     1      -1.349   0.604   4.380  0.00  0.00    +0.019 C 
BRANCH  18  19
ATOM     19  N   UNL     1      -1.351  -0.012   3.047  0.00  0.00    +0.387 N 
ATOM     20  C   UNL     1      -1.980  -1.337   3.121  0.00  0.00    -0.095 C 
ATOM     21  H   UNL     1      -1.871   0.572   2.408  0.00  0.00    -0.081 HD
BRANCH  19  22
ATOM     22  C   UNL     1       0.031  -0.152   2.569  0.00  0.00    -0.035 C 
BRANCH  22  28
ATOM     23  C   UNL     1      -0.037   1.533   0.001  0.00  0.00    +0.044 C 
ATOM     24  C   UNL     1      -0.006   0.026  -0.009  0.00  0.00    -0.042 A 
ATOM     25  C   UNL     1      -0.001  -0.667  -1.205  0.00  0.00    +0.011 A 
ATOM     26  C   UNL     1       0.028  -2.022  -1.179  0.00  0.00    +0.045 A 
ATOM     27  S   UNL     1       0.048  -2.358   0.574  0.00  0.00    -0.103 S 
ATOM     28  C   UNL     1       0.023  -0.669   1.154  0.00  0.00    -0.024 A 
ENDBRANCH  22  28
ENDBRANCH  19  22
ENDBRANCH  18  19
ENDBRANCH   1  18
TORSDOF 8
