REMARK  Name = ZINC37613334
REMARK  7 active torsions:
REMARK  status: ('A' for Active; 'I' for Inactive)
REMARK    1  A    between atoms: C_3  and  N_12
REMARK    2  A    between atoms: C_6  and  S_7
REMARK    3  A    between atoms: S_7  and  N_10
REMARK    4  A    between atoms: C_13  and  C_15
REMARK    5  A    between atoms: C_15  and  N_16
REMARK    6  A    between atoms: N_16  and  C_17
REMARK    7  A    between atoms: C_17  and  C_18
REMARK                            x       y       z     vdW  Elec       q    Type
REMARK                         _______ _______ _______ _____ _____    ______ ____
ROOT
ATOM      1  C   UNL     1       0.065   1.242  -0.620  0.00  0.00    +0.030 A 
ATOM      2  C   UNL     1       1.250   1.952  -0.618  0.00  0.00    +0.026 A 
ATOM      3  C   UNL     1       2.381   1.409  -0.024  0.00  0.00    +0.048 A 
ATOM      4  C   UNL     1       2.317   0.153   0.567  0.00  0.00    +0.041 A 
ATOM      5  C   UNL     1       1.128  -0.551   0.562  0.00  0.00    +0.045 A 
ATOM      6  C   UNL     1       0.004  -0.007  -0.031  0.00  0.00    +0.106 A 
ATOM      7 BR   UNL     1       3.855  -0.591   1.378  0.00  0.00    -0.048 Br
ENDROOT
BRANCH   3   8
ATOM      8  N   UNL     1       3.584   2.125  -0.021  0.00  0.00    -0.286 N 
ATOM      9  C   UNL     1       3.568   3.470  -0.116  0.00  0.00    +0.200 C 
ATOM     10  O   UNL     1       2.512   4.066  -0.103  0.00  0.00    -0.278 OA
ATOM     11  H   UNL     1       4.429   1.654   0.049  0.00  0.00    +0.155 HD
BRANCH   9  12
ATOM     12  C   UNL     1       4.862   4.232  -0.238  0.00  0.00    +0.015 C 
BRANCH  12  13
ATOM     13  N   UNL     1       4.577   5.670  -0.326  0.00  0.00    +0.385 N 
ATOM     14  H   UNL     1       4.003   5.851  -1.135  0.00  0.00    -0.085 HD
ATOM     15  H   UNL     1       4.089   5.967   0.506  0.00  0.00    -0.085 HD
BRANCH  13  16
ATOM     16  C   UNL     1       5.839   6.413  -0.445  0.00  0.00    -0.079 C 
BRANCH  16  17
ATOM     17  C   UNL     1       5.542   7.911  -0.536  0.00  0.00    -0.028 C 
ATOM     18  C   UNL     1       5.932   8.631  -1.828  0.00  0.00    +0.002 C 
ATOM     19  C   UNL     1       6.736   8.868  -0.548  0.00  0.00    +0.002 C 
ENDBRANCH  16  17
ENDBRANCH  13  16
ENDBRANCH  12  13
ENDBRANCH   9  12
ENDBRANCH   3   8
BRANCH   6  20
ATOM     20  S   UNL     1      -1.510  -0.908  -0.035  0.00  0.00    +0.056 S 
ATOM     21  O   UNL     1      -1.447  -1.815   1.057  0.00  0.00    -0.153 OA
ATOM     22  O   UNL     1      -2.552   0.049  -0.172  0.00  0.00    -0.153 OA
BRANCH  20  23
ATOM     23  N   UNL     1      -1.529  -1.827  -1.413  0.00  0.00    -0.204 NA
ATOM     24  H   UNL     1      -0.782  -1.791  -2.030  0.00  0.00    +0.144 HD
ATOM     25  H   UNL     1      -2.287  -2.401  -1.602  0.00  0.00    +0.144 HD
ENDBRANCH  20  23
ENDBRANCH   6  20
TORSDOF 7
