REMARK  Name = ZINC38785259
REMARK  6 active torsions:
REMARK  status: ('A' for Active; 'I' for Inactive)
REMARK    1  A    between atoms: C_1  and  S_2
REMARK    2  A    between atoms: S_2  and  C_5
REMARK    3  A    between atoms: C_9  and  C_11
REMARK    4  A    between atoms: N_13  and  C_14
REMARK    5  A    between atoms: C_17  and  N_21
REMARK    6  A    between atoms: C_22  and  C_24
REMARK                            x       y       z     vdW  Elec       q    Type
REMARK                         _______ _______ _______ _____ _____    ______ ____
ROOT
ATOM      1  C   UNL     1       6.383  -1.569  -3.868  0.00  0.00    +0.052 A 
ATOM      2  C   UNL     1       7.145  -1.407  -2.718  0.00  0.00    +0.026 A 
ATOM      3  C   UNL     1       8.521  -1.491  -2.784  0.00  0.00    +0.025 A 
ATOM      4  C   UNL     1       9.145  -1.736  -4.000  0.00  0.00    +0.035 A 
ATOM      5  C   UNL     1       8.384  -1.898  -5.151  0.00  0.00    +0.045 A 
ATOM      6  C   UNL     1       7.007  -1.821  -5.084  0.00  0.00    +0.064 A 
ATOM      7 CL   UNL     1       6.055  -2.030  -6.521  0.00  0.00    -0.082 Cl
ENDROOT
BRANCH   1  10
ATOM      8  C   UNL     1       4.404  -0.626  -2.940  0.00  0.00    +0.248 C 
ATOM      9  O   UNL     1       5.087   0.013  -2.164  0.00  0.00    -0.270 OA
ATOM     10  N   UNL     1       4.987  -1.484  -3.801  0.00  0.00    -0.280 N 
ATOM     11  H   UNL     1       4.439  -2.043  -4.375  0.00  0.00    +0.155 HD
BRANCH   8  16
ATOM     12  C   UNL     1       0.957   0.571  -2.053  0.00  0.00    +0.089 A 
ATOM     13  C   UNL     1       0.183  -0.158  -2.938  0.00  0.00    +0.027 A 
ATOM     14  C   UNL     1       0.778  -1.039  -3.824  0.00  0.00    +0.003 A 
ATOM     15  C   UNL     1       2.148  -1.196  -3.830  0.00  0.00    +0.013 A 
ATOM     16  C   UNL     1       2.935  -0.463  -2.940  0.00  0.00    +0.039 A 
ATOM     17  C   UNL     1       2.329   0.428  -2.052  0.00  0.00    +0.040 A 
BRANCH  12  19
ATOM     18  C   UNL     1       0.120   3.270  -1.818  0.00  0.00    +0.200 C 
ATOM     19  S   UNL     1       0.190   1.690  -0.929  0.00  0.00    -0.006 S 
ATOM     20  O   UNL     1       1.093   1.782   0.164  0.00  0.00    -0.170 OA
ATOM     21  O   UNL     1      -1.122   1.175  -0.743  0.00  0.00    -0.170 OA
ENDBRANCH  12  19
ENDBRANCH   8  16
ENDBRANCH   1  10
BRANCH   4  22
ATOM     22  N   UNL     1      10.542  -1.819  -4.067  0.00  0.00    -0.285 N 
ATOM     23  C   UNL     1      11.193  -1.361  -5.154  0.00  0.00    +0.233 C 
ATOM     24  O   UNL     1      10.567  -0.954  -6.109  0.00  0.00    -0.274 OA
ATOM     25  H   UNL     1      11.040  -2.207  -3.330  0.00  0.00    +0.155 HD
BRANCH  23  26
ATOM     26  C   UNL     1      12.700  -1.355  -5.182  0.00  0.00    +0.184 C 
ATOM     27  C   UNL     1      13.137  -0.880  -6.554  0.00  0.00    +0.004 C 
ATOM     28  C   UNL     1      13.934   0.225  -6.608  0.00  0.00    -0.007 A 
ATOM     29  C   UNL     1      14.402   0.751  -7.891  0.00  0.00    +0.009 A 
ATOM     30  C   UNL     1      15.194   1.854  -7.896  0.00  0.00    +0.001 A 
ATOM     31  C   UNL     1      15.567   2.487  -6.710  0.00  0.00    +0.002 A 
ATOM     32  C   UNL     1      15.166   2.049  -5.488  0.00  0.00    +0.024 A 
ATOM     33  C   UNL     1      14.343   0.913  -5.372  0.00  0.00    +0.040 A 
ATOM     34  N   UNL     1      13.956   0.492  -4.168  0.00  0.00    -0.284 N 
ATOM     35  C   UNL     1      13.183  -0.565  -3.987  0.00  0.00    +0.233 C 
ATOM     36  O   UNL     1      12.862  -0.901  -2.863  0.00  0.00    -0.274 OA
ATOM     37  H   UNL     1      14.255   0.985  -3.387  0.00  0.00    +0.155 HD
ENDBRANCH  23  26
ENDBRANCH   4  22
TORSDOF 5
