REMARK  Name = ZINC08920838
REMARK  10 active torsions:
REMARK  status: ('A' for Active; 'I' for Inactive)
REMARK    1  A    between atoms: C_1  and  C_2
REMARK    2  A    between atoms: N_8  and  S_9
REMARK    3  A    between atoms: S_9  and  C_12
REMARK    4  A    between atoms: C_15  and  C_18
REMARK    5  A    between atoms: N_20  and  C_21
REMARK    6  A    between atoms: C_22  and  C_32
REMARK    7  A    between atoms: C_29  and  C_30
REMARK    8  A    between atoms: C_29  and  C_31
REMARK    9  A    between atoms: C_29  and  N_69
REMARK   10  A    between atoms: N_34  and  C_35
REMARK                            x       y       z     vdW  Elec       q    Type
REMARK                         _______ _______ _______ _____ _____    ______ ____
ROOT
ATOM      1  C   UNL     1      -2.169   3.515  -1.069  0.00  0.00    +0.249 C 
ATOM      2  O   UNL     1      -2.577   4.660  -1.044  0.00  0.00    -0.270 OA
ATOM      3  N   UNL     1      -0.864   3.270  -1.300  0.00  0.00    -0.275 N 
ATOM      4  H   UNL     1      -0.539   2.356  -1.320  0.00  0.00    +0.156 HD
ENDROOT
BRANCH   3   5
ATOM      5  C   UNL     1       0.011   4.322  -1.515  0.00  0.00    +0.085 A 
ATOM      6  C   UNL     1       1.375   4.271  -1.772  0.00  0.00    +0.068 A 
ATOM      7  C   UNL     1       2.067   5.531  -1.963  0.00  0.00    -0.027 A 
ATOM      8  C   UNL     1       1.293   6.636  -1.866  0.00  0.00    -0.021 A 
ATOM      9  S   UNL     1      -0.332   6.021  -1.536  0.00  0.00    -0.079 S 
ATOM     10  C   UNL     1       1.746   8.055  -2.016  0.00  0.00    -0.035 C 
ATOM     11  C   UNL     1       3.809   7.068  -2.817  0.00  0.00    -0.073 C 
ATOM     12  C   UNL     1       3.557   5.665  -2.256  0.00  0.00    +0.018 C 
ATOM     13  N   UNL     1       3.225   8.072  -1.904  0.00  0.00    +0.384 N 
ATOM     14  H   UNL     1       3.490   7.842  -0.940  0.00  0.00    -0.081 HD
BRANCH   6  15
ATOM     15  C   UNL     1       2.088   2.992  -1.848  0.00  0.00    +0.246 C 
ATOM     16  O   UNL     1       2.187   2.413  -2.914  0.00  0.00    -0.270 OA
ATOM     17  N   UNL     1       2.633   2.458  -0.737  0.00  0.00    -0.314 N 
ATOM     18  C   UNL     1       3.346   1.180  -0.813  0.00  0.00    +0.128 C 
ATOM     19  H   UNL     1       2.554   2.920   0.112  0.00  0.00    +0.149 HD
ENDBRANCH   6  15
BRANCH  13  20
ATOM     20  C   UNL     1       3.741   9.418  -2.236  0.00  0.00    -0.074 C 
ATOM     21  C   UNL     1       3.348   9.804  -3.663  0.00  0.00    -0.014 C 
ATOM     22  C   UNL     1       3.154  10.432  -1.253  0.00  0.00    -0.014 C 
ENDBRANCH  13  20
ENDBRANCH   3   5
BRANCH   1  26
ATOM     23  C   UNL     1      -4.856   0.289  -0.427  0.00  0.00    +0.106 A 
ATOM     24  C   UNL     1      -5.324   1.591  -0.398  0.00  0.00    +0.029 A 
ATOM     25  C   UNL     1      -4.456   2.643  -0.606  0.00  0.00    +0.015 A 
ATOM     26  C   UNL     1      -3.104   2.393  -0.845  0.00  0.00    +0.037 A 
ATOM     27  C   UNL     1      -2.640   1.077  -0.879  0.00  0.00    +0.015 A 
ATOM     28  C   UNL     1      -3.517   0.034  -0.663  0.00  0.00    +0.029 A 
BRANCH  23  29
ATOM     29  S   UNL     1      -5.970  -1.049  -0.160  0.00  0.00    +0.061 S 
ATOM     30  O   UNL     1      -5.189  -2.142   0.304  0.00  0.00    -0.153 OA
ATOM     31  O   UNL     1      -7.064  -0.526   0.580  0.00  0.00    -0.153 OA
BRANCH  29  38
ATOM     32  C   UNL     1      -8.272   0.219  -1.212  0.00  0.00    +0.026 C 
ATOM     33  C   UNL     1      -7.711  -0.778  -2.228  0.00  0.00    +0.077 C 
ATOM     34  C   UNL     1      -8.792  -1.792  -2.598  0.00  0.00    +0.020 C 
ATOM     35  C   UNL     1      -8.190  -2.869  -3.503  0.00  0.00    +0.003 C 
ATOM     36  C   UNL     1      -7.075  -3.602  -2.753  0.00  0.00    +0.017 C 
ATOM     37  C   UNL     1      -5.971  -2.605  -2.388  0.00  0.00    +0.110 C 
ATOM     38  N   UNL     1      -6.569  -1.490  -1.640  0.00  0.00    -0.174 NA
ENDBRANCH  29  38
ENDBRANCH  23  29
ENDBRANCH   1  26
TORSDOF 6
