REMARK  Name = ZINC43554135
REMARK  14 active torsions:
REMARK  status: ('A' for Active; 'I' for Inactive)
REMARK    1  A    between atoms: C_1  and  C_2
REMARK    2  A    between atoms: C_2  and  C_4
REMARK    3  A    between atoms: C_2  and  N_8
REMARK    4  A    between atoms: C_4  and  C_5
REMARK    5  A    between atoms: C_4  and  C_6
REMARK    6  A    between atoms: C_4  and  C_7
REMARK    7  A    between atoms: C_9  and  C_11
REMARK    8  A    between atoms: C_11  and  C_12
REMARK    9  A    between atoms: C_14  and  O_31
REMARK   10  A    between atoms: C_20  and  C_30
REMARK   11  A    between atoms: C_23  and  O_29
REMARK   12  A    between atoms: C_25  and  C_26
REMARK   13  A    between atoms: C_25  and  C_27
REMARK   14  A    between atoms: C_27  and  O_28
REMARK                            x       y       z     vdW  Elec       q    Type
REMARK                         _______ _______ _______ _____ _____    ______ ____
ROOT
ATOM      1  C   UNL     1       1.138  -2.059  -4.936  0.00  0.00    +0.032 C 
ATOM      2  C   UNL     1       0.035  -2.957  -4.401  0.00  0.00    +0.119 C 
ATOM      3  C   UNL     1      -1.295  -2.517  -5.011  0.00  0.00    +0.032 C 
ATOM      4  C   UNL     1      -1.211  -2.628  -6.535  0.00  0.00    +0.007 C 
ATOM      5  C   UNL     1      -0.122  -1.701  -7.089  0.00  0.00    +0.006 C 
ATOM      6  C   UNL     1       1.224  -2.058  -6.464  0.00  0.00    -0.023 C 
ATOM      7  C   UNL     1       1.702  -3.406  -6.991  0.00  0.00    +0.010 C 
ATOM      8  C   UNL     1       1.849  -3.346  -8.514  0.00  0.00    +0.032 C 
ATOM      9  C   UNL     1       0.507  -3.034  -9.159  0.00  0.00    +0.123 C 
ATOM     10  C   UNL     1      -0.126  -1.761  -8.610  0.00  0.00    +0.020 C 
ATOM     11  C   UNL     1       0.556  -0.534  -9.233  0.00  0.00    +0.016 C 
ATOM     12  C   UNL     1       2.287  -0.991  -6.796  0.00  0.00    +0.012 C 
ENDROOT
BRANCH   9  13
ATOM     13  O   UNL     1      -0.386  -4.138  -8.984  0.00  0.00    -0.391 OA
ATOM     14  H   UNL     1      -0.070  -4.964  -9.375  0.00  0.00    +0.210 HD
ENDBRANCH   9  13
BRANCH   2  15
ATOM     15  O   UNL     1       0.290  -4.327  -4.691  0.00  0.00    -0.391 OA
ATOM     16  H   UNL     1      -0.392  -4.931  -4.366  0.00  0.00    +0.210 HD
ENDBRANCH   2  15
BRANCH   1  17
ATOM     17  C   UNL     1       2.482  -2.450  -4.322  0.00  0.00    +0.102 C 
BRANCH  17  19
ATOM     18  N   UNL     1       3.510  -2.532  -2.074  0.00  0.00    -0.312 N 
ATOM     19  C   UNL     1       2.431  -2.250  -2.830  0.00  0.00    +0.214 C 
ATOM     20  O   UNL     1       1.418  -1.834  -2.308  0.00  0.00    -0.276 OA
ATOM     21  H   UNL     1       4.321  -2.865  -2.491  0.00  0.00    +0.149 HD
BRANCH  18  23
ATOM     22  C   UNL     1       3.792  -0.880  -0.292  0.00  0.00    +0.028 C 
ATOM     23  C   UNL     1       3.460  -2.337  -0.623  0.00  0.00    +0.075 C 
BRANCH  23  24
ATOM     24  C   UNL     1       4.479  -3.258   0.051  0.00  0.00    -0.020 C 
ATOM     25  C   UNL     1       4.426  -3.054   1.567  0.00  0.00    +0.012 C 
ATOM     26  C   UNL     1       4.147  -4.715  -0.279  0.00  0.00    +0.012 C 
ATOM     27  C   UNL     1       5.883  -2.927  -0.460  0.00  0.00    +0.012 C 
ENDBRANCH  23  24
ENDBRANCH  18  23
ENDBRANCH  17  19
ENDBRANCH   1  17
BRANCH  10  28
ATOM     28  C   UNL     1      -1.582  -1.722  -9.129  0.00  0.00    +0.165 C 
BRANCH  28  29
ATOM     29  O   UNL     1      -1.581  -1.778 -10.557  0.00  0.00    -0.394 OA
ATOM     30  H   UNL     1      -2.463  -1.758 -10.952  0.00  0.00    +0.209 HD
ENDBRANCH  28  29
ENDBRANCH  10  28
TORSDOF 8
