REMARK  Name = ZINC32733793
REMARK  15 active torsions:
REMARK  status: ('A' for Active; 'I' for Inactive)
REMARK    1  A    between atoms: C_1  and  C_2
REMARK    2  A    between atoms: C_2  and  C_3
REMARK    3  A    between atoms: C_6  and  C_9
REMARK    4  A    between atoms: C_9  and  C_11
REMARK    5  A    between atoms: C_9  and  N_31
REMARK    6  A    between atoms: C_11  and  N_12
REMARK    7  A    between atoms: C_13  and  C_15
REMARK    8  A    between atoms: C_15  and  C_16
REMARK    9  A    between atoms: C_16  and  N_17
REMARK   10  A    between atoms: N_17  and  C_18
REMARK   11  A    between atoms: C_21  and  S_27
REMARK   12  A    between atoms: C_23  and  N_24
REMARK   13  A    between atoms: S_27  and  N_30
REMARK   14  A    between atoms: N_31  and  C_32
REMARK   15  A    between atoms: N_31  and  C_33
REMARK                            x       y       z     vdW  Elec       q    Type
REMARK                         _______ _______ _______ _____ _____    ______ ____
ROOT
ATOM      1  C   UNL     1     -10.052  -1.653   0.236  0.00  0.00    +0.114 C 
ENDROOT
BRANCH   1   3
ATOM      2  N   UNL     1      -7.855  -2.031   1.308  0.00  0.00    -0.316 N 
ATOM      3  C   UNL     1      -8.722  -1.164   0.749  0.00  0.00    +0.214 C 
ATOM      4  O   UNL     1      -8.432   0.010   0.658  0.00  0.00    -0.276 OA
ATOM      5  H   UNL     1      -8.087  -2.970   1.381  0.00  0.00    +0.149 HD
BRANCH   2   6
ATOM      6  C   UNL     1      -6.562  -1.556   1.806  0.00  0.00    +0.093 C 
BRANCH   6   7
ATOM      7  C   UNL     1      -5.730  -2.747   2.285  0.00  0.00    -0.021 C 
BRANCH   7  11
ATOM      8  C   UNL     1      -7.717  -4.652   5.552  0.00  0.00    -0.048 A 
ATOM      9  C   UNL     1      -7.813  -5.184   4.280  0.00  0.00    +0.004 A 
ATOM     10  C   UNL     1      -7.170  -4.567   3.223  0.00  0.00    +0.002 A 
ATOM     11  C   UNL     1      -6.432  -3.419   3.438  0.00  0.00    -0.059 A 
ATOM     12  C   UNL     1      -6.337  -2.886   4.710  0.00  0.00    +0.002 A 
ATOM     13  C   UNL     1      -6.983  -3.500   5.766  0.00  0.00    +0.004 A 
BRANCH   8  15
ATOM     14  C   UNL     1      -9.832  -4.755   6.844  0.00  0.00    +0.009 C 
ATOM     15  C   UNL     1      -8.418  -5.324   6.705  0.00  0.00    +0.032 C 
ENDBRANCH   8  15
ENDBRANCH   7  11
BRANCH   7  16
ATOM     16  N   UNL     1      -4.409  -2.278   2.723  0.00  0.00    +0.382 N 
ATOM     17  C   UNL     1      -3.599  -3.426   3.152  0.00  0.00    -0.096 C 
ATOM     18  C   UNL     1      -3.738  -1.595   1.609  0.00  0.00    -0.096 C 
ATOM     19  H   UNL     1      -4.518  -1.636   3.494  0.00  0.00    -0.082 HD
ENDBRANCH   7  16
ENDBRANCH   6   7
ENDBRANCH   2   6
ENDBRANCH   1   3
BRANCH   1  20
ATOM     20  C   UNL     1     -10.838  -0.477  -0.345  0.00  0.00    +0.111 C 
BRANCH  20  21
ATOM     21  N   UNL     1     -12.132  -0.952  -0.843  0.00  0.00    -0.342 N 
ATOM     22  H   UNL     1     -12.364  -1.891  -0.771  0.00  0.00    +0.146 HD
BRANCH  21  23
ATOM     23  C   UNL     1     -13.030  -0.053  -1.423  0.00  0.00    +0.058 A 
ATOM     24  C   UNL     1     -12.762   1.310  -1.403  0.00  0.00    +0.027 A 
ATOM     25  C   UNL     1     -13.652   2.195  -1.977  0.00  0.00    +0.030 A 
ATOM     26  C   UNL     1     -14.809   1.727  -2.572  0.00  0.00    +0.107 A 
ATOM     27  C   UNL     1     -15.080   0.371  -2.593  0.00  0.00    +0.063 A 
ATOM     28  C   UNL     1     -14.191  -0.521  -2.026  0.00  0.00    +0.149 A 
BRANCH  28  29
ATOM     29  N   UNL     1     -14.478  -1.972  -2.054  0.00  0.00    +0.058 N 
ATOM     30  O   UNL     1     -13.580  -2.763  -2.232  0.00  0.00    -0.126 OA
ATOM     31  O   UNL     1     -15.610  -2.368  -1.900  0.00  0.00    -0.126 OA
ENDBRANCH  28  29
BRANCH  26  32
ATOM     32  S   UNL     1     -15.943   2.861  -3.303  0.00  0.00    +0.056 S 
ATOM     33  O   UNL     1     -17.211   2.219  -3.312  0.00  0.00    -0.153 OA
ATOM     34  O   UNL     1     -15.727   4.115  -2.671  0.00  0.00    -0.153 OA
BRANCH  32  35
ATOM     35  N   UNL     1     -15.496   3.046  -4.887  0.00  0.00    -0.204 NA
ATOM     36  H   UNL     1     -16.166   3.246  -5.560  0.00  0.00    +0.144 HD
ATOM     37  H   UNL     1     -14.564   2.955  -5.142  0.00  0.00    +0.144 HD
ENDBRANCH  32  35
ENDBRANCH  26  32
ENDBRANCH  21  23
ENDBRANCH  20  21
ENDBRANCH   1  20
TORSDOF 12
