REMARK  Name = ZINC39665310
REMARK  12 active torsions:
REMARK  status: ('A' for Active; 'I' for Inactive)
REMARK    1  A    between atoms: C_1  and  C_2
REMARK    2  A    between atoms: C_2  and  C_3
REMARK    3  A    between atoms: C_8  and  C_12
REMARK    4  A    between atoms: C_12  and  C_14
REMARK    5  A    between atoms: C_14  and  S_15
REMARK    6  A    between atoms: S_15  and  C_16
REMARK    7  A    between atoms: C_20  and  C_31
REMARK    8  A    between atoms: N_22  and  C_23
REMARK    9  A    between atoms: C_23  and  C_25
REMARK   10  A    between atoms: C_23  and  C_28
REMARK   11  A    between atoms: C_25  and  C_26
REMARK   12  A    between atoms: C_25  and  C_27
REMARK                            x       y       z     vdW  Elec       q    Type
REMARK                         _______ _______ _______ _____ _____    ______ ____
ROOT
ATOM      1  C   UNL     1      -2.593  -2.226  10.339  0.00  0.00    +0.079 C 
ATOM      2  N   UNL     1      -3.737  -1.319  10.585  0.00  0.00    -0.262 NA
ATOM      3  N   UNL     1      -4.799  -1.818   9.697  0.00  0.00    -0.266 NA
ATOM      4  C   UNL     1      -4.628  -3.293   9.765  0.00  0.00    +0.057 C 
ATOM      5  N   UNL     1      -3.159  -3.487   9.818  0.00  0.00    +0.420 N 
ATOM      6  H   UNL     1      -4.026  -1.355  11.551  0.00  0.00    +0.140 HD
ATOM      7  H   UNL     1      -5.710  -1.544  10.034  0.00  0.00    +0.139 HD
ATOM      8  H   UNL     1      -2.801  -3.672   8.893  0.00  0.00    -0.074 HD
ENDROOT
BRANCH   4   9
ATOM      9  C   UNL     1      -5.206  -3.948   8.537  0.00  0.00    -0.009 A 
ATOM     10  C   UNL     1      -6.282  -3.579   7.799  0.00  0.00    +0.011 A 
ATOM     11  C   UNL     1      -6.633  -4.339   6.699  0.00  0.00    +0.008 A 
ATOM     12  C   UNL     1      -5.891  -5.431   6.391  0.00  0.00    +0.045 A 
ATOM     13  S   UNL     1      -4.648  -5.406   7.673  0.00  0.00    -0.102 S 
ENDBRANCH   4   9
BRANCH   1  14
ATOM     14  S   UNL     1      -1.472  -1.496   9.115  0.00  0.00    -0.152 S 
BRANCH  14  15
ATOM     15  C   UNL     1      -2.521  -1.235   7.659  0.00  0.00    +0.148 C 
BRANCH  15  16
ATOM     16  C   UNL     1      -1.702  -0.624   6.551  0.00  0.00    +0.171 C 
ATOM     17  O   UNL     1      -0.524  -0.387   6.728  0.00  0.00    -0.291 OA
BRANCH  16  23
ATOM     18  C   UNL     1      -2.276   0.937   1.841  0.00  0.00    -0.024 A 
ATOM     19  C   UNL     1      -0.989   1.318   1.696  0.00  0.00    +0.005 A 
ATOM     20  C   UNL     1      -0.052   1.183   2.734  0.00  0.00    +0.001 A 
ATOM     21  C   UNL     1      -0.375   0.663   3.939  0.00  0.00    +0.010 A 
ATOM     22  C   UNL     1      -1.697   0.231   4.199  0.00  0.00    +0.006 A 
ATOM     23  C   UNL     1      -2.303  -0.327   5.310  0.00  0.00    +0.024 C 
ATOM     24  C   UNL     1      -3.746  -0.553   4.915  0.00  0.00    +0.152 C 
ATOM     25  N   UNL     1      -3.867  -0.082   3.531  0.00  0.00    -0.380 N 
ATOM     26  C   UNL     1      -2.713   0.367   3.126  0.00  0.00    +0.046 A 
ATOM     27  H   UNL     1      -4.679  -0.099   3.002  0.00  0.00    +0.160 HD
BRANCH  18  29
ATOM     28  C   UNL     1      -4.006   2.421   0.864  0.00  0.00    +0.009 C 
ATOM     29  C   UNL     1      -3.253   1.098   0.705  0.00  0.00    +0.034 C 
ENDBRANCH  18  29
ENDBRANCH  16  23
ENDBRANCH  15  16
ENDBRANCH  14  15
ENDBRANCH   1  14
BRANCH   5  30
ATOM     30  C   UNL     1      -2.829  -4.599  10.719  0.00  0.00    +0.056 C 
BRANCH  30  31
ATOM     31  C   UNL     1      -1.327  -4.882  10.651  0.00  0.00    -0.020 C 
ATOM     32  C   UNL     1      -0.911  -5.080   9.192  0.00  0.00    +0.006 C 
ATOM     33  C   UNL     1      -0.558  -3.700  11.245  0.00  0.00    +0.006 C 
ENDBRANCH  30  31
BRANCH  30  34
ATOM     34  C   UNL     1      -3.208  -4.231  12.130  0.00  0.00    +0.343 C 
ATOM     35  O   UNL     1      -3.707  -3.143  12.364  0.00  0.00    -0.248 OA
ATOM     36  O   UNL     1      -3.015  -5.021  13.039  0.00  0.00    -0.248 OA
ENDBRANCH  30  34
ENDBRANCH   5  30
TORSDOF 9
