REMARK  Name = ZINC36945554
REMARK  9 active torsions:
REMARK  status: ('A' for Active; 'I' for Inactive)
REMARK    1  A    between atoms: C_1  and  C_2
REMARK    2  A    between atoms: C_2  and  C_4
REMARK    3  A    between atoms: C_2  and  N_13
REMARK    4  A    between atoms: C_7  and  O_12
REMARK    5  A    between atoms: C_8  and  O_10
REMARK    6  A    between atoms: O_10  and  C_11
REMARK    7  A    between atoms: N_13  and  C_14
REMARK    8  A    between atoms: C_14  and  C_16
REMARK    9  A    between atoms: C_14  and  C_17
REMARK                            x       y       z     vdW  Elec       q    Type
REMARK                         _______ _______ _______ _____ _____    ______ ____
ROOT
ATOM      1  C   UNL     1       0.014   1.552  -0.031  0.00  0.00    -0.009 C 
ATOM      2  C   UNL     1      -0.075   0.025  -0.064  0.00  0.00    -0.043 C 
ENDROOT
BRANCH   2   3
ATOM      3  C   UNL     1       0.608  -0.544   1.152  0.00  0.00    -0.058 A 
ATOM      4  C   UNL     1       1.986  -0.654   1.181  0.00  0.00    +0.006 A 
ATOM      5  C   UNL     1       2.618  -1.176   2.295  0.00  0.00    +0.049 A 
ATOM      6  C   UNL     1       1.870  -1.590   3.385  0.00  0.00    +0.158 A 
ATOM      7  C   UNL     1       0.483  -1.479   3.356  0.00  0.00    +0.161 A 
ATOM      8  C   UNL     1      -0.144  -0.951   2.239  0.00  0.00    +0.051 A 
BRANCH   7   9
ATOM      9  O   UNL     1      -0.256  -1.884   4.424  0.00  0.00    -0.491 OA
ATOM     10  C   UNL     1      -1.674  -1.741   4.324  0.00  0.00    +0.277 C 
ENDBRANCH   7   9
BRANCH   6  11
ATOM     11  O   UNL     1       2.490  -2.104   4.481  0.00  0.00    -0.503 OA
ATOM     12  H   UNL     1       2.727  -1.442   5.146  0.00  0.00    +0.292 HD
ENDBRANCH   6  11
ENDBRANCH   2   3
BRANCH   2  13
ATOM     13  N   UNL     1       0.584  -0.478  -1.277  0.00  0.00    +0.388 N 
ATOM     14  H   UNL     1       0.186  -0.028  -2.087  0.00  0.00    -0.084 HD
ATOM     15  H   UNL     1       1.572  -0.276  -1.231  0.00  0.00    -0.084 HD
BRANCH  13  16
ATOM     16  C   UNL     1       0.386  -1.930  -1.375  0.00  0.00    -0.042 C 
ATOM     17  C   UNL     1      -1.098  -2.228  -1.601  0.00  0.00    -0.009 C 
BRANCH  16  18
ATOM     18  C   UNL     1       1.188  -2.470  -2.531  0.00  0.00    -0.048 A 
ATOM     19  C   UNL     1       1.615  -1.618  -3.533  0.00  0.00    +0.003 A 
ATOM     20  C   UNL     1       2.351  -2.113  -4.593  0.00  0.00    +0.000 A 
ATOM     21  C   UNL     1       2.661  -3.459  -4.652  0.00  0.00    +0.001 A 
ATOM     22  C   UNL     1       2.235  -4.311  -3.651  0.00  0.00    +0.015 A 
ATOM     23  C   UNL     1       1.502  -3.815  -2.587  0.00  0.00    +0.019 A 
ATOM     24 BR   UNL     1       0.924  -4.979  -1.213  0.00  0.00    -0.050 Br
ENDBRANCH  16  18
ENDBRANCH  13  16
ENDBRANCH   2  13
TORSDOF 6
