REMARK  Name = ZINC22916280
REMARK  12 active torsions:
REMARK  status: ('A' for Active; 'I' for Inactive)
REMARK    1  A    between atoms: C_1  and  C_2
REMARK    2  A    between atoms: C_2  and  O_3
REMARK    3  A    between atoms: O_3  and  C_4
REMARK    4  A    between atoms: C_4  and  C_6
REMARK    5  A    between atoms: C_10  and  N_11
REMARK    6  A    between atoms: C_12  and  C_14
REMARK    7  A    between atoms: C_14  and  N_15
REMARK    8  A    between atoms: N_18  and  C_21
REMARK    9  A    between atoms: C_21  and  C_22
REMARK   10  A    between atoms: N_24  and  C_25
REMARK   11  A    between atoms: C_26  and  C_32
REMARK   12  A    between atoms: C_30  and  C_31
REMARK                            x       y       z     vdW  Elec       q    Type
REMARK                         _______ _______ _______ _____ _____    ______ ____
ROOT
ATOM      1  N   UNL     1      -3.726  -5.079   1.773  0.00  0.00    -0.298 NA
ATOM      2  C   UNL     1      -3.766  -5.357   0.331  0.00  0.00    +0.066 C 
ATOM      3  C   UNL     1      -2.504  -4.796  -0.329  0.00  0.00    -0.063 C 
ATOM      4  N   UNL     1      -2.423  -3.350  -0.076  0.00  0.00    +0.387 N 
ATOM      5  C   UNL     1      -2.383  -3.073   1.366  0.00  0.00    -0.063 C 
ATOM      6  C   UNL     1      -3.645  -3.634   2.026  0.00  0.00    +0.066 C 
ATOM      7  H   UNL     1      -3.330  -2.882  -0.487  0.00  0.00    -0.081 HD
ENDROOT
BRANCH   1   8
ATOM      8  C   UNL     1      -4.885  -5.669   2.456  0.00  0.00    +0.180 C 
BRANCH   8  10
ATOM      9  N   UNL     1      -5.810  -7.928   2.852  0.00  0.00    -0.278 N 
ATOM     10  C   UNL     1      -4.792  -7.172   2.396  0.00  0.00    +0.232 C 
ATOM     11  O   UNL     1      -3.801  -7.700   1.939  0.00  0.00    -0.274 OA
ATOM     12  H   UNL     1      -6.709  -7.449   3.267  0.00  0.00    +0.155 HD
BRANCH   9  17
ATOM     13  C   UNL     1      -6.658 -10.252   3.219  0.00  0.00    +0.087 A 
ATOM     14  C   UNL     1      -6.306 -11.640   3.038  0.00  0.00    +0.024 A 
ATOM     15  C   UNL     1      -5.107 -11.904   2.489  0.00  0.00    +0.048 A 
ATOM     16  S   UNL     1      -4.426 -10.285   2.196  0.00  0.00    -0.081 S 
ATOM     17  C   UNL     1      -5.724  -9.311   2.797  0.00  0.00    +0.086 A 
BRANCH  13  18
ATOM     18  C   UNL     1      -7.936  -9.854   3.813  0.00  0.00    +0.342 C 
ATOM     19  O   UNL     1      -8.203  -8.675   3.948  0.00  0.00    -0.245 OA
BRANCH  18  20
ATOM     20  O   UNL     1      -8.817 -10.794   4.210  0.00  0.00    -0.461 OA
BRANCH  20  22
ATOM     21  C   UNL     1     -10.928 -11.529   5.177  0.00  0.00    +0.048 C 
ATOM     22  C   UNL     1     -10.064 -10.327   4.790  0.00  0.00    +0.229 C 
ENDBRANCH  20  22
ENDBRANCH  18  20
ENDBRANCH  13  18
ENDBRANCH   9  17
ENDBRANCH   8  10
ENDBRANCH   1   8
BRANCH   4  23
ATOM     23  C   UNL     1      -1.264  -2.761  -0.758  0.00  0.00    +0.019 C 
BRANCH  23  24
ATOM     24  C   UNL     1      -1.348  -1.258  -0.683  0.00  0.00    +0.201 C 
ATOM     25  O   UNL     1      -2.281  -0.730  -0.118  0.00  0.00    -0.278 OA
ATOM     26  N   UNL     1      -0.385  -0.500  -1.246  0.00  0.00    -0.287 N 
ATOM     27  H   UNL     1       0.413  -0.974  -1.837  0.00  0.00    +0.155 HD
BRANCH  26  28
ATOM     28  C   UNL     1      -0.400   0.889  -1.077  0.00  0.00    +0.039 A 
ATOM     29  C   UNL     1      -1.513   1.624  -1.463  0.00  0.00    -0.029 A 
ATOM     30  C   UNL     1      -1.527   2.994  -1.291  0.00  0.00    +0.005 A 
ATOM     31  C   UNL     1      -0.430   3.635  -0.745  0.00  0.00    +0.001 A 
ATOM     32  C   UNL     1       0.682   2.907  -0.365  0.00  0.00    +0.005 A 
ATOM     33  C   UNL     1       0.700   1.535  -0.529  0.00  0.00    -0.029 A 
ATOM     34  C   UNL     1       1.912   0.742  -0.114  0.00  0.00    +0.045 C 
ATOM     35  C   UNL     1      -2.707   0.927  -2.063  0.00  0.00    +0.045 C 
ENDBRANCH  26  28
ENDBRANCH  23  24
ENDBRANCH   4  23
TORSDOF 9
