REMARK  Name = ZINC55410156
REMARK  7 active torsions:
REMARK  status: ('A' for Active; 'I' for Inactive)
REMARK    1  A    between atoms: C_1  and  C_2
REMARK    2  A    between atoms: C_9  and  C_11
REMARK    3  A    between atoms: N_13  and  N_14
REMARK    4  A    between atoms: C_15  and  C_17
REMARK    5  A    between atoms: C_17  and  O_18
REMARK    6  A    between atoms: O_18  and  C_19
REMARK    7  A    between atoms: C_23  and  C_25
REMARK                            x       y       z     vdW  Elec       q    Type
REMARK                         _______ _______ _______ _____ _____    ______ ____
ROOT
ATOM      1  N   UNL     1       2.228  -7.558   3.269  0.00  0.00    -0.231 N 
ATOM      2  C   UNL     1       1.838  -8.839   3.117  0.00  0.00    +0.267 C 
ATOM      3  O   UNL     1       0.894  -9.106   2.404  0.00  0.00    -0.271 OA
ATOM      4  H   UNL     1       2.982  -7.345   3.840  0.00  0.00    +0.173 HD
ENDROOT
BRANCH   1   7
ATOM      5  C   UNL     1       1.932  -5.253   2.755  0.00  0.00    +0.267 C 
ATOM      6  O   UNL     1       2.879  -4.985   3.471  0.00  0.00    -0.268 OA
ATOM      7  N   UNL     1       1.542  -6.534   2.603  0.00  0.00    -0.230 N 
ATOM      8  H   UNL     1       0.787  -6.747   2.032  0.00  0.00    +0.173 HD
BRANCH   5  16
ATOM      9  C   UNL     1      -0.019   1.526   0.010  0.00  0.00    +0.008 C 
ATOM     10  C   UNL     1       0.002  -0.004   0.002  0.00  0.00    -0.009 C 
ATOM     11  C   UNL     1      -1.435  -0.533   0.009  0.00  0.00    +0.009 C 
ATOM     12  C   UNL     1      -1.408  -2.041  -0.272  0.00  0.00    +0.043 C 
ATOM     13  C   UNL     1      -0.377  -2.671   0.618  0.00  0.00    -0.006 A 
ATOM     14  C   UNL     1       0.604  -2.027   1.313  0.00  0.00    -0.036 A 
ATOM     15  C   UNL     1       1.449  -2.818   2.077  0.00  0.00    +0.024 A 
ATOM     16  C   UNL     1       1.214  -4.181   2.057  0.00  0.00    +0.076 A 
ATOM     17  S   UNL     1      -0.189  -4.294   0.963  0.00  0.00    -0.088 S 
ATOM     18  C   UNL     1       0.745  -0.509   1.239  0.00  0.00    +0.039 C 
ENDBRANCH   5  16
ENDBRANCH   1   7
BRANCH   2  19
ATOM     19  C   UNL     1       2.576  -9.941   3.834  0.00  0.00    +0.326 C 
BRANCH  19  20
ATOM     20  O   UNL     1       1.978 -11.200   3.515  0.00  0.00    -0.483 OA
BRANCH  20  21
ATOM     21  C   UNL     1       2.528 -12.305   4.084  0.00  0.00    +0.122 A 
ATOM     22  C   UNL     1       3.617 -12.178   4.936  0.00  0.00    +0.046 A 
ATOM     23  C   UNL     1       4.180 -13.299   5.518  0.00  0.00    +0.004 A 
ATOM     24  C   UNL     1       3.664 -14.551   5.255  0.00  0.00    +0.013 A 
ATOM     25  C   UNL     1       2.570 -14.689   4.399  0.00  0.00    +0.040 A 
ATOM     26  C   UNL     1       1.998 -13.556   3.818  0.00  0.00    +0.058 A 
BRANCH  25  27
ATOM     27  C   UNL     1       2.014 -16.029   4.114  0.00  0.00    +0.242 C 
ATOM     28  O   UNL     1       1.061 -16.146   3.369  0.00  0.00    -0.270 OA
ATOM     29  N   UNL     1       2.565 -17.121   4.681  0.00  0.00    -0.325 N 
ATOM     30  H   UNL     1       3.325 -17.028   5.276  0.00  0.00    +0.145 HD
ATOM     31  H   UNL     1       2.200 -18.000   4.494  0.00  0.00    +0.145 HD
ENDBRANCH  25  27
ENDBRANCH  20  21
ENDBRANCH  19  20
ENDBRANCH   2  19
TORSDOF 6
