REMARK  Name = ZINC38592292
REMARK  6 active torsions:
REMARK  status: ('A' for Active; 'I' for Inactive)
REMARK    1  A    between atoms: C_1  and  C_2
REMARK    2  A    between atoms: C_2  and  O_3
REMARK    3  A    between atoms: O_3  and  C_4
REMARK    4  A    between atoms: C_11  and  S_13
REMARK    5  A    between atoms: S_13  and  C_14
REMARK    6  A    between atoms: C_16  and  C_27
REMARK                            x       y       z     vdW  Elec       q    Type
REMARK                         _______ _______ _______ _____ _____    ______ ____
ROOT
ATOM      1  C   UNL     1      -2.594  -9.052   0.087  0.00  0.00    +0.170 C 
ATOM      2  C   UNL     1      -2.813 -10.515  -0.245  0.00  0.00    -0.009 C 
ATOM      3  C   UNL     1      -2.264 -11.454   0.633  0.00  0.00    +0.003 A 
ATOM      4  C   UNL     1      -2.420 -12.836   0.400  0.00  0.00    +0.030 A 
ATOM      5  C   UNL     1      -1.875 -13.729   1.271  0.00  0.00    +0.042 A 
ATOM      6  C   UNL     1      -1.164 -13.305   2.392  0.00  0.00    +0.022 A 
ATOM      7  C   UNL     1      -0.981 -11.985   2.670  0.00  0.00    +0.025 A 
ATOM      8  C   UNL     1      -1.516 -11.006   1.813  0.00  0.00    +0.041 A 
ATOM      9  N   UNL     1      -1.334  -9.710   2.087  0.00  0.00    -0.284 N 
ATOM     10  C   UNL     1      -1.803  -8.734   1.336  0.00  0.00    +0.235 C 
ATOM     11  O   UNL     1      -1.599  -7.576   1.648  0.00  0.00    -0.274 OA
ATOM     12 CL   UNL     1      -2.069 -15.429   0.979  0.00  0.00    -0.084 Cl
ATOM     13  H   UNL     1      -0.830  -9.475   2.882  0.00  0.00    +0.155 HD
ENDROOT
BRANCH   2  14
ATOM     14  C   UNL     1      -3.542 -10.913  -1.394  0.00  0.00    -0.020 A 
ATOM     15  C   UNL     1      -4.755 -11.607  -1.256  0.00  0.00    +0.008 A 
ATOM     16  C   UNL     1      -5.455 -11.989  -2.379  0.00  0.00    +0.001 A 
ATOM     17  C   UNL     1      -4.967 -11.692  -3.640  0.00  0.00    +0.000 A 
ATOM     18  C   UNL     1      -3.771 -11.008  -3.787  0.00  0.00    +0.001 A 
ATOM     19  C   UNL     1      -3.058 -10.611  -2.678  0.00  0.00    +0.008 A 
ENDBRANCH   2  14
BRANCH   1  20
ATOM     20  S   UNL     1      -4.222  -8.267   0.244  0.00  0.00    -0.081 S 
BRANCH  20  28
ATOM     21  C   UNL     1      -2.607  -1.799   0.693  0.00  0.00    +0.122 A 
ATOM     22  C   UNL     1      -1.402  -2.483   0.568  0.00  0.00    +0.048 A 
ATOM     23  C   UNL     1      -1.363  -3.848   0.451  0.00  0.00    +0.032 A 
ATOM     24  C   UNL     1      -2.554  -4.609   0.455  0.00  0.00    +0.080 A 
ATOM     25  C   UNL     1      -3.760  -3.884   0.583  0.00  0.00    +0.043 A 
ATOM     26  C   UNL     1      -3.794  -2.517   0.704  0.00  0.00    +0.062 A 
ATOM     27  S   UNL     1      -4.983  -5.172   0.544  0.00  0.00    -0.061 S 
ATOM     28  C   UNL     1      -3.856  -6.547   0.366  0.00  0.00    +0.137 A 
ATOM     29  N   UNL     1      -2.686  -5.951   0.350  0.00  0.00    -0.233 NA
BRANCH  21  30
ATOM     30  O   UNL     1      -2.621  -0.444   0.807  0.00  0.00    -0.492 OA
BRANCH  30  32
ATOM     31  C   UNL     1      -1.573   1.730   0.926  0.00  0.00    +0.048 C 
ATOM     32  C   UNL     1      -1.357   0.222   0.786  0.00  0.00    +0.225 C 
ENDBRANCH  30  32
ENDBRANCH  21  30
ENDBRANCH  20  28
ENDBRANCH   1  20
TORSDOF 5
