REMARK  Name = ZINC63165716
REMARK  13 active torsions:
REMARK  status: ('A' for Active; 'I' for Inactive)
REMARK    1  A    between atoms: C_1  and  C_2
REMARK    2  A    between atoms: C_6  and  N_9
REMARK    3  A    between atoms: C_7  and  C_8
REMARK    4  A    between atoms: C_10  and  C_12
REMARK    5  A    between atoms: C_12  and  O_13
REMARK    6  A    between atoms: O_13  and  C_14
REMARK    7  A    between atoms: C_14  and  C_16
REMARK    8  A    between atoms: C_16  and  C_18
REMARK    9  A    between atoms: C_16  and  N_28
REMARK   10  A    between atoms: C_18  and  C_19
REMARK   11  A    between atoms: C_29  and  O_31
REMARK   12  A    between atoms: O_31  and  C_32
REMARK   13  A    between atoms: C_32  and  C_33
REMARK                            x       y       z     vdW  Elec       q    Type
REMARK                         _______ _______ _______ _____ _____    ______ ____
ROOT
ATOM      1  C   UNL     1      -0.424  -8.720   4.314  0.00  0.00    +0.189 C 
ENDROOT
BRANCH   1   2
ATOM      2  N   UNL     1      -0.505  -9.516   5.541  0.00  0.00    -0.268 N 
ATOM      3  C   UNL     1      -1.129 -10.711   5.529  0.00  0.00    +0.401 C 
ATOM      4  O   UNL     1      -1.625 -11.127   4.501  0.00  0.00    -0.226 OA
ATOM      5  H   UNL     1      -0.110  -9.184   6.362  0.00  0.00    +0.153 HD
BRANCH   3   6
ATOM      6  O   UNL     1      -1.204 -11.443   6.657  0.00  0.00    -0.446 OA
BRANCH   6   7
ATOM      7  C   UNL     1      -1.879 -12.699   6.571  0.00  0.00    +0.269 C 
BRANCH   7   8
ATOM      8  C   UNL     1      -1.863 -13.371   7.920  0.00  0.00    -0.010 A 
ATOM      9  C   UNL     1      -0.820 -14.211   8.261  0.00  0.00    +0.007 A 
ATOM     10  C   UNL     1      -0.804 -14.828   9.498  0.00  0.00    +0.000 A 
ATOM     11  C   UNL     1      -1.832 -14.603  10.395  0.00  0.00    +0.000 A 
ATOM     12  C   UNL     1      -2.875 -13.762  10.054  0.00  0.00    +0.000 A 
ATOM     13  C   UNL     1      -2.888 -13.142   8.819  0.00  0.00    +0.007 A 
ENDBRANCH   7   8
ENDBRANCH   6   7
ENDBRANCH   3   6
ENDBRANCH   1   2
BRANCH   1  14
ATOM     14  C   UNL     1      -0.383  -7.255   4.668  0.00  0.00    +0.329 C 
ATOM     15  O   UNL     1      -0.418  -6.912   5.825  0.00  0.00    -0.249 OA
BRANCH  14  16
ATOM     16  O   UNL     1      -0.308  -6.332   3.696  0.00  0.00    -0.454 OA
BRANCH  16  17
ATOM     17  C   UNL     1      -0.272  -4.963   4.103  0.00  0.00    +0.328 C 
BRANCH  17  19
ATOM     18  N   UNL     1      -0.143  -2.739   3.028  0.00  0.00    -0.282 N 
ATOM     19  C   UNL     1      -0.188  -4.079   2.886  0.00  0.00    +0.255 C 
ATOM     20  O   UNL     1      -0.161  -4.572   1.778  0.00  0.00    -0.272 OA
ATOM     21  H   UNL     1      -0.086  -2.347   3.913  0.00  0.00    +0.155 HD
BRANCH  18  27
ATOM     22  C   UNL     1       0.904   1.566   0.896  0.00  0.00    +0.044 C 
ATOM     23  C   UNL     1       0.321   0.177   0.837  0.00  0.00    -0.046 A 
ATOM     24  C   UNL     1      -0.250  -0.283  -0.336  0.00  0.00    +0.004 A 
ATOM     25  C   UNL     1      -0.785  -1.557  -0.394  0.00  0.00    +0.002 A 
ATOM     26  C   UNL     1      -0.751  -2.373   0.719  0.00  0.00    +0.023 A 
ATOM     27  C   UNL     1      -0.179  -1.914   1.898  0.00  0.00    +0.037 A 
ATOM     28  C   UNL     1       0.363  -0.636   1.952  0.00  0.00    -0.026 A 
ATOM     29  C   UNL     1       0.990  -0.136   3.227  0.00  0.00    +0.046 C 
ENDBRANCH  18  27
ENDBRANCH  17  19
ENDBRANCH  16  17
ENDBRANCH  14  16
ENDBRANCH   1  14
BRANCH   1  30
ATOM     30  C   UNL     1       0.844  -9.095   3.546  0.00  0.00    +0.067 C 
BRANCH  30  31
ATOM     31  C   UNL     1       2.045  -8.910   4.437  0.00  0.00    -0.039 C 
ATOM     32  C   UNL     1       2.659  -9.858   5.181  0.00  0.00    -0.001 A 
ATOM     33  C   UNL     1       2.402 -11.290   5.377  0.00  0.00    +0.010 A 
ATOM     34  C   UNL     1       3.207 -11.994   6.204  0.00  0.00    +0.001 A 
ATOM     35  C   UNL     1       4.278 -11.392   6.879  0.00  0.00    +0.002 A 
ATOM     36  C   UNL     1       4.577 -10.082   6.750  0.00  0.00    +0.026 A 
ATOM     37  C   UNL     1       3.797  -9.246   5.905  0.00  0.00    +0.043 A 
ATOM     38  N   UNL     1       3.882  -7.970   5.619  0.00  0.00    -0.380 N 
ATOM     39  C   UNL     1       2.812  -7.628   4.676  0.00  0.00    +0.144 C 
ATOM     40  H   UNL     1       4.546  -7.354   5.969  0.00  0.00    +0.160 HD
ENDBRANCH  30  31
ENDBRANCH   1  30
TORSDOF 11
