REMARK  Name = ZINC63463102
REMARK  4 active torsions:
REMARK  status: ('A' for Active; 'I' for Inactive)
REMARK    1  A    between atoms: N_21  and  N_22
REMARK    2  A    between atoms: N_22  and  C_23
REMARK    3  A    between atoms: C_23  and  N_25
REMARK    4  A    between atoms: N_25  and  C_26
REMARK                            x       y       z     vdW  Elec       q    Type
REMARK                         _______ _______ _______ _____ _____    ______ ____
ROOT
ATOM      1  C   UNL     1      -0.017   1.378   0.010  0.00  0.00    +0.000 A 
ATOM      2  C   UNL     1       1.166   2.099   0.002  0.00  0.00    +0.001 A 
ATOM      3  C   UNL     1       2.375   1.436  -0.019  0.00  0.00    +0.010 A 
ATOM      4  C   UNL     1       2.399   0.038  -0.030  0.00  0.00    -0.002 A 
ATOM      5  C   UNL     1       1.204  -0.689  -0.013  0.00  0.00    -0.038 A 
ATOM      6  C   UNL     1       0.002  -0.004   0.002  0.00  0.00    +0.004 A 
ATOM      7  C   UNL     1       1.186  -2.193   0.003  0.00  0.00    +0.043 C 
ATOM      8  C   UNL     1       2.504  -2.782  -0.486  0.00  0.00    -0.009 C 
ATOM      9  C   UNL     1       2.511  -4.306  -0.273  0.00  0.00    +0.008 C 
ATOM     10  C   UNL     1       2.076  -4.882  -1.644  0.00  0.00    +0.001 C 
ATOM     11  C   UNL     1       2.771  -3.932  -2.652  0.00  0.00    +0.001 C 
ATOM     12  C   UNL     1       2.663  -2.540  -1.994  0.00  0.00    +0.008 C 
ATOM     13  C   UNL     1       3.669  -2.148   0.270  0.00  0.00    +0.131 C 
ATOM     14  C   UNL     1       3.684  -0.677  -0.067  0.00  0.00    +0.038 C 
ATOM     15  N   UNL     1       4.789  -0.069  -0.388  0.00  0.00    -0.331 N 
ATOM     16  C   UNL     1       5.944  -0.730  -0.548  0.00  0.00    +0.202 C 
ATOM     17  N   UNL     1       6.021  -2.047  -0.447  0.00  0.00    -0.147 NA
ATOM     18  C   UNL     1       4.978  -2.769  -0.108  0.00  0.00    +0.248 C 
ATOM     19  O   UNL     1       5.093  -3.979  -0.091  0.00  0.00    -0.273 OA
ATOM     20  N   UNL     1       7.079  -0.020  -0.826  0.00  0.00    -0.237 N 
ATOM     21  H   UNL     1       4.776   0.892  -0.516  0.00  0.00    +0.168 HD
ATOM     22  H   UNL     1       7.040   0.946  -0.904  0.00  0.00    +0.173 HD
ENDROOT
BRANCH  20  23
ATOM     23  N   UNL     1       8.299  -0.688  -0.998  0.00  0.00    -0.246 N 
ATOM     24  H   UNL     1       8.338  -1.654  -0.920  0.00  0.00    +0.172 HD
BRANCH  23  25
ATOM     25  C   UNL     1       9.418   0.011  -1.271  0.00  0.00    +0.147 C 
ATOM     26  S   UNL     1      10.908  -0.805  -1.481  0.00  0.00    -0.017 S 
BRANCH  25  27
ATOM     27  N   UNL     1       9.364   1.354  -1.379  0.00  0.00    -0.323 N 
ATOM     28  H   UNL     1       8.520   1.816  -1.260  0.00  0.00    +0.148 HD
BRANCH  27  29
ATOM     29  C   UNL     1      10.580   2.114  -1.677  0.00  0.00    +0.072 C 
ATOM     30  C   UNL     1      11.336   2.396  -0.377  0.00  0.00    +0.022 C 
ATOM     31  C   UNL     1      12.606   3.190  -0.687  0.00  0.00    +0.002 C 
ATOM     32  C   UNL     1      12.230   4.514  -1.355  0.00  0.00    +0.000 C 
ATOM     33  C   UNL     1      11.474   4.232  -2.655  0.00  0.00    +0.002 C 
ATOM     34  C   UNL     1      10.204   3.438  -2.345  0.00  0.00    +0.022 C 
ENDBRANCH  27  29
ENDBRANCH  25  27
ENDBRANCH  23  25
ENDBRANCH  20  23
TORSDOF 4
