REMARK  Name = ZINC48192627
REMARK  10 active torsions:
REMARK  status: ('A' for Active; 'I' for Inactive)
REMARK    1  A    between atoms: C_1  and  C_2
REMARK    2  A    between atoms: C_5  and  C_29
REMARK    3  A    between atoms: N_8  and  C_10
REMARK    4  A    between atoms: C_10  and  C_11
REMARK    5  A    between atoms: C_11  and  N_12
REMARK    6  A    between atoms: N_15  and  C_16
REMARK    7  A    between atoms: C_16  and  C_18
REMARK    8  A    between atoms: C_16  and  C_19
REMARK    9  A    between atoms: C_23  and  S_25
REMARK   10  A    between atoms: S_25  and  N_28
REMARK                            x       y       z     vdW  Elec       q    Type
REMARK                         _______ _______ _______ _____ _____    ______ ____
ROOT
ATOM      1  N   UNL     1       2.927  -0.202   4.830  0.00  0.00    -0.301 N 
ATOM      2  C   UNL     1       4.167   0.278   5.047  0.00  0.00    +0.300 C 
ATOM      3  O   UNL     1       4.662   1.061   4.260  0.00  0.00    -0.253 OA
ATOM      4  N   UNL     1       4.859  -0.111   6.136  0.00  0.00    -0.293 N 
ATOM      5  H   UNL     1       2.532  -0.827   5.457  0.00  0.00    +0.150 HD
ATOM      6  H   UNL     1       4.465  -0.737   6.763  0.00  0.00    +0.151 HD
ENDROOT
BRANCH   4   7
ATOM      7  C   UNL     1       6.208   0.410   6.371  0.00  0.00    +0.102 C 
ATOM      8  C   UNL     1       6.116   1.756   7.092  0.00  0.00    +0.033 C 
BRANCH   7   9
ATOM      9  C   UNL     1       6.981  -0.564   7.223  0.00  0.00    -0.026 A 
ATOM     10  C   UNL     1       6.356  -1.213   8.272  0.00  0.00    +0.005 A 
ATOM     11  C   UNL     1       7.065  -2.106   9.053  0.00  0.00    +0.002 A 
ATOM     12  C   UNL     1       8.399  -2.351   8.786  0.00  0.00    +0.028 A 
ATOM     13  C   UNL     1       9.024  -1.702   7.737  0.00  0.00    +0.105 A 
ATOM     14  C   UNL     1       8.314  -0.812   6.953  0.00  0.00    +0.034 A 
BRANCH  13  15
ATOM     15  S   UNL     1      10.725  -2.014   7.396  0.00  0.00    +0.056 S 
ATOM     16  O   UNL     1      11.215  -0.874   6.705  0.00  0.00    -0.153 OA
ATOM     17  O   UNL     1      11.303  -2.477   8.609  0.00  0.00    -0.153 OA
BRANCH  15  18
ATOM     18  N   UNL     1      10.787  -3.278   6.329  0.00  0.00    -0.204 NA
ATOM     19  H   UNL     1       9.966  -3.692   6.019  0.00  0.00    +0.144 HD
ATOM     20  H   UNL     1      11.644  -3.605   6.014  0.00  0.00    +0.144 HD
ENDBRANCH  15  18
ENDBRANCH  13  15
ENDBRANCH   7   9
ENDBRANCH   4   7
BRANCH   1  21
ATOM     21  C   UNL     1       2.174   0.221   3.646  0.00  0.00    +0.087 C 
BRANCH  21  22
ATOM     22  C   UNL     1       0.807  -0.464   3.639  0.00  0.00    -0.060 C 
BRANCH  22  28
ATOM     23  C   UNL     1      -0.019   1.526   0.010  0.00  0.00    +0.005 C 
ATOM     24  C   UNL     1       0.002  -0.004   0.002  0.00  0.00    -0.031 C 
ATOM     25  C   UNL     1      -1.434  -0.535   0.015  0.00  0.00    +0.003 C 
ATOM     26  C   UNL     1      -2.117  -0.099   1.315  0.00  0.00    -0.031 C 
ATOM     27  C   UNL     1      -1.302  -0.604   2.507  0.00  0.00    -0.076 C 
ATOM     28  N   UNL     1       0.052  -0.040   2.452  0.00  0.00    +0.381 N 
ATOM     29  C   UNL     1       0.740  -0.512   1.242  0.00  0.00    -0.076 C 
ATOM     30  C   UNL     1      -3.528  -0.689   1.373  0.00  0.00    +0.005 C 
ATOM     31  H   UNL     1      -0.004   0.967   2.434  0.00  0.00    -0.082 HD
ENDBRANCH  22  28
ENDBRANCH  21  22
ENDBRANCH   1  21
TORSDOF 7
