REMARK  Name = ZINC66156373
REMARK  12 active torsions:
REMARK  status: ('A' for Active; 'I' for Inactive)
REMARK    1  A    between atoms: C_1  and  C_2
REMARK    2  A    between atoms: C_2  and  C_30
REMARK    3  A    between atoms: C_7  and  C_11
REMARK    4  A    between atoms: C_11  and  O_12
REMARK    5  A    between atoms: O_12  and  C_13
REMARK    6  A    between atoms: C_13  and  C_14
REMARK    7  A    between atoms: C_14  and  C_16
REMARK    8  A    between atoms: C_14  and  O_29
REMARK    9  A    between atoms: C_16  and  N_17
REMARK   10  A    between atoms: C_21  and  C_24
REMARK   11  A    between atoms: C_24  and  C_25
REMARK   12  A    between atoms: C_25  and  C_26
REMARK                            x       y       z     vdW  Elec       q    Type
REMARK                         _______ _______ _______ _____ _____    ______ ____
ROOT
ATOM      1  C   UNL     1      -0.484  -6.455   3.158  0.00  0.00    +0.124 C 
ENDROOT
BRANCH   1   2
ATOM      2  O   UNL     1      -1.559  -6.575   2.225  0.00  0.00    -0.391 OA
ATOM      3  H   UNL     1      -2.407  -6.250   2.558  0.00  0.00    +0.210 HD
ENDBRANCH   1   2
BRANCH   1   4
ATOM      4  C   UNL     1      -0.290  -4.982   3.525  0.00  0.00    +0.189 C 
BRANCH   4   5
ATOM      5  O   UNL     1       0.129  -4.254   2.369  0.00  0.00    -0.373 OA
BRANCH   5   6
ATOM      6  C   UNL     1       0.339  -2.860   2.605  0.00  0.00    +0.190 C 
BRANCH   6  12
ATOM      7  C   UNL     1       0.471   1.473   0.021  0.00  0.00    +0.012 C 
ATOM      8  C   UNL     1       0.453  -0.057   0.021  0.00  0.00    -0.025 C 
ATOM      9  C   UNL     1       1.630  -0.696  -0.744  0.00  0.00    -0.000 C 
ATOM     10  C   UNL     1       1.345  -2.172  -1.049  0.00  0.00    +0.031 C 
ATOM     11  C   UNL     1       0.913  -2.879   0.213  0.00  0.00    -0.025 C 
ATOM     12  C   UNL     1       0.776  -2.194   1.325  0.00  0.00    -0.045 C 
ATOM     13  C   UNL     1       1.086  -0.687   1.276  0.00  0.00    +0.023 C 
ATOM     14  C   UNL     1       2.437  -0.477   0.547  0.00  0.00    +0.013 C 
ATOM     15  C   UNL     1      -0.915  -0.640  -0.341  0.00  0.00    +0.012 C 
ENDBRANCH   6  12
ENDBRANCH   5   6
ENDBRANCH   4   5
ENDBRANCH   1   4
BRANCH   1  16
ATOM     16  C   UNL     1      -0.810  -7.256   4.420  0.00  0.00    -0.045 C 
BRANCH  16  17
ATOM     17  N   UNL     1      -0.982  -8.672   4.069  0.00  0.00    +0.382 N 
ATOM     18  C   UNL     1      -1.445  -9.414   5.248  0.00  0.00    -0.079 C 
ATOM     19  C   UNL     1      -1.702 -10.874   4.868  0.00  0.00    -0.018 C 
ATOM     20  C   UNL     1      -0.403 -11.497   4.349  0.00  0.00    -0.000 C 
ATOM     21  C   UNL     1       0.110 -10.671   3.166  0.00  0.00    -0.027 C 
ATOM     22  C   UNL     1       0.301  -9.219   3.609  0.00  0.00    -0.075 C 
ATOM     23  H   UNL     1      -1.665  -8.755   3.332  0.00  0.00    -0.082 HD
BRANCH  21  24
ATOM     24  C   UNL     1       1.448 -11.240   2.688  0.00  0.00    +0.011 C 
BRANCH  24  25
ATOM     25  C   UNL     1       1.234 -12.650   2.135  0.00  0.00    +0.096 C 
BRANCH  25  26
ATOM     26  C   UNL     1       2.552 -13.211   1.665  0.00  0.00    +0.210 C 
ATOM     27  O   UNL     1       3.562 -12.547   1.762  0.00  0.00    -0.276 OA
ATOM     28  N   UNL     1       2.607 -14.449   1.135  0.00  0.00    -0.329 N 
ATOM     29  H   UNL     1       1.799 -14.979   1.057  0.00  0.00    +0.145 HD
ATOM     30  H   UNL     1       3.455 -14.809   0.832  0.00  0.00    +0.145 HD
ENDBRANCH  25  26
ENDBRANCH  24  25
ENDBRANCH  21  24
ENDBRANCH  16  17
ENDBRANCH   1  16
TORSDOF 10
