REMARK  Name = ZINC35555995
REMARK  6 active torsions:
REMARK  status: ('A' for Active; 'I' for Inactive)
REMARK    1  A    between atoms: C_6  and  N_7
REMARK    2  A    between atoms: C_14  and  C_34
REMARK    3  A    between atoms: C_18  and  C_23
REMARK    4  A    between atoms: N_25  and  C_26
REMARK    5  A    between atoms: C_26  and  C_27
REMARK    6  A    between atoms: C_27  and  N_28
REMARK                            x       y       z     vdW  Elec       q    Type
REMARK                         _______ _______ _______ _____ _____    ______ ____
ROOT
ATOM      1  N   UNL     1      -1.198  -0.721   0.010  0.00  0.00    -0.327 N 
ATOM      2  C   UNL     1      -2.462  -0.003   0.131  0.00  0.00    +0.124 C 
ATOM      3  C   UNL     1      -3.303  -0.581   1.253  0.00  0.00    +0.124 C 
ATOM      4  N   UNL     1      -3.215  -2.026   1.360  0.00  0.00    -0.323 N 
ATOM      5  C   UNL     1      -4.175  -2.693   2.149  0.00  0.00    +0.033 A 
ATOM      6  C   UNL     1      -5.388  -2.068   2.406  0.00  0.00    +0.024 A 
ATOM      7  C   UNL     1      -6.336  -2.701   3.186  0.00  0.00    +0.014 A 
ATOM      8  C   UNL     1      -6.070  -3.954   3.708  0.00  0.00    +0.055 A 
ATOM      9  C   UNL     1      -4.865  -4.576   3.449  0.00  0.00    +0.017 A 
ATOM     10  C   UNL     1      -3.909  -3.952   2.661  0.00  0.00    -0.025 A 
ATOM     11  C   UNL     1      -2.620  -4.680   2.383  0.00  0.00    +0.051 C 
ATOM     12  C   UNL     1      -1.550  -3.719   1.858  0.00  0.00    +0.101 C 
ATOM     13  C   UNL     1      -2.180  -2.852   0.769  0.00  0.00    +0.103 C 
ATOM     14  C   UNL     1      -1.168  -2.170  -0.108  0.00  0.00    +0.128 C 
ENDROOT
BRANCH   1  20
ATOM     15  C   UNL     1       1.215  -0.680   0.000  0.00  0.00    +0.026 A 
ATOM     16  C   UNL     1       2.400   0.030  -0.008  0.00  0.00    +0.040 A 
ATOM     17  C   UNL     1       2.379   1.414  -0.015  0.00  0.00    +0.124 A 
ATOM     18  C   UNL     1       1.170   2.090  -0.013  0.00  0.00    +0.040 A 
ATOM     19  C   UNL     1      -0.017   1.385  -0.004  0.00  0.00    +0.026 A 
ATOM     20  C   UNL     1       0.002  -0.004   0.002  0.00  0.00    +0.030 A 
ATOM     21  F   UNL     1       3.539   2.107  -0.023  0.00  0.00    -0.205 F 
ENDBRANCH   1  20
BRANCH  12  22
ATOM     22  C   UNL     1      -1.056  -2.844   2.982  0.00  0.00    +0.218 C 
ATOM     23  O   UNL     1      -1.174  -1.639   2.910  0.00  0.00    -0.275 OA
ATOM     24  N   UNL     1      -0.484  -3.401   4.067  0.00  0.00    -0.317 N 
ATOM     25  H   UNL     1      -0.390  -4.365   4.125  0.00  0.00    +0.149 HD
BRANCH  24  26
ATOM     26  C   UNL     1      -0.004  -2.552   5.160  0.00  0.00    +0.085 C 
BRANCH  26  27
ATOM     27  C   UNL     1       0.598  -3.428   6.261  0.00  0.00    -0.060 C 
BRANCH  27  28
ATOM     28  N   UNL     1       1.079  -2.575   7.356  0.00  0.00    +0.381 N 
ATOM     29  C   UNL     1       2.180  -1.734   6.872  0.00  0.00    -0.079 C 
ATOM     30  C   UNL     1       2.632  -0.787   7.986  0.00  0.00    -0.019 C 
ATOM     31  C   UNL     1       3.106  -1.611   9.187  0.00  0.00    -0.004 C 
ATOM     32  C   UNL     1       1.974  -2.538   9.637  0.00  0.00    -0.019 C 
ATOM     33  C   UNL     1       1.547  -3.420   8.462  0.00  0.00    -0.079 C 
ATOM     34  H   UNL     1       0.326  -1.987   7.679  0.00  0.00    -0.082 HD
ENDBRANCH  27  28
ENDBRANCH  26  27
ENDBRANCH  24  26
ENDBRANCH  12  22
BRANCH   8  35
ATOM     35  C   UNL     1      -7.101  -4.644   4.564  0.00  0.00    +0.417 C 
ATOM     36  F   UNL     1      -8.229  -3.826   4.685  0.00  0.00    -0.166 F 
ATOM     37  F   UNL     1      -7.465  -5.856   3.969  0.00  0.00    -0.166 F 
ATOM     38  F   UNL     1      -6.564  -4.889   5.833  0.00  0.00    -0.166 F 
ENDBRANCH   8  35
TORSDOF 6
