REMARK  Name = ZINC20463680
REMARK  9 active torsions:
REMARK  status: ('A' for Active; 'I' for Inactive)
REMARK    1  A    between atoms: C_1  and  C_2
REMARK    2  A    between atoms: N_7  and  C_10
REMARK    3  A    between atoms: C_12  and  O_34
REMARK    4  A    between atoms: C_14  and  N_23
REMARK    5  A    between atoms: N_23  and  C_24
REMARK    6  A    between atoms: C_24  and  C_25
REMARK    7  A    between atoms: C_28  and  O_32
REMARK    8  A    between atoms: C_30  and  O_31
REMARK    9  A    between atoms: O_32  and  C_33
REMARK                            x       y       z     vdW  Elec       q    Type
REMARK                         _______ _______ _______ _____ _____    ______ ____
ROOT
ATOM      1  C   UNL     1      -9.253   2.756   0.439  0.00  0.00    +0.140 C 
ATOM      2  C   UNL     1      -9.272   1.958   1.752  0.00  0.00    +0.125 C 
ATOM      3  C   UNL     1      -8.427   0.691   1.581  0.00  0.00    -0.009 C 
ATOM      4  C   UNL     1      -8.900  -0.050   0.319  0.00  0.00    +0.136 C 
ATOM      5  C   UNL     1     -10.447  -0.071   0.338  0.00  0.00    +0.193 C 
ATOM      6  O   UNL     1     -10.842   1.125  -0.356  0.00  0.00    -0.347 OA
ATOM      7  C   UNL     1      -9.634   1.819  -0.718  0.00  0.00    +0.270 C 
ATOM      8  O   UNL     1      -8.609   0.805  -0.814  0.00  0.00    -0.346 OA
ENDROOT
BRANCH   1  15
ATOM      9  C   UNL     1      -4.678   7.098   0.672  0.00  0.00    +0.109 C 
ATOM     10  C   UNL     1      -5.279   6.334  -0.479  0.00  0.00    +0.213 C 
ATOM     11  O   UNL     1      -5.226   6.789  -1.603  0.00  0.00    -0.276 OA
ATOM     12  N   UNL     1      -5.874   5.145  -0.262  0.00  0.00    -0.299 N 
ATOM     13  C   UNL     1      -6.358   4.326  -1.384  0.00  0.00    +0.123 C 
ATOM     14  C   UNL     1      -7.814   3.936  -1.110  0.00  0.00    +0.104 C 
ATOM     15  N   UNL     1      -7.907   3.298   0.210  0.00  0.00    -0.290 NA
ATOM     16  C   UNL     1      -7.526   4.230   1.280  0.00  0.00    +0.104 C 
ATOM     17  C   UNL     1      -6.058   4.631   1.104  0.00  0.00    +0.123 C 
ENDBRANCH   1  15
BRANCH   3  18
ATOM     18  N   UNL     1      -7.012   1.057   1.436  0.00  0.00    +0.387 N 
ATOM     19  H   UNL     1      -6.802   1.302   0.384  0.00  0.00    -0.085 HD
ATOM     20  H   UNL     1      -6.793   1.932   2.066  0.00  0.00    -0.085 HD
BRANCH  18  21
ATOM     21  C   UNL     1      -6.137  -0.049   1.847  0.00  0.00    -0.042 C 
BRANCH  21  22
ATOM     22  C   UNL     1      -4.696   0.363   1.685  0.00  0.00    -0.023 A 
ATOM     23  C   UNL     1      -3.981  -0.048   0.576  0.00  0.00    +0.009 A 
ATOM     24  C   UNL     1      -2.662   0.333   0.422  0.00  0.00    +0.046 A 
ATOM     25  C   UNL     1      -2.049   1.121   1.386  0.00  0.00    +0.124 A 
ATOM     26  C   UNL     1      -2.764   1.534   2.499  0.00  0.00    +0.091 A 
ATOM     27  C   UNL     1      -4.089   1.155   2.648  0.00  0.00    +0.122 A 
BRANCH  27  28
ATOM     28  O   UNL     1      -4.793   1.559   3.739  0.00  0.00    -0.506 OA
ATOM     29  H   UNL     1      -4.311   2.187   4.503  0.00  0.00    +0.292 HD
ENDBRANCH  27  28
BRANCH  25  30
ATOM     30  O   UNL     1      -0.750   1.490   1.237  0.00  0.00    -0.495 OA
ATOM     31  C   UNL     1      -0.074   1.028   0.066  0.00  0.00    +0.277 C 
ENDBRANCH  25  30
ENDBRANCH  21  22
ENDBRANCH  18  21
ENDBRANCH   3  18
BRANCH   2  32
ATOM     32  O   UNL     1     -10.617   1.595   2.070  0.00  0.00    -0.392 OA
ATOM     33  H   UNL     1     -10.830   1.017   2.981  0.00  0.00    +0.210 HD
ENDBRANCH   2  32
TORSDOF 7
