REMARK  Name = ZINC44417836
REMARK  6 active torsions:
REMARK  status: ('A' for Active; 'I' for Inactive)
REMARK    1  A    between atoms: C_1  and  C_2
REMARK    2  A    between atoms: C_8  and  C_10
REMARK    3  A    between atoms: C_10  and  N_11
REMARK    4  A    between atoms: N_11  and  S_12
REMARK    5  A    between atoms: S_12  and  N_15
REMARK    6  A    between atoms: C_18  and  C_21
REMARK                            x       y       z     vdW  Elec       q    Type
REMARK                         _______ _______ _______ _____ _____    ______ ____
ROOT
ATOM      1  S   UNL     1       0.353   0.030   5.185  0.00  0.00    +0.097 S 
ATOM      2  O   UNL     1       1.087  -0.756   6.114  0.00  0.00    -0.141 OA
ATOM      3  O   UNL     1       0.521   1.437   5.077  0.00  0.00    -0.141 OA
ENDROOT
BRANCH   1   4
ATOM      4  N   UNL     1      -1.250  -0.233   5.505  0.00  0.00    -0.167 NA
ATOM      5  C   UNL     1      -2.263   0.759   5.118  0.00  0.00    +0.111 C 
ATOM      6  C   UNL     1      -3.340   0.063   4.280  0.00  0.00    +0.032 C 
ATOM      7  C   UNL     1      -3.895  -1.131   5.061  0.00  0.00    +0.105 C 
ATOM      8  C   UNL     1      -2.771  -2.133   5.331  0.00  0.00    +0.032 C 
ATOM      9  C   UNL     1      -1.688  -1.465   6.175  0.00  0.00    +0.111 C 
BRANCH   7  10
ATOM     10  C   UNL     1      -4.979  -1.798   4.254  0.00  0.00    +0.359 C 
ATOM     11  O   UNL     1      -5.177  -2.995   4.371  0.00  0.00    -0.246 OA
ATOM     12  O   UNL     1      -5.659  -1.141   3.484  0.00  0.00    -0.246 OA
ENDBRANCH   7  10
ENDBRANCH   1   4
BRANCH   1  13
ATOM     13  N   UNL     1       0.663  -0.600   3.684  0.00  0.00    -0.179 NA
ATOM     14  H   UNL     1       1.266  -1.353   3.590  0.00  0.00    +0.149 HD
BRANCH  13  15
ATOM     15  C   UNL     1       0.026  -0.018   2.500  0.00  0.00    +0.110 C 
BRANCH  15  22
ATOM     16  C   UNL     1      -0.019   1.526   0.010  0.00  0.00    +0.008 C 
ATOM     17  C   UNL     1       0.002  -0.004   0.002  0.00  0.00    -0.010 C 
ATOM     18  C   UNL     1       0.718  -0.497  -1.257  0.00  0.00    +0.003 C 
ATOM     19  C   UNL     1       2.154   0.032  -1.268  0.00  0.00    +0.000 C 
ATOM     20  C   UNL     1       2.894  -0.475  -0.028  0.00  0.00    +0.000 C 
ATOM     21  C   UNL     1       2.178   0.019   1.231  0.00  0.00    +0.005 C 
ATOM     22  C   UNL     1       0.742  -0.511   1.242  0.00  0.00    +0.007 C 
ENDBRANCH  15  22
ENDBRANCH  13  15
ENDBRANCH   1  13
TORSDOF 5
