REMARK  Name = ZINC32542437
REMARK  9 active torsions:
REMARK  status: ('A' for Active; 'I' for Inactive)
REMARK    1  A    between atoms: C_1  and  C_2
REMARK    2  A    between atoms: C_2  and  C_4
REMARK    3  A    between atoms: C_2  and  N_14
REMARK    4  A    between atoms: C_7  and  S_10
REMARK    5  A    between atoms: S_10  and  N_13
REMARK    6  A    between atoms: N_14  and  C_15
REMARK    7  A    between atoms: N_14  and  C_16
REMARK    8  A    between atoms: C_16  and  C_17
REMARK    9  A    between atoms: N_19  and  C_20
REMARK                            x       y       z     vdW  Elec       q    Type
REMARK                         _______ _______ _______ _____ _____    ______ ____
ROOT
ATOM      1  N   UNL     1      -3.493   4.407   4.637  0.00  0.00    +0.388 N 
ATOM      2  C   UNL     1      -2.322   5.284   4.496  0.00  0.00    -0.095 C 
ATOM      3  H   UNL     1      -4.065   4.453   3.699  0.00  0.00    -0.081 HD
ENDROOT
BRANCH   1   5
ATOM      4  C   UNL     1      -2.078   2.607   3.767  0.00  0.00    -0.008 C 
ATOM      5  C   UNL     1      -3.083   3.012   4.847  0.00  0.00    -0.041 C 
BRANCH   5   6
ATOM      6  C   UNL     1      -4.292   2.116   4.768  0.00  0.00    -0.061 A 
ATOM      7  C   UNL     1      -4.383   1.004   5.585  0.00  0.00    +0.004 A 
ATOM      8  C   UNL     1      -5.492   0.182   5.512  0.00  0.00    +0.029 A 
ATOM      9  C   UNL     1      -6.510   0.472   4.623  0.00  0.00    +0.105 A 
ATOM     10  C   UNL     1      -6.417   1.581   3.803  0.00  0.00    +0.029 A 
ATOM     11  C   UNL     1      -5.311   2.406   3.880  0.00  0.00    +0.004 A 
BRANCH   9  12
ATOM     12  S   UNL     1      -7.924  -0.576   4.531  0.00  0.00    +0.056 S 
ATOM     13  O   UNL     1      -7.517  -1.851   5.010  0.00  0.00    -0.153 OA
ATOM     14  O   UNL     1      -8.482  -0.392   3.237  0.00  0.00    -0.153 OA
BRANCH  12  15
ATOM     15  N   UNL     1      -9.035   0.004   5.613  0.00  0.00    -0.204 NA
ATOM     16  H   UNL     1      -9.937  -0.626   5.585  0.00  0.00    +0.144 HD
ATOM     17  H   UNL     1      -9.302   1.037   5.346  0.00  0.00    +0.144 HD
ENDBRANCH  12  15
ENDBRANCH   9  12
ENDBRANCH   5   6
ENDBRANCH   1   5
BRANCH   1  18
ATOM     18  C   UNL     1      -4.368   4.867   5.724  0.00  0.00    +0.019 C 
BRANCH  18  19
ATOM     19  C   UNL     1      -4.962   6.203   5.358  0.00  0.00    +0.201 C 
ATOM     20  O   UNL     1      -4.684   6.720   4.296  0.00  0.00    -0.278 OA
ATOM     21  N   UNL     1      -5.803   6.822   6.210  0.00  0.00    -0.285 N 
ATOM     22  H   UNL     1      -6.109   6.323   7.141  0.00  0.00    +0.155 HD
BRANCH  21  23
ATOM     23  C   UNL     1      -6.285   8.099   5.911  0.00  0.00    +0.062 A 
ATOM     24  C   UNL     1      -6.541   8.446   4.620  0.00  0.00    +0.025 A 
ATOM     25  C   UNL     1      -7.022   9.710   4.289  0.00  0.00    +0.004 A 
ATOM     26  C   UNL     1      -7.257  10.652   5.235  0.00  0.00    +0.031 A 
ATOM     27  C   UNL     1      -7.014  10.363   6.604  0.00  0.00    +0.102 A 
ATOM     28  C   UNL     1      -6.514   9.038   6.957  0.00  0.00    +0.121 A 
ATOM     29  N   UNL     1      -6.337   8.904   8.269  0.00  0.00    -0.189 NA
ATOM     30  S   UNL     1      -6.758  10.270   8.910  0.00  0.00    +0.117 S 
ATOM     31  N   UNL     1      -7.177  11.138   7.674  0.00  0.00    -0.191 NA
ENDBRANCH  21  23
ENDBRANCH  18  19
ENDBRANCH   1  18
TORSDOF 7
