REMARK  Name = ZINC22788695
REMARK  7 active torsions:
REMARK  status: ('A' for Active; 'I' for Inactive)
REMARK    1  A    between atoms: C_1  and  C_2
REMARK    2  A    between atoms: C_2  and  C_4
REMARK    3  A    between atoms: C_2  and  N_16
REMARK    4  A    between atoms: N_9  and  C_10
REMARK    5  A    between atoms: N_19  and  C_22
REMARK    6  A    between atoms: C_22  and  C_23
REMARK    7  A    between atoms: N_25  and  C_26
REMARK                            x       y       z     vdW  Elec       q    Type
REMARK                         _______ _______ _______ _____ _____    ______ ____
ROOT
ATOM      1  C   UNL     1      -4.879  -0.067   1.274  0.00  0.00    +0.034 C 
ATOM      2  C   UNL     1      -4.816   0.821   0.029  0.00  0.00    +0.140 C 
ENDROOT
BRANCH   2   3
ATOM      3  C   UNL     1      -3.522   1.592   0.027  0.00  0.00    +0.237 C 
ATOM      4  O   UNL     1      -3.538   2.804   0.034  0.00  0.00    -0.274 OA
ATOM      5  N   UNL     1      -2.345   0.934   0.018  0.00  0.00    -0.239 N 
ATOM      6  C   UNL     1      -1.187   1.624   0.017  0.00  0.00    +0.306 C 
ATOM      7  O   UNL     1      -1.204   2.839   0.023  0.00  0.00    -0.252 OA
ATOM      8  N   UNL     1      -0.011   0.966   0.007  0.00  0.00    -0.296 N 
ATOM      9  H   UNL     1      -2.330  -0.166   0.012  0.00  0.00    +0.159 HD
ATOM     10  H   UNL     1       0.004  -0.134   0.006  0.00  0.00    +0.151 HD
BRANCH   8  11
ATOM     11  C   UNL     1       1.248   1.716  -0.001  0.00  0.00    +0.074 C 
ATOM     12  C   UNL     1       1.608   2.092  -1.439  0.00  0.00    +0.022 C 
ATOM     13  C   UNL     1       2.922   2.875  -1.448  0.00  0.00    +0.002 C 
ATOM     14  C   UNL     1       4.035   2.010  -0.853  0.00  0.00    +0.000 C 
ATOM     15  C   UNL     1       3.675   1.633   0.585  0.00  0.00    +0.002 C 
ATOM     16  C   UNL     1       2.361   0.850   0.594  0.00  0.00    +0.022 C 
ENDBRANCH   8  11
ENDBRANCH   2   3
BRANCH   2  17
ATOM     17  N   UNL     1      -5.946   1.760   0.040  0.00  0.00    -0.295 NA
ATOM     18  C   UNL     1      -5.922   2.599   1.247  0.00  0.00    +0.066 C 
ATOM     19  C   UNL     1      -7.065   3.614   1.181  0.00  0.00    -0.063 C 
ATOM     20  N   UNL     1      -8.345   2.901   1.064  0.00  0.00    +0.387 N 
ATOM     21  C   UNL     1      -8.368   2.062  -0.143  0.00  0.00    -0.063 C 
ATOM     22  C   UNL     1      -7.225   1.047  -0.078  0.00  0.00    +0.066 C 
ATOM     23  H   UNL     1      -8.447   2.241   1.938  0.00  0.00    -0.081 HD
BRANCH  20  24
ATOM     24  C   UNL     1      -9.474   3.840   1.074  0.00  0.00    +0.019 C 
BRANCH  24  25
ATOM     25  C   UNL     1      -9.561   4.506   2.423  0.00  0.00    +0.197 C 
ATOM     26  O   UNL     1      -8.761   4.226   3.291  0.00  0.00    -0.278 OA
ATOM     27  N   UNL     1     -10.528   5.413   2.666  0.00  0.00    -0.314 N 
ATOM     28  H   UNL     1     -11.254   5.667   1.879  0.00  0.00    +0.149 HD
BRANCH  27  29
ATOM     29  C   UNL     1     -10.613   6.060   3.978  0.00  0.00    +0.073 C 
ATOM     30  C   UNL     1     -11.999   6.200   4.608  0.00  0.00    +0.024 C 
ATOM     31  C   UNL     1     -11.287   7.432   4.046  0.00  0.00    +0.024 C 
ENDBRANCH  27  29
ENDBRANCH  24  25
ENDBRANCH  20  24
ENDBRANCH   2  17
TORSDOF 6
