REMARK  Name = ZINC20532244
REMARK  7 active torsions:
REMARK  status: ('A' for Active; 'I' for Inactive)
REMARK    1  A    between atoms: C_1  and  C_2
REMARK    2  A    between atoms: C_2  and  N_3
REMARK    3  A    between atoms: C_9  and  N_28
REMARK    4  A    between atoms: C_10  and  C_11
REMARK    5  A    between atoms: C_11  and  C_13
REMARK    6  A    between atoms: C_11  and  N_14
REMARK    7  A    between atoms: N_17  and  C_18
REMARK                            x       y       z     vdW  Elec       q    Type
REMARK                         _______ _______ _______ _____ _____    ______ ____
ROOT
ATOM      1  C   UNL     1      -3.285   1.460   0.698  0.00  0.00    +0.104 C 
ATOM      2  C   UNL     1      -3.685   1.998  -0.677  0.00  0.00    +0.033 C 
ENDROOT
BRANCH   1  10
ATOM      3  N   UNL     1      -6.526   2.078   4.675  0.00  0.00    +0.383 N 
ATOM      4  C   UNL     1      -6.104   3.118   3.726  0.00  0.00    -0.074 C 
ATOM      5  C   UNL     1      -4.870   2.655   2.947  0.00  0.00    +0.018 C 
ATOM      6  C   UNL     1      -5.168   1.280   2.353  0.00  0.00    -0.034 A 
ATOM      7  C   UNL     1      -6.205   0.549   2.847  0.00  0.00    -0.021 A 
ATOM      8  S   UNL     1      -6.185  -0.929   1.870  0.00  0.00    -0.077 S 
ATOM      9  C   UNL     1      -4.791  -0.513   0.832  0.00  0.00    +0.090 A 
ATOM     10  C   UNL     1      -4.447   0.715   1.304  0.00  0.00    +0.007 A 
ATOM     11  C   UNL     1      -7.123   0.933   3.960  0.00  0.00    -0.035 C 
ATOM     12  H   UNL     1      -5.633   1.724   5.213  0.00  0.00    -0.081 HD
BRANCH   9  13
ATOM     13  N   UNL     1      -4.206  -1.257  -0.199  0.00  0.00    -0.317 N 
ATOM     14  C   UNL     1      -3.234  -0.813  -1.048  0.00  0.00    +0.092 A 
ATOM     15  C   UNL     1      -2.928  -1.814  -1.899  0.00  0.00    +0.019 A 
ATOM     16  C   UNL     1      -3.745  -2.914  -1.569  0.00  0.00    +0.019 A 
ATOM     17  C   UNL     1      -4.517  -2.545  -0.526  0.00  0.00    +0.092 A 
ENDBRANCH   9  13
BRANCH   3  19
ATOM     18  C   UNL     1      -8.669   3.228   4.959  0.00  0.00    -0.017 C 
ATOM     19  C   UNL     1      -7.458   2.621   5.671  0.00  0.00    -0.082 C 
ENDBRANCH   3  19
ENDBRANCH   1  10
BRANCH   1  20
ATOM     20  N   UNL     1      -2.144   0.551   0.554  0.00  0.00    -0.292 N 
ATOM     21  C   UNL     1      -0.918   1.046   0.294  0.00  0.00    +0.304 C 
ATOM     22  O   UNL     1      -0.758   2.245   0.178  0.00  0.00    -0.252 OA
ATOM     23  N   UNL     1       0.131   0.210   0.161  0.00  0.00    -0.269 N 
ATOM     24  H   UNL     1      -2.289  -0.534   0.659  0.00  0.00    +0.151 HD
ATOM     25  H   UNL     1      -0.030  -0.878   0.154  0.00  0.00    +0.156 HD
BRANCH  23  26
ATOM     26  C   UNL     1       1.425   0.727   0.033  0.00  0.00    +0.038 A 
ATOM     27  C   UNL     1       1.694   2.021   0.447  0.00  0.00    +0.023 A 
ATOM     28  C   UNL     1       2.972   2.529   0.319  0.00  0.00    +0.002 A 
ATOM     29  C   UNL     1       3.971   1.746  -0.224  0.00  0.00    +0.004 A 
ATOM     30  C   UNL     1       3.707   0.448  -0.642  0.00  0.00    -0.042 A 
ATOM     31  C   UNL     1       2.438  -0.067  -0.507  0.00  0.00    -0.023 A 
ATOM     32  C   UNL     1       2.082  -1.467  -0.931  0.00  0.00    +0.037 C 
ATOM     33  C   UNL     1       3.141  -2.030  -1.877  0.00  0.00    +0.005 C 
ATOM     34  C   UNL     1       4.518  -1.835  -1.231  0.00  0.00    +0.005 C 
ATOM     35  C   UNL     1       4.844  -0.344  -1.232  0.00  0.00    +0.035 C 
ENDBRANCH  23  26
ENDBRANCH   1  20
TORSDOF 5
