REMARK  Name = ZINC26457480
REMARK  5 active torsions:
REMARK  status: ('A' for Active; 'I' for Inactive)
REMARK    1  A    between atoms: C_3  and  N_9
REMARK    2  A    between atoms: C_10  and  C_12
REMARK    3  A    between atoms: N_17  and  C_18
REMARK    4  A    between atoms: C_18  and  C_19
REMARK    5  A    between atoms: N_24  and  C_25
REMARK                            x       y       z     vdW  Elec       q    Type
REMARK                         _______ _______ _______ _____ _____    ______ ____
ROOT
ATOM      1  C   UNL     1       1.417  -0.747   0.216  0.00  0.00    +0.020 C 
ATOM      2  C   UNL     1       2.102   0.060  -0.906  0.00  0.00    -0.008 C 
ATOM      3  C   UNL     1       2.879  -1.027  -1.695  0.00  0.00    -0.020 C 
ATOM      4  C   UNL     1       1.912  -2.233  -1.599  0.00  0.00    -0.077 C 
ATOM      5  N   UNL     1       1.333  -2.146  -0.242  0.00  0.00    +0.393 N 
ATOM      6  H   UNL     1       1.896  -2.794   0.446  0.00  0.00    -0.080 HD
ENDROOT
BRANCH   1   8
ATOM      7  N   UNL     1      -0.255   0.398   1.635  0.00  0.00    -0.286 N 
ATOM      8  C   UNL     1       0.033  -0.206   0.465  0.00  0.00    +0.204 C 
ATOM      9  O   UNL     1      -0.823  -0.313  -0.388  0.00  0.00    -0.277 OA
ATOM     10  H   UNL     1       0.492   0.415   2.443  0.00  0.00    +0.155 HD
BRANCH   7  13
ATOM     11  C   UNL     1      -3.503   1.966   0.916  0.00  0.00    +0.022 A 
ATOM     12  C   UNL     1      -2.268   1.374   0.727  0.00  0.00    +0.026 A 
ATOM     13  C   UNL     1      -1.504   1.002   1.824  0.00  0.00    +0.052 A 
ATOM     14  C   UNL     1      -1.977   1.235   3.110  0.00  0.00    +0.064 A 
ATOM     15  C   UNL     1      -3.210   1.832   3.292  0.00  0.00    +0.041 A 
ATOM     16  C   UNL     1      -3.973   2.196   2.196  0.00  0.00    +0.042 A 
ATOM     17 CL   UNL     1      -5.521   2.946   2.429  0.00  0.00    -0.083 Cl
ATOM     18 CL   UNL     1      -1.021   0.776   4.484  0.00  0.00    -0.082 Cl
ENDBRANCH   7  13
ENDBRANCH   1   8
BRANCH   5  19
ATOM     19  C   UNL     1      -0.057  -2.622  -0.231  0.00  0.00    +0.020 C 
BRANCH  19  20
ATOM     20  C   UNL     1      -0.074  -4.127  -0.292  0.00  0.00    +0.204 C 
ATOM     21  O   UNL     1       0.969  -4.744  -0.340  0.00  0.00    -0.277 OA
ATOM     22  N   UNL     1      -1.248  -4.789  -0.293  0.00  0.00    -0.242 N 
ATOM     23  C   UNL     1      -1.263  -6.135  -0.348  0.00  0.00    +0.306 C 
ATOM     24  O   UNL     1      -0.217  -6.753  -0.396  0.00  0.00    -0.252 OA
ATOM     25  N   UNL     1      -2.437  -6.797  -0.349  0.00  0.00    -0.296 N 
ATOM     26  H   UNL     1      -2.194  -4.229  -0.250  0.00  0.00    +0.159 HD
ATOM     27  H   UNL     1      -3.383  -6.237  -0.306  0.00  0.00    +0.151 HD
BRANCH  25  28
ATOM     28  C   UNL     1      -2.453  -8.260  -0.409  0.00  0.00    +0.074 C 
ATOM     29  C   UNL     1      -2.436  -8.730  -1.878  0.00  0.00    +0.022 C 
ATOM     30  C   UNL     1      -3.356  -9.976  -1.890  0.00  0.00    +0.002 C 
ATOM     31  C   UNL     1      -4.484  -9.576  -0.906  0.00  0.00    +0.002 C 
ATOM     32  C   UNL     1      -3.756  -8.799   0.209  0.00  0.00    +0.022 C 
ENDBRANCH  25  28
ENDBRANCH  19  20
ENDBRANCH   5  19
TORSDOF 5
