REMARK  Name = ZINC43247999
REMARK  7 active torsions:
REMARK  status: ('A' for Active; 'I' for Inactive)
REMARK    1  A    between atoms: C_1  and  C_2
REMARK    2  A    between atoms: C_6  and  C_7
REMARK    3  A    between atoms: C_7  and  C_9
REMARK    4  A    between atoms: C_7  and  N_13
REMARK    5  A    between atoms: C_9  and  C_11
REMARK    6  A    between atoms: C_9  and  N_12
REMARK    7  A    between atoms: C_17  and  C_19
REMARK                            x       y       z     vdW  Elec       q    Type
REMARK                         _______ _______ _______ _____ _____    ______ ____
ROOT
ATOM      1  C   UNL     1      -0.019  -0.139   2.592  0.00  0.00    +0.080 C 
ENDROOT
BRANCH   1   7
ATOM      2  C   UNL     1      -0.001   1.204  -0.171  0.00  0.00    +0.044 C 
ATOM      3  C   UNL     1      -0.096  -0.289   0.012  0.00  0.00    -0.039 A 
ATOM      4  C   UNL     1      -0.175  -1.127  -1.084  0.00  0.00    +0.011 A 
ATOM      5  C   UNL     1      -0.261  -2.465  -0.884  0.00  0.00    +0.046 A 
ATOM      6  S   UNL     1      -0.231  -2.575   0.897  0.00  0.00    -0.100 S 
ATOM      7  C   UNL     1      -0.101  -0.831   1.255  0.00  0.00    +0.008 A 
ENDBRANCH   1   7
BRANCH   1   8
ATOM      8  N   UNL     1      -1.017  -0.716   3.503  0.00  0.00    -0.290 NA
ATOM      9  C   UNL     1      -1.026  -0.003   4.798  0.00  0.00    +0.085 C 
ATOM     10  C   UNL     1      -2.204   0.997   4.691  0.00  0.00    +0.017 C 
ATOM     11  C   UNL     1      -3.245   0.170   3.892  0.00  0.00    +0.025 C 
ATOM     12  C   UNL     1      -2.369  -0.646   2.919  0.00  0.00    +0.089 C 
BRANCH  12  13
ATOM     13  C   UNL     1      -2.932  -2.035   2.763  0.00  0.00    -0.012 A 
ATOM     14  C   UNL     1      -3.657  -2.377   1.631  0.00  0.00    +0.008 A 
ATOM     15  C   UNL     1      -4.156  -3.666   1.531  0.00  0.00    +0.020 A 
ATOM     16  C   UNL     1      -3.917  -4.562   2.555  0.00  0.00    +0.111 A 
ATOM     17  N   UNL     1      -3.224  -4.203   3.618  0.00  0.00    -0.263 NA
ATOM     18  C   UNL     1      -2.728  -2.987   3.744  0.00  0.00    +0.115 A 
ENDBRANCH  12  13
ENDBRANCH   1   8
BRANCH   1  19
ATOM     19  C   UNL     1       1.380  -0.331   3.180  0.00  0.00    -0.056 C 
ATOM     20  C   UNL     1       1.615  -1.816   3.465  0.00  0.00    -0.012 C 
BRANCH  19  21
ATOM     21  N   UNL     1       2.384   0.149   2.221  0.00  0.00    +0.381 N 
ATOM     22  H   UNL     1       2.229   1.128   2.033  0.00  0.00    -0.090 HD
ATOM     23  H   UNL     1       3.307   0.022   2.609  0.00  0.00    -0.090 HD
ATOM     24  H   UNL     1       2.306  -0.375   1.362  0.00  0.00    -0.090 HD
ENDBRANCH  19  21
ENDBRANCH   1  19
TORSDOF 5
