REMARK  Name = ZINC23357639
REMARK  16 active torsions:
REMARK  status: ('A' for Active; 'I' for Inactive)
REMARK    1  A    between atoms: C_1  and  C_2
REMARK    2  A    between atoms: C_6  and  C_35
REMARK    3  A    between atoms: C_7  and  N_8
REMARK    4  A    between atoms: C_9  and  C_11
REMARK    5  A    between atoms: C_11  and  N_12
REMARK    6  A    between atoms: N_12  and  C_13
REMARK    7  A    between atoms: N_12  and  C_18
REMARK    8  A    between atoms: C_13  and  C_14
REMARK    9  A    between atoms: C_14  and  C_15
REMARK   10  A    between atoms: C_15  and  C_16
REMARK   11  A    between atoms: C_15  and  C_17
REMARK   12  A    between atoms: C_19  and  N_34
REMARK   13  A    between atoms: N_20  and  C_27
REMARK   14  A    between atoms: C_27  and  C_28
REMARK   15  A    between atoms: C_35  and  C_36
REMARK   16  A    between atoms: C_35  and  C_37
REMARK                            x       y       z     vdW  Elec       q    Type
REMARK                         _______ _______ _______ _____ _____    ______ ____
ROOT
ATOM      1  N   UNL     1       3.351   2.340   0.062  0.00  0.00    -0.314 N 
ENDROOT
BRANCH   1   2
ATOM      2  C   UNL     1       1.970   2.063   0.185  0.00  0.00    +0.134 A 
ATOM      3  C   UNL     1       1.219   2.690   1.142  0.00  0.00    +0.127 A 
ATOM      4  N   UNL     1      -0.123   2.403   1.242  0.00  0.00    -0.276 N 
ATOM      5  C   UNL     1      -0.694   1.518   0.403  0.00  0.00    +0.331 A 
ATOM      6  O   UNL     1      -1.883   1.281   0.502  0.00  0.00    -0.246 OA
ATOM      7  N   UNL     1       0.030   0.889  -0.539  0.00  0.00    -0.273 N 
ATOM      8  H   UNL     1      -0.452   0.162  -1.210  0.00  0.00    +0.173 HD
ATOM      9  C   UNL     1       1.348   1.139  -0.673  0.00  0.00    +0.277 A 
ATOM     10  O   UNL     1       1.996   0.567  -1.533  0.00  0.00    -0.266 OA
BRANCH   3  11
ATOM     11  N   UNL     1       1.800   3.598   1.997  0.00  0.00    -0.343 N 
ATOM     12  H   UNL     1       1.192   4.099   2.764  0.00  0.00    +0.144 HD
ATOM     13  H   UNL     1       2.874   3.824   1.913  0.00  0.00    +0.144 HD
ENDBRANCH   3  11
BRANCH   4  14
ATOM     14  C   UNL     1      -0.937   3.068   2.263  0.00  0.00    +0.163 C 
BRANCH  14  15
ATOM     15  C   UNL     1      -1.508   4.343   1.697  0.00  0.00    -0.028 A 
ATOM     16  C   UNL     1      -0.807   5.529   1.821  0.00  0.00    +0.005 A 
ATOM     17  C   UNL     1      -1.329   6.697   1.299  0.00  0.00    +0.000 A 
ATOM     18  C   UNL     1      -2.555   6.683   0.661  0.00  0.00    +0.000 A 
ATOM     19  C   UNL     1      -3.258   5.498   0.542  0.00  0.00    +0.000 A 
ATOM     20  C   UNL     1      -2.734   4.329   1.060  0.00  0.00    +0.005 A 
ENDBRANCH  14  15
ENDBRANCH   4  14
ENDBRANCH   1   2
BRANCH   1  21
ATOM     21  C   UNL     1       3.649   2.962  -1.236  0.00  0.00    +0.201 C 
BRANCH  21  23
ATOM     22  N   UNL     1       5.537   4.160  -2.294  0.00  0.00    -0.284 N 
ATOM     23  C   UNL     1       5.011   3.604  -1.184  0.00  0.00    +0.235 C 
ATOM     24  O   UNL     1       5.635   3.620  -0.144  0.00  0.00    -0.274 OA
ATOM     25  H   UNL     1       4.953   4.185  -3.226  0.00  0.00    +0.155 HD
BRANCH  22  32
ATOM     26  C   UNL     1       6.079   6.208  -0.394  0.00  0.00    +0.045 C 
ATOM     27  C   UNL     1       7.132   5.708  -1.349  0.00  0.00    -0.029 A 
ATOM     28  C   UNL     1       8.406   6.241  -1.314  0.00  0.00    +0.005 A 
ATOM     29  C   UNL     1       9.371   5.787  -2.193  0.00  0.00    +0.001 A 
ATOM     30  C   UNL     1       9.066   4.793  -3.106  0.00  0.00    +0.006 A 
ATOM     31  C   UNL     1       7.796   4.252  -3.142  0.00  0.00    -0.023 A 
ATOM     32  C   UNL     1       6.824   4.707  -2.260  0.00  0.00    +0.040 A 
BRANCH  31  33
ATOM     33  C   UNL     1       7.465   3.170  -4.137  0.00  0.00    +0.015 C 
ATOM     34  C   UNL     1       7.681   3.698  -5.556  0.00  0.00    +0.012 C 
ATOM     35  C   UNL     1       8.375   1.962  -3.898  0.00  0.00    +0.012 C 
ENDBRANCH  31  33
ENDBRANCH  22  32
ENDBRANCH  21  23
ENDBRANCH   1  21
BRANCH   1  36
ATOM     36  C   UNL     1       4.152   1.125   0.259  0.00  0.00    +0.106 C 
BRANCH  36  37
ATOM     37  C   UNL     1       4.197   0.780   1.749  0.00  0.00    +0.022 C 
BRANCH  37  38
ATOM     38  C   UNL     1       5.134  -0.409   1.969  0.00  0.00    -0.016 C 
ATOM     39  C   UNL     1       5.277  -0.675   3.469  0.00  0.00    +0.007 C 
ATOM     40  C   UNL     1       4.554  -1.649   1.285  0.00  0.00    +0.007 C 
ENDBRANCH  37  38
ENDBRANCH  36  37
ENDBRANCH   1  36
TORSDOF 11
