REMARK  Name = ZINC63502497
REMARK  15 active torsions:
REMARK  status: ('A' for Active; 'I' for Inactive)
REMARK    1  A    between atoms: C_1  and  C_2
REMARK    2  A    between atoms: C_2  and  C_3
REMARK    3  A    between atoms: C_3  and  C_4
REMARK    4  A    between atoms: C_4  and  N_5
REMARK    5  A    between atoms: N_5  and  C_6
REMARK    6  A    between atoms: N_5  and  C_10
REMARK    7  A    between atoms: C_6  and  C_7
REMARK    8  A    between atoms: C_7  and  C_8
REMARK    9  A    between atoms: C_8  and  C_9
REMARK   10  A    between atoms: C_10  and  C_11
REMARK   11  A    between atoms: C_11  and  N_12
REMARK   12  A    between atoms: C_13  and  C_15
REMARK   13  A    between atoms: C_20  and  C_27
REMARK   14  A    between atoms: C_32  and  N_33
REMARK   15  A    between atoms: C_34  and  C_36
REMARK                            x       y       z     vdW  Elec       q    Type
REMARK                         _______ _______ _______ _____ _____    ______ ____
ROOT
ATOM      1  C   UNL     1      -1.819  -6.854  -3.360  0.00  0.00    +0.039 A 
ATOM      2  C   UNL     1      -0.642  -7.713  -3.345  0.00  0.00    +0.015 A 
ATOM      3  C   UNL     1      -0.750  -9.045  -3.533  0.00  0.00    +0.028 A 
ATOM      4  C   UNL     1      -2.078  -9.637  -3.756  0.00  0.00    +0.058 A 
ATOM      5  N   UNL     1      -2.197 -10.923  -3.940  0.00  0.00    -0.369 N 
ATOM      6  C   UNL     1      -3.540 -11.481  -4.160  0.00  0.00    +0.198 C 
ATOM      7  C   UNL     1      -4.711 -10.525  -4.162  0.00  0.00    +0.244 C 
ATOM      8  O   UNL     1      -5.841 -10.934  -4.340  0.00  0.00    -0.273 OA
ATOM      9  N   UNL     1      -4.485  -9.222  -3.965  0.00  0.00    -0.282 N 
ATOM     10  C   UNL     1      -3.266  -8.750  -3.769  0.00  0.00    +0.057 A 
ATOM     11  C   UNL     1      -3.079  -7.361  -3.559  0.00  0.00    +0.038 A 
ATOM     12  H   UNL     1      -1.417 -11.499  -3.931  0.00  0.00    +0.161 HD
ATOM     13  H   UNL     1      -5.235  -8.607  -3.966  0.00  0.00    +0.155 HD
ENDROOT
BRANCH   6  14
ATOM     14  C   UNL     1      -3.529 -12.195  -5.487  0.00  0.00    +0.005 A 
ATOM     15  C   UNL     1      -2.553 -11.904  -6.421  0.00  0.00    +0.008 A 
ATOM     16  C   UNL     1      -2.542 -12.559  -7.638  0.00  0.00    +0.000 A 
ATOM     17  C   UNL     1      -3.507 -13.508  -7.926  0.00  0.00    +0.002 A 
ATOM     18  C   UNL     1      -4.485 -13.803  -6.997  0.00  0.00    +0.023 A 
ATOM     19  C   UNL     1      -4.496 -13.151  -5.771  0.00  0.00    +0.039 A 
BRANCH  19  20
ATOM     20  N   UNL     1      -5.482 -13.452  -4.825  0.00  0.00    -0.285 N 
ATOM     21  C   UNL     1      -6.677 -13.929  -5.226  0.00  0.00    +0.214 C 
ATOM     22  O   UNL     1      -6.870 -14.174  -6.398  0.00  0.00    -0.276 OA
ATOM     23  C   UNL     1      -7.774 -14.159  -4.218  0.00  0.00    +0.109 C 
ATOM     24  H   UNL     1      -5.306 -13.317  -3.881  0.00  0.00    +0.155 HD
ENDBRANCH  19  20
ENDBRANCH   6  14
BRANCH   1  26
ATOM     25  N   UNL     1      -0.423  -4.880  -2.951  0.00  0.00    -0.313 N 
ATOM     26  C   UNL     1      -1.653  -5.396  -3.149  0.00  0.00    +0.244 C 
ATOM     27  O   UNL     1      -2.624  -4.666  -3.154  0.00  0.00    -0.270 OA
ATOM     28  H   UNL     1       0.352  -5.462  -2.948  0.00  0.00    +0.149 HD
BRANCH  25  29
ATOM     29  C   UNL     1      -0.258  -3.439  -2.743  0.00  0.00    +0.086 C 
BRANCH  29  30
ATOM     30  C   UNL     1       1.225  -3.119  -2.545  0.00  0.00    -0.060 C 
BRANCH  30  31
ATOM     31  N   UNL     1       1.390  -1.674  -2.336  0.00  0.00    +0.381 N 
ATOM     32  H   UNL     1       0.969  -1.173  -3.104  0.00  0.00    -0.082 HD
BRANCH  31  33
ATOM     33  C   UNL     1       0.737  -1.284  -1.079  0.00  0.00    -0.079 C 
BRANCH  33  34
ATOM     34  C   UNL     1       0.785   0.238  -0.931  0.00  0.00    -0.019 C 
BRANCH  34  36
ATOM     35  C   UNL     1       0.041   2.178   0.457  0.00  0.00    +0.004 C 
ATOM     36  C   UNL     1      -0.008   0.656   0.309  0.00  0.00    -0.005 C 
ENDBRANCH  34  36
ENDBRANCH  33  34
ENDBRANCH  31  33
BRANCH  31  37
ATOM     37  C   UNL     1       2.821  -1.350  -2.266  0.00  0.00    -0.079 C 
BRANCH  37  38
ATOM     38  C   UNL     1       3.473  -1.624  -3.622  0.00  0.00    -0.019 C 
BRANCH  38  39
ATOM     39  C   UNL     1       4.932  -1.164  -3.589  0.00  0.00    -0.005 C 
ATOM     40  C   UNL     1       5.584  -1.438  -4.946  0.00  0.00    +0.004 C 
ENDBRANCH  38  39
ENDBRANCH  37  38
ENDBRANCH  31  37
ENDBRANCH  30  31
ENDBRANCH  29  30
ENDBRANCH  25  29
ENDBRANCH   1  26
TORSDOF 12
