REMARK  Name = ZINC62521807
REMARK  11 active torsions:
REMARK  status: ('A' for Active; 'I' for Inactive)
REMARK    1  A    between atoms: C_1  and  C_2
REMARK    2  A    between atoms: C_2  and  C_3
REMARK    3  A    between atoms: C_2  and  N_12
REMARK    4  A    between atoms: N_5  and  C_6
REMARK    5  A    between atoms: C_6  and  C_7
REMARK    6  A    between atoms: N_15  and  C_16
REMARK    7  A    between atoms: C_16  and  C_17
REMARK    8  A    between atoms: C_17  and  C_18
REMARK    9  A    between atoms: C_17  and  N_25
REMARK   10  A    between atoms: N_25  and  C_26
REMARK   11  A    between atoms: N_25  and  C_27
REMARK                            x       y       z     vdW  Elec       q    Type
REMARK                         _______ _______ _______ _____ _____    ______ ____
ROOT
ATOM      1  N   UNL     1       0.978  -1.075   0.902  0.00  0.00    -0.288 N 
ATOM      2  C   UNL     1       2.320  -1.006   1.012  0.00  0.00    +0.300 C 
ATOM      3  O   UNL     1       2.989  -0.639   0.065  0.00  0.00    -0.253 OA
ATOM      4  N   UNL     1       2.919  -1.343   2.171  0.00  0.00    -0.301 N 
ATOM      5  H   UNL     1       0.444  -1.368   1.657  0.00  0.00    +0.151 HD
ATOM      6  H   UNL     1       2.385  -1.635   2.926  0.00  0.00    +0.150 HD
ENDROOT
BRANCH   1   8
ATOM      7  C   UNL     1       0.104   0.804  -0.396  0.00  0.00    +0.038 C 
ATOM      8  C   UNL     1       0.326  -0.709  -0.358  0.00  0.00    +0.157 C 
BRANCH   8   9
ATOM      9  C   UNL     1      -1.002  -1.415  -0.460  0.00  0.00    +0.233 C 
ATOM     10  O   UNL     1      -1.367  -2.151   0.432  0.00  0.00    -0.274 OA
ATOM     11  N   UNL     1      -1.783  -1.228  -1.542  0.00  0.00    -0.307 N 
ATOM     12  H   UNL     1      -1.490  -0.639  -2.256  0.00  0.00    +0.149 HD
BRANCH  11  13
ATOM     13  C   UNL     1      -3.073  -1.913  -1.642  0.00  0.00    +0.178 C 
BRANCH  13  14
ATOM     14  C   UNL     1      -3.744  -1.537  -2.938  0.00  0.00    +0.122 A 
ATOM     15  C   UNL     1      -3.613  -2.185  -4.109  0.00  0.00    +0.046 A 
ATOM     16  C   UNL     1      -4.410  -1.495  -5.051  0.00  0.00    +0.041 A 
ATOM     17  C   UNL     1      -4.981  -0.467  -4.399  0.00  0.00    +0.195 A 
ATOM     18  O   UNL     1      -4.579  -0.500  -3.118  0.00  0.00    -0.466 OA
ENDBRANCH  13  14
ENDBRANCH  11  13
ENDBRANCH   8   9
ENDBRANCH   1   8
BRANCH   4  19
ATOM     19  C   UNL     1       4.377  -1.267   2.290  0.00  0.00    +0.095 C 
BRANCH  19  20
ATOM     20  C   UNL     1       4.788  -1.576   3.731  0.00  0.00    -0.020 C 
BRANCH  20  21
ATOM     21  C   UNL     1       4.450  -3.009   4.053  0.00  0.00    -0.041 A 
ATOM     22  C   UNL     1       3.252  -3.314   4.672  0.00  0.00    +0.003 A 
ATOM     23  C   UNL     1       2.942  -4.628   4.968  0.00  0.00    +0.000 A 
ATOM     24  C   UNL     1       3.829  -5.638   4.644  0.00  0.00    +0.001 A 
ATOM     25  C   UNL     1       5.026  -5.335   4.026  0.00  0.00    +0.020 A 
ATOM     26  C   UNL     1       5.335  -4.020   3.724  0.00  0.00    +0.043 A 
ATOM     27 CL   UNL     1       6.837  -3.638   2.941  0.00  0.00    -0.083 Cl
ENDBRANCH  20  21
BRANCH  20  28
ATOM     28  N   UNL     1       4.066  -0.685   4.648  0.00  0.00    +0.382 N 
ATOM     29  C   UNL     1       4.492  -0.952   6.028  0.00  0.00    -0.096 C 
ATOM     30  C   UNL     1       4.361   0.713   4.306  0.00  0.00    -0.096 C 
ATOM     31  H   UNL     1       3.074  -0.849   4.565  0.00  0.00    -0.082 HD
ENDBRANCH  20  28
ENDBRANCH  19  20
ENDBRANCH   4  19
TORSDOF 8
