REMARK  Name = ZINC31809635
REMARK  5 active torsions:
REMARK  status: ('A' for Active; 'I' for Inactive)
REMARK    1  A    between atoms: C_1  and  O_2
REMARK    2  A    between atoms: O_2  and  C_3
REMARK    3  A    between atoms: C_3  and  C_5
REMARK    4  A    between atoms: C_8  and  N_11
REMARK    5  A    between atoms: C_23  and  C_25
REMARK                            x       y       z     vdW  Elec       q    Type
REMARK                         _______ _______ _______ _____ _____    ______ ____
ROOT
ATOM      1  N   UNL     1       0.833  -6.352  -1.204  0.00  0.00    -0.269 N 
ATOM      2  C   UNL     1       1.289  -6.894  -2.351  0.00  0.00    +0.307 C 
ATOM      3  O   UNL     1       1.698  -6.175  -3.242  0.00  0.00    -0.252 OA
ATOM      4  N   UNL     1       1.291  -8.232  -2.510  0.00  0.00    -0.272 N 
ATOM      5  C   UNL     1       0.635  -9.108  -1.528  0.00  0.00    +0.116 C 
ATOM      6  C   UNL     1       1.694  -9.989  -0.854  0.00  0.00    +0.074 C 
ATOM      7  C   UNL     1       2.615 -10.537  -1.914  0.00  0.00    +0.040 A 
ATOM      8  C   UNL     1       2.738 -10.037  -3.162  0.00  0.00    +0.062 A 
ATOM      9  N   UNL     1       3.643 -10.768  -3.815  0.00  0.00    -0.348 N 
ATOM     10  C   UNL     1       4.088 -11.708  -3.021  0.00  0.00    +0.171 A 
ATOM     11  N   UNL     1       3.467 -11.596  -1.824  0.00  0.00    -0.349 N 
ATOM     12  H   UNL     1       3.603 -12.162  -1.049  0.00  0.00    +0.166 HD
ATOM     13  C   UNL     1       1.946  -8.853  -3.675  0.00  0.00    +0.156 C 
ATOM     14  H   UNL     1       0.631  -6.921  -0.445  0.00  0.00    +0.156 HD
ATOM     15  H   UNL     1       3.927 -10.626  -4.732  0.00  0.00    +0.167 HD
ENDROOT
BRANCH  13  16
ATOM     16  C   UNL     1       0.905  -9.315  -4.662  0.00  0.00    -0.021 A 
ATOM     17  C   UNL     1      -0.016 -10.278  -4.294  0.00  0.00    +0.007 A 
ATOM     18  C   UNL     1      -0.971 -10.702  -5.199  0.00  0.00    +0.015 A 
ATOM     19  C   UNL     1      -1.005 -10.164  -6.473  0.00  0.00    +0.018 A 
ATOM     20  C   UNL     1      -0.082  -9.201  -6.840  0.00  0.00    +0.015 A 
ATOM     21  C   UNL     1       0.869  -8.773  -5.933  0.00  0.00    +0.007 A 
ATOM     22 BR   UNL     1      -2.310 -10.745  -7.711  0.00  0.00    -0.050 Br
ENDBRANCH  13  16
BRANCH   1  26
ATOM     23  C   UNL     1       0.291  -2.232  -0.918  0.00  0.00    +0.059 A 
ATOM     24  C   UNL     1      -0.415  -3.092  -0.071  0.00  0.00    +0.017 A 
ATOM     25  C   UNL     1      -0.234  -4.453  -0.169  0.00  0.00    +0.024 A 
ATOM     26  C   UNL     1       0.652  -4.973  -1.108  0.00  0.00    +0.035 A 
ATOM     27  C   UNL     1       1.357  -4.120  -1.952  0.00  0.00    +0.024 A 
ATOM     28  C   UNL     1       1.176  -2.758  -1.864  0.00  0.00    +0.017 A 
BRANCH  23  29
ATOM     29  C   UNL     1       0.100  -0.773  -0.817  0.00  0.00    +0.339 C 
ATOM     30  O   UNL     1       0.710  -0.028  -1.556  0.00  0.00    -0.245 OA
BRANCH  29  32
ATOM     31  C   UNL     1      -0.890   1.154   0.138  0.00  0.00    +0.280 C 
ATOM     32  O   UNL     1      -0.753  -0.268   0.096  0.00  0.00    -0.464 OA
ENDBRANCH  29  32
ENDBRANCH  23  29
ENDBRANCH   1  26
TORSDOF 4
