REMARK  Name = ZINC02707481
REMARK  11 active torsions:
REMARK  status: ('A' for Active; 'I' for Inactive)
REMARK    1  A    between atoms: C_1  and  C_2
REMARK    2  A    between atoms: C_2  and  C_3
REMARK    3  A    between atoms: C_2  and  C_4
REMARK    4  A    between atoms: C_2  and  N_48
REMARK    5  A    between atoms: C_4  and  O_5
REMARK    6  A    between atoms: C_6  and  C_7
REMARK    7  A    between atoms: C_6  and  N_48
REMARK    8  A    between atoms: C_7  and  C_9
REMARK    9  A    between atoms: C_7  and  O_25
REMARK   10  A    between atoms: C_9  and  O_10
REMARK   11  A    between atoms: O_10  and  N_11
REMARK                            x       y       z     vdW  Elec       q    Type
REMARK                         _______ _______ _______ _____ _____    ______ ____
ROOT
ATOM      1  O   UNL     1       0.002  -0.004   0.002  0.00  0.00    -0.391 OA
ENDROOT
BRANCH   1   2
ATOM      2  N   UNL     1      -0.017   1.412   0.010  0.00  0.00    -0.084 NA
ATOM      3  C   UNL     1       1.101   2.078   0.003  0.00  0.00    +0.118 C 
ATOM      4  C   UNL     1       2.468   1.506  -0.007  0.00  0.00    +0.012 A 
ATOM      5  C   UNL     1       2.935   0.196  -0.011  0.00  0.00    +0.011 A 
ATOM      6  C   UNL     1       4.295  -0.051  -0.019  0.00  0.00    +0.001 A 
ATOM      7  C   UNL     1       5.195   1.000  -0.025  0.00  0.00    +0.001 A 
ATOM      8  C   UNL     1       4.747   2.306  -0.030  0.00  0.00    +0.009 A 
ATOM      9  C   UNL     1       3.380   2.573  -0.016  0.00  0.00    -0.008 A 
ATOM     10  C   UNL     1       2.622   3.846  -0.002  0.00  0.00    -0.008 A 
ATOM     11  C   UNL     1       1.249   3.553   0.009  0.00  0.00    +0.012 A 
ATOM     12  C   UNL     1       0.320   4.587   0.024  0.00  0.00    +0.011 A 
ATOM     13  C   UNL     1       0.750   5.900   0.027  0.00  0.00    +0.001 A 
ATOM     14  C   UNL     1       2.103   6.191   0.016  0.00  0.00    +0.001 A 
ATOM     15  C   UNL     1       3.038   5.175   0.001  0.00  0.00    +0.009 A 
ENDBRANCH   1   2
BRANCH   1  16
ATOM     16  C   UNL     1      -1.295  -0.603   0.011  0.00  0.00    +0.292 C 
BRANCH  16  17
ATOM     17  C   UNL     1      -1.154  -2.126   0.002  0.00  0.00    +0.138 C 
BRANCH  17  18
ATOM     18  O   UNL     1      -0.554  -2.542  -1.227  0.00  0.00    -0.390 OA
ATOM     19  H   UNL     1      -1.061  -2.297  -2.014  0.00  0.00    +0.210 HD
ENDBRANCH  17  18
BRANCH  17  20
ATOM     20  C   UNL     1      -2.536  -2.768   0.137  0.00  0.00    -0.047 C 
BRANCH  20  21
ATOM     21  N   UNL     1      -2.382  -4.231   0.248  0.00  0.00    +0.386 N 
ATOM     22  H   UNL     1      -1.913  -4.587  -0.593  0.00  0.00    -0.085 HD
ATOM     23  H   UNL     1      -1.813  -4.449   1.075  0.00  0.00    -0.085 HD
BRANCH  21  25
ATOM     24  C   UNL     1      -4.405  -4.356   1.635  0.00  0.00    -0.008 C 
ATOM     25  C   UNL     1      -3.701  -4.877   0.380  0.00  0.00    -0.050 C 
ATOM     26  C   UNL     1      -4.554  -4.561  -0.850  0.00  0.00    -0.008 C 
BRANCH  25  27
ATOM     27  C   UNL     1      -3.509  -6.390   0.493  0.00  0.00    +0.143 C 
BRANCH  27  28
ATOM     28  O   UNL     1      -4.784  -7.024   0.622  0.00  0.00    -0.396 OA
ATOM     29  H   UNL     1      -4.739  -7.987   0.698  0.00  0.00    +0.209 HD
ENDBRANCH  27  28
ENDBRANCH  25  27
ENDBRANCH  21  25
ENDBRANCH  20  21
ENDBRANCH  17  20
ENDBRANCH  16  17
ENDBRANCH   1  16
TORSDOF 9
