REMARK  Name = ZINC63626088
REMARK  8 active torsions:
REMARK  status: ('A' for Active; 'I' for Inactive)
REMARK    1  A    between atoms: C_1  and  C_2
REMARK    2  A    between atoms: C_5  and  C_8
REMARK    3  A    between atoms: N_10  and  C_11
REMARK    4  A    between atoms: C_11  and  C_13
REMARK    5  A    between atoms: C_11  and  C_23
REMARK    6  A    between atoms: C_13  and  C_14
REMARK    7  A    between atoms: N_25  and  C_26
REMARK    8  A    between atoms: C_29  and  C_32
REMARK                            x       y       z     vdW  Elec       q    Type
REMARK                         _______ _______ _______ _____ _____    ______ ____
ROOT
ATOM      1  C   UNL     1      -1.587  -1.938   4.907  0.00  0.00    +0.163 C 
ENDROOT
BRANCH   1   4
ATOM      2  C   UNL     1      -1.378  -2.084   2.484  0.00  0.00    +0.217 C 
ATOM      3  O   UNL     1      -2.374  -1.400   2.386  0.00  0.00    -0.275 OA
ATOM      4  N   UNL     1      -0.901  -2.410   3.702  0.00  0.00    -0.303 N 
ATOM      5  H   UNL     1      -0.104  -2.958   3.780  0.00  0.00    +0.149 HD
BRANCH   2  10
ATOM      6  C   UNL     1      -0.019   1.526   0.010  0.00  0.00    +0.007 C 
ATOM      7  C   UNL     1       0.002  -0.004   0.002  0.00  0.00    -0.014 C 
ATOM      8  C   UNL     1      -1.433  -0.534   0.013  0.00  0.00    +0.004 C 
ATOM      9  C   UNL     1      -1.413  -2.063   0.004  0.00  0.00    +0.013 C 
ATOM     10  C   UNL     1      -0.673  -2.570   1.244  0.00  0.00    +0.075 C 
ATOM     11  C   UNL     1       0.763  -2.041   1.233  0.00  0.00    +0.013 C 
ATOM     12  C   UNL     1       0.742  -0.511   1.242  0.00  0.00    +0.004 C 
ENDBRANCH   2  10
ENDBRANCH   1   4
BRANCH   1  13
ATOM     13  C   UNL     1      -0.609  -1.880   6.052  0.00  0.00    +0.234 C 
ATOM     14  O   UNL     1       0.548  -2.202   5.878  0.00  0.00    -0.274 OA
ATOM     15  N   UNL     1      -1.018  -1.471   7.269  0.00  0.00    -0.311 N 
ATOM     16  H   UNL     1      -1.943  -1.213   7.408  0.00  0.00    +0.149 HD
BRANCH  15  17
ATOM     17  C   UNL     1      -0.067  -1.415   8.381  0.00  0.00    +0.073 C 
ATOM     18  C   UNL     1       0.030  -2.793   9.039  0.00  0.00    +0.022 C 
ATOM     19  C   UNL     1      -1.347  -3.205   9.565  0.00  0.00    +0.005 C 
ATOM     20  C   UNL     1      -1.827  -2.180  10.595  0.00  0.00    -0.014 C 
ATOM     21  C   UNL     1      -1.924  -0.802   9.938  0.00  0.00    +0.005 C 
ATOM     22  C   UNL     1      -0.547  -0.390   9.412  0.00  0.00    +0.022 C 
ATOM     23  C   UNL     1      -3.203  -2.593  11.121  0.00  0.00    +0.007 C 
ENDBRANCH  15  17
ENDBRANCH   1  13
BRANCH   1  24
ATOM     24  C   UNL     1      -2.725  -2.899   5.257  0.00  0.00    +0.065 C 
BRANCH  24  25
ATOM     25  C   UNL     1      -3.765  -2.864   4.167  0.00  0.00    -0.039 C 
ATOM     26  C   UNL     1      -3.868  -3.707   3.113  0.00  0.00    -0.001 A 
ATOM     27  C   UNL     1      -3.072  -4.862   2.683  0.00  0.00    +0.010 A 
ATOM     28  C   UNL     1      -3.428  -5.522   1.557  0.00  0.00    +0.001 A 
ATOM     29  C   UNL     1      -4.536  -5.130   0.793  0.00  0.00    +0.002 A 
ATOM     30  C   UNL     1      -5.315  -4.079   1.124  0.00  0.00    +0.026 A 
ATOM     31  C   UNL     1      -5.033  -3.313   2.289  0.00  0.00    +0.043 A 
ATOM     32  N   UNL     1      -5.627  -2.269   2.812  0.00  0.00    -0.380 N 
ATOM     33  C   UNL     1      -4.909  -1.884   4.033  0.00  0.00    +0.144 C 
ATOM     34  H   UNL     1      -6.413  -1.826   2.455  0.00  0.00    +0.160 HD
ENDBRANCH  24  25
ENDBRANCH   1  24
TORSDOF 6
