REMARK  Name = ZINC56194570
REMARK  14 active torsions:
REMARK  status: ('A' for Active; 'I' for Inactive)
REMARK    1  A    between atoms: C_1  and  C_2
REMARK    2  A    between atoms: C_2  and  C_4
REMARK    3  A    between atoms: C_2  and  N_14
REMARK    4  A    between atoms: C_7  and  C_10
REMARK    5  A    between atoms: C_10  and  C_11
REMARK    6  A    between atoms: C_10  and  C_12
REMARK    7  A    between atoms: C_10  and  C_13
REMARK    8  A    between atoms: N_14  and  C_15
REMARK    9  A    between atoms: C_15  and  C_17
REMARK   10  A    between atoms: C_15  and  C_18
REMARK   11  A    between atoms: C_18  and  C_20
REMARK   12  A    between atoms: C_21  and  N_30
REMARK   13  A    between atoms: N_22  and  C_29
REMARK   14  A    between atoms: N_25  and  C_28
REMARK                            x       y       z     vdW  Elec       q    Type
REMARK                         _______ _______ _______ _____ _____    ______ ____
ROOT
ATOM      1  C   UNL     1      -1.616  -1.713  -1.323  0.00  0.00    -0.001 C 
ATOM      2  C   UNL     1      -1.501  -0.194  -1.188  0.00  0.00    -0.006 C 
ENDROOT
BRANCH   1   3
ATOM      3  N   UNL     1      -1.207  -2.349  -0.063  0.00  0.00    +0.390 N 
ATOM      4  H   UNL     1      -1.372  -3.343  -0.119  0.00  0.00    -0.084 HD
ATOM      5  H   UNL     1      -1.744  -1.962   0.699  0.00  0.00    -0.084 HD
BRANCH   3   7
ATOM      6  C   UNL     1       0.614  -2.634   1.549  0.00  0.00    -0.009 C 
ATOM      7  C   UNL     1       0.222  -2.102   0.169  0.00  0.00    -0.043 C 
BRANCH   7   8
ATOM      8  C   UNL     1       1.032  -2.806  -0.889  0.00  0.00    -0.062 A 
ATOM      9  C   UNL     1       0.664  -4.069  -1.315  0.00  0.00    +0.002 A 
ATOM     10  C   UNL     1       1.407  -4.715  -2.285  0.00  0.00    +0.004 A 
ATOM     11  C   UNL     1       2.517  -4.098  -2.830  0.00  0.00    -0.042 A 
ATOM     12  C   UNL     1       2.885  -2.835  -2.405  0.00  0.00    +0.004 A 
ATOM     13  C   UNL     1       2.139  -2.187  -1.438  0.00  0.00    +0.002 A 
BRANCH  11  14
ATOM     14  C   UNL     1       3.328  -4.803  -3.888  0.00  0.00    -0.013 C 
ATOM     15  C   UNL     1       2.439  -5.100  -5.097  0.00  0.00    +0.015 C 
ATOM     16  C   UNL     1       4.492  -3.908  -4.318  0.00  0.00    +0.015 C 
ATOM     17  C   UNL     1       3.874  -6.115  -3.321  0.00  0.00    +0.015 C 
ENDBRANCH  11  14
ENDBRANCH   7   8
ENDBRANCH   3   7
ENDBRANCH   1   3
BRANCH   1  18
ATOM     18  C   UNL     1      -3.043  -2.084  -1.633  0.00  0.00    +0.158 C 
ATOM     19  O   UNL     1      -3.773  -2.484  -0.748  0.00  0.00    -0.294 OA
BRANCH  18  20
ATOM     20  C   UNL     1      -3.533  -1.965  -2.951  0.00  0.00    +0.118 A 
ATOM     21  C   UNL     1      -4.888  -2.198  -3.245  0.00  0.00    +0.116 A 
ATOM     22  N   UNL     1      -5.314  -2.071  -4.536  0.00  0.00    -0.284 N 
ATOM     23  C   UNL     1      -4.468  -1.729  -5.520  0.00  0.00    +0.333 A 
ATOM     24  O   UNL     1      -4.897  -1.628  -6.653  0.00  0.00    -0.246 OA
ATOM     25  N   UNL     1      -3.164  -1.494  -5.299  0.00  0.00    -0.263 N 
ATOM     26  C   UNL     1      -2.645  -1.588  -4.058  0.00  0.00    +0.269 A 
ATOM     27  O   UNL     1      -1.464  -1.369  -3.860  0.00  0.00    -0.267 OA
ATOM     28  C   UNL     1      -2.296  -1.125  -6.420  0.00  0.00    +0.157 C 
ATOM     29  C   UNL     1      -6.724  -2.312  -4.853  0.00  0.00    +0.155 C 
BRANCH  21  30
ATOM     30  N   UNL     1      -5.759  -2.546  -2.260  0.00  0.00    -0.344 N 
ATOM     31  H   UNL     1      -5.591  -2.273  -1.345  0.00  0.00    +0.144 HD
ATOM     32  H   UNL     1      -6.549  -3.067  -2.473  0.00  0.00    +0.144 HD
ENDBRANCH  21  30
ENDBRANCH  18  20
ENDBRANCH   1  18
TORSDOF 7
