REMARK  Name = ZINC62099928
REMARK  5 active torsions:
REMARK  status: ('A' for Active; 'I' for Inactive)
REMARK    1  A    between atoms: C_1  and  C_2
REMARK    2  A    between atoms: C_2  and  C_3
REMARK    3  A    between atoms: C_7  and  C_20
REMARK    4  A    between atoms: C_9  and  N_12
REMARK    5  A    between atoms: C_20  and  N_21
REMARK                            x       y       z     vdW  Elec       q    Type
REMARK                         _______ _______ _______ _____ _____    ______ ____
ROOT
ATOM      1  C   UNL     1       0.757  -0.499  -1.278  0.00  0.00    -0.010 C 
ATOM      2  C   UNL     1       2.225  -0.076  -1.184  0.00  0.00    +0.004 C 
ATOM      3  C   UNL     1       2.851  -0.683   0.073  0.00  0.00    +0.003 C 
ATOM      4  C   UNL     1       2.763  -2.209   0.002  0.00  0.00    -0.011 C 
ATOM      5  C   UNL     1       1.295  -2.631  -0.092  0.00  0.00    +0.058 C 
ATOM      6  C   UNL     1       0.669  -2.025  -1.349  0.00  0.00    +0.022 C 
ENDROOT
BRANCH   5   7
ATOM      7  N   UNL     1       1.211  -4.096  -0.161  0.00  0.00    -0.297 NA
ATOM      8  C   UNL     1       1.895  -4.603  -1.342  0.00  0.00    +0.094 C 
ATOM      9  C   UNL     1       2.155  -6.107  -1.213  0.00  0.00    +0.111 C 
ATOM     10  C   UNL     1       0.909  -6.846  -1.656  0.00  0.00    +0.214 C 
ATOM     11  O   UNL     1       0.913  -7.476  -2.692  0.00  0.00    -0.276 OA
ATOM     12  N   UNL     1      -0.195  -6.803  -0.904  0.00  0.00    -0.314 N 
ATOM     13  C   UNL     1      -0.199  -6.043   0.357  0.00  0.00    +0.119 C 
ATOM     14  C   UNL     1      -0.160  -4.549   0.026  0.00  0.00    +0.103 C 
ATOM     15  H   UNL     1      -0.994  -7.273  -1.189  0.00  0.00    +0.149 HD
ENDBRANCH   5   7
BRANCH   1  17
ATOM     16  C   UNL     1      -0.015   1.528  -0.037  0.00  0.00    +0.004 C 
ATOM     17  C   UNL     1       0.004  -0.002  -0.042  0.00  0.00    +0.000 C 
ENDBRANCH   1  17
BRANCH   4  18
ATOM     18  C   UNL     1       3.389  -2.815   1.259  0.00  0.00    -0.081 C 
BRANCH  18  19
ATOM     19  N   UNL     1       4.826  -2.510   1.287  0.00  0.00    +0.378 N 
ATOM     20  H   UNL     1       5.269  -2.900   0.469  0.00  0.00    -0.090 HD
ATOM     21  H   UNL     1       4.957  -1.509   1.295  0.00  0.00    -0.090 HD
ATOM     22  H   UNL     1       5.238  -2.910   2.116  0.00  0.00    -0.090 HD
ENDBRANCH  18  19
ENDBRANCH   4  18
TORSDOF 4
