REMARK  Name = ZINC12761899
REMARK  12 active torsions:
REMARK  status: ('A' for Active; 'I' for Inactive)
REMARK    1  A    between atoms: C_1  and  O_2
REMARK    2  A    between atoms: O_2  and  C_3
REMARK    3  A    between atoms: C_6  and  C_11
REMARK    4  A    between atoms: C_7  and  O_9
REMARK    5  A    between atoms: O_9  and  C_10
REMARK    6  A    between atoms: C_13  and  C_16
REMARK    7  A    between atoms: C_16  and  S_17
REMARK    8  A    between atoms: S_17  and  C_18
REMARK    9  A    between atoms: C_21  and  C_24
REMARK   10  A    between atoms: N_22  and  N_23
REMARK   11  A    between atoms: C_27  and  O_30
REMARK   12  A    between atoms: O_30  and  C_31
REMARK                            x       y       z     vdW  Elec       q    Type
REMARK                         _______ _______ _______ _____ _____    ______ ____
ROOT
ATOM      1  C   UNL     1      -8.338  -1.185  -1.304  0.00  0.00    +0.209 A 
ATOM      2  N   UNL     1      -8.871  -1.421  -0.126  0.00  0.00    -0.121 NA
ATOM      3  N   UNL     1     -10.049  -1.914  -0.265  0.00  0.00    -0.127 NA
ATOM      4  C   UNL     1     -10.342  -2.023  -1.540  0.00  0.00    +0.182 A 
ATOM      5  N   UNL     1      -9.257  -1.554  -2.245  0.00  0.00    -0.224 N 
ENDROOT
BRANCH   4   6
ATOM      6  C   UNL     1     -11.602  -2.545  -2.111  0.00  0.00    +0.021 A 
ATOM      7  C   UNL     1     -11.668  -2.890  -3.462  0.00  0.00    +0.015 A 
ATOM      8  C   UNL     1     -12.843  -3.381  -3.989  0.00  0.00    +0.046 A 
ATOM      9  C   UNL     1     -13.964  -3.522  -3.181  0.00  0.00    +0.127 A 
ATOM     10  C   UNL     1     -13.903  -3.174  -1.838  0.00  0.00    +0.046 A 
ATOM     11  C   UNL     1     -12.730  -2.688  -1.301  0.00  0.00    +0.015 A 
BRANCH   9  12
ATOM     12  O   UNL     1     -15.122  -4.000  -3.705  0.00  0.00    -0.434 OA
BRANCH  12  13
ATOM     13  C   UNL     1     -15.114  -4.338  -5.094  0.00  0.00    +0.541 C 
ATOM     14  F   UNL     1     -14.800  -3.203  -5.849  0.00  0.00    -0.166 F 
ATOM     15  F   UNL     1     -14.157  -5.332  -5.327  0.00  0.00    -0.166 F 
ENDBRANCH  12  13
ENDBRANCH   9  12
ENDBRANCH   4   6
BRANCH   5  16
ATOM     16  N   UNL     1      -9.126  -1.477  -3.602  0.00  0.00    -0.295 N 
ATOM     17  H   UNL     1      -8.727  -2.326  -3.975  0.00  0.00    +0.163 HD
ATOM     18  H   UNL     1     -10.011  -1.270  -4.040  0.00  0.00    +0.163 HD
ENDBRANCH   5  16
BRANCH   1  19
ATOM     19  S   UNL     1      -6.740  -0.510  -1.612  0.00  0.00    -0.078 S 
BRANCH  19  20
ATOM     20  C   UNL     1      -6.160  -0.285   0.088  0.00  0.00    +0.133 C 
BRANCH  20  23
ATOM     21  C   UNL     1      -2.492  -0.007   0.038  0.00  0.00    +0.112 A 
ATOM     22  N   UNL     1      -3.725  -0.495   0.048  0.00  0.00    -0.243 NA
ATOM     23  C   UNL     1      -4.771   0.298   0.072  0.00  0.00    +0.059 A 
ATOM     24  C   UNL     1      -4.599   1.646   0.077  0.00  0.00    +0.071 A 
ATOM     25  S   UNL     1      -2.814   1.752   0.052  0.00  0.00    -0.075 S 
BRANCH  21  29
ATOM     26  C   UNL     1       1.226  -2.069  -0.021  0.00  0.00    +0.124 A 
ATOM     27  C   UNL     1       0.034  -2.784  -0.013  0.00  0.00    +0.046 A 
ATOM     28  C   UNL     1      -1.173  -2.119   0.002  0.00  0.00    +0.018 A 
ATOM     29  C   UNL     1      -1.200  -0.723   0.015  0.00  0.00    +0.049 A 
ATOM     30  C   UNL     1       0.002  -0.004   0.002  0.00  0.00    +0.133 A 
ATOM     31  C   UNL     1       1.209  -0.682  -0.013  0.00  0.00    +0.092 A 
BRANCH  26  33
ATOM     32  C   UNL     1       2.358  -4.159  -0.043  0.00  0.00    +0.277 C 
ATOM     33  O   UNL     1       2.412  -2.731  -0.035  0.00  0.00    -0.495 OA
ENDBRANCH  26  33
BRANCH  30  34
ATOM     34  O   UNL     1      -0.016   1.354   0.009  0.00  0.00    -0.494 OA
ATOM     35  C   UNL     1       1.248   2.020   0.001  0.00  0.00    +0.277 C 
ENDBRANCH  30  34
ENDBRANCH  21  29
ENDBRANCH  20  23
ENDBRANCH  19  20
ENDBRANCH   1  19
TORSDOF 10
