REMARK  Name = ZINC20995715
REMARK  11 active torsions:
REMARK  status: ('A' for Active; 'I' for Inactive)
REMARK    1  A    between atoms: C_1  and  O_2
REMARK    2  A    between atoms: O_2  and  C_3
REMARK    3  A    between atoms: C_3  and  C_5
REMARK    4  A    between atoms: C_5  and  C_6
REMARK    5  A    between atoms: C_6  and  C_7
REMARK    6  A    between atoms: N_10  and  C_31
REMARK    7  A    between atoms: C_13  and  N_15
REMARK    8  A    between atoms: N_18  and  C_21
REMARK    9  A    between atoms: C_25  and  C_27
REMARK   10  A    between atoms: C_31  and  C_32
REMARK   11  A    between atoms: C_37  and  O_38
REMARK                            x       y       z     vdW  Elec       q    Type
REMARK                         _______ _______ _______ _____ _____    ______ ____
ROOT
ATOM      1  C   UNL     1      -1.325   3.565  -4.544  0.00  0.00    -0.010 C 
ATOM      2  C   UNL     1      -0.463   2.385  -4.091  0.00  0.00    -0.073 C 
ATOM      3  N   UNL     1       0.030   2.631  -2.730  0.00  0.00    +0.383 N 
ATOM      4  C   UNL     1      -1.079   2.748  -1.776  0.00  0.00    -0.077 C 
ATOM      5  C   UNL     1      -1.960   3.940  -2.159  0.00  0.00    +0.000 C 
ATOM      6  C   UNL     1      -2.501   3.733  -3.577  0.00  0.00    +0.056 C 
ATOM      7  H   UNL     1       0.569   3.590  -2.737  0.00  0.00    -0.081 HD
ENDROOT
BRANCH   6   8
ATOM      8  N   UNL     1      -3.299   4.901  -3.973  0.00  0.00    -0.296 NA
ATOM      9  C   UNL     1      -4.373   5.158  -3.003  0.00  0.00    +0.103 C 
ATOM     10  C   UNL     1      -5.130   6.425  -3.408  0.00  0.00    +0.120 C 
ATOM     11  N   UNL     1      -5.676   6.255  -4.761  0.00  0.00    -0.327 N 
ATOM     12  C   UNL     1      -4.602   5.998  -5.731  0.00  0.00    +0.120 C 
ATOM     13  C   UNL     1      -3.846   4.730  -5.327  0.00  0.00    +0.103 C 
BRANCH  11  14
ATOM     14  C   UNL     1      -6.436   7.365  -5.138  0.00  0.00    +0.030 A 
ATOM     15  C   UNL     1      -6.124   8.060  -6.300  0.00  0.00    +0.023 A 
ATOM     16  C   UNL     1      -6.877   9.157  -6.669  0.00  0.00    +0.002 A 
ATOM     17  C   UNL     1      -7.941   9.564  -5.885  0.00  0.00    +0.012 A 
ATOM     18  C   UNL     1      -8.253   8.874  -4.728  0.00  0.00    +0.057 A 
ATOM     19  C   UNL     1      -7.507   7.773  -4.355  0.00  0.00    +0.035 A 
BRANCH  18  20
ATOM     20  C   UNL     1      -9.413   9.321  -3.876  0.00  0.00    +0.417 C 
ATOM     21  F   UNL     1     -10.013  10.444  -4.456  0.00  0.00    -0.166 F 
ATOM     22  F   UNL     1     -10.351   8.287  -3.784  0.00  0.00    -0.166 F 
ATOM     23  F   UNL     1      -8.953   9.647  -2.595  0.00  0.00    -0.166 F 
ENDBRANCH  18  20
ENDBRANCH  11  14
ENDBRANCH   6   8
BRANCH   1  24
ATOM     24  C   UNL     1      -0.482   4.841  -4.549  0.00  0.00    +0.014 C 
BRANCH  24  25
ATOM     25  C   UNL     1       0.608   4.728  -5.616  0.00  0.00    +0.121 C 
BRANCH  25  26
ATOM     26  C   UNL     1       1.439   5.985  -5.621  0.00  0.00    +0.307 C 
ATOM     27  O   UNL     1       1.186   6.880  -4.850  0.00  0.00    -0.251 OA
BRANCH  26  29
ATOM     28  C   UNL     1       3.218   7.349  -6.431  0.00  0.00    +0.280 C 
ATOM     29  O   UNL     1       2.461   6.111  -6.482  0.00  0.00    -0.468 OA
ENDBRANCH  26  29
ENDBRANCH  25  26
ENDBRANCH  24  25
ENDBRANCH   1  24
BRANCH   3  30
ATOM     30  C   UNL     1       0.974   1.584  -2.315  0.00  0.00    -0.039 C 
BRANCH  30  31
ATOM     31  C   UNL     1       1.642   1.992  -1.027  0.00  0.00    -0.022 A 
ATOM     32  C   UNL     1       2.914   2.531  -1.050  0.00  0.00    +0.005 A 
ATOM     33  C   UNL     1       3.528   2.907   0.131  0.00  0.00    +0.000 A 
ATOM     34  C   UNL     1       2.871   2.743   1.337  0.00  0.00    +0.004 A 
ATOM     35  C   UNL     1       1.597   2.210   1.364  0.00  0.00    +0.045 A 
ATOM     36  C   UNL     1       0.981   1.827   0.181  0.00  0.00    +0.118 A 
BRANCH  36  37
ATOM     37  O   UNL     1      -0.270   1.297   0.205  0.00  0.00    -0.507 OA
ATOM     38  H   UNL     1      -0.793   1.167   1.164  0.00  0.00    +0.292 HD
ENDBRANCH  36  37
ENDBRANCH  30  31
ENDBRANCH   3  30
TORSDOF 10
