REMARK  Name = ZINC22151476
REMARK  8 active torsions:
REMARK  status: ('A' for Active; 'I' for Inactive)
REMARK    1  A    between atoms: C_1  and  C_2
REMARK    2  A    between atoms: C_2  and  C_4
REMARK    3  A    between atoms: C_2  and  N_22
REMARK    4  A    between atoms: C_7  and  S_10
REMARK    5  A    between atoms: S_10  and  N_13
REMARK    6  A    between atoms: N_13  and  C_14
REMARK    7  A    between atoms: C_17  and  S_20
REMARK    8  A    between atoms: S_20  and  C_21
REMARK                            x       y       z     vdW  Elec       q    Type
REMARK                         _______ _______ _______ _____ _____    ______ ____
ROOT
ATOM      1  S   UNL     1      -2.916   4.015   0.080  0.00  0.00    +0.072 S 
ATOM      2  O   UNL     1      -4.062   3.294   0.511  0.00  0.00    -0.150 OA
ATOM      3  O   UNL     1      -2.500   5.224   0.700  0.00  0.00    -0.150 OA
ENDROOT
BRANCH   1   7
ATOM      4  C   UNL     1       0.584   1.157   0.337  0.00  0.00    -0.062 A 
ATOM      5  C   UNL     1      -0.708   0.667   0.319  0.00  0.00    +0.004 A 
ATOM      6  C   UNL     1      -1.777   1.540   0.235  0.00  0.00    +0.029 A 
ATOM      7  C   UNL     1      -1.554   2.903   0.180  0.00  0.00    +0.109 A 
ATOM      8  C   UNL     1      -0.261   3.393   0.199  0.00  0.00    +0.029 A 
ATOM      9  C   UNL     1       0.808   2.519   0.278  0.00  0.00    +0.004 A 
BRANCH   4  11
ATOM     10  C   UNL     1       2.256   0.147   1.865  0.00  0.00    -0.009 C 
ATOM     11  C   UNL     1       1.750   0.205   0.423  0.00  0.00    -0.047 C 
BRANCH  11  12
ATOM     12  N   UNL     1       2.829   0.673  -0.457  0.00  0.00    +0.382 N 
ATOM     13  H   UNL     1       2.465   0.715  -1.494  0.00  0.00    -0.089 HD
ATOM     14  H   UNL     1       3.680  -0.022  -0.394  0.00  0.00    -0.089 HD
ATOM     15  H   UNL     1       3.151   1.676  -0.140  0.00  0.00    -0.089 HD
ENDBRANCH  11  12
ENDBRANCH   4  11
ENDBRANCH   1   7
BRANCH   1  16
ATOM     16  N   UNL     1      -3.150   4.361  -1.522  0.00  0.00    -0.216 N 
ATOM     17  H   UNL     1      -3.019   5.390  -1.888  0.00  0.00    +0.174 HD
BRANCH  16  18
ATOM     18  C   UNL     1      -3.513   3.343  -2.412  0.00  0.00    +0.048 A 
ATOM     19  C   UNL     1      -2.582   2.843  -3.313  0.00  0.00    +0.025 A 
ATOM     20  C   UNL     1      -2.939   1.836  -4.188  0.00  0.00    +0.016 A 
ATOM     21  C   UNL     1      -4.233   1.330  -4.173  0.00  0.00    +0.008 A 
ATOM     22  C   UNL     1      -5.165   1.833  -3.275  0.00  0.00    +0.016 A 
ATOM     23  C   UNL     1      -4.807   2.837  -2.398  0.00  0.00    +0.025 A 
BRANCH  21  24
ATOM     24  S   UNL     1      -4.690   0.048  -5.292  0.00  0.00    -0.129 S 
ATOM     25  C   UNL     1      -3.175  -0.269  -6.239  0.00  0.00    +0.090 C 
ENDBRANCH  21  24
ENDBRANCH  16  18
ENDBRANCH   1  16
TORSDOF 6
