REMARK  Name = ZINC36559611
REMARK  16 active torsions:
REMARK  status: ('A' for Active; 'I' for Inactive)
REMARK    1  A    between atoms: C_1  and  C_2
REMARK    2  A    between atoms: C_2  and  C_3
REMARK    3  A    between atoms: C_3  and  C_4
REMARK    4  A    between atoms: C_4  and  N_5
REMARK    5  A    between atoms: C_6  and  C_8
REMARK    6  A    between atoms: C_8  and  C_10
REMARK    7  A    between atoms: C_8  and  N_19
REMARK    8  A    between atoms: C_11  and  O_18
REMARK    9  A    between atoms: C_13  and  O_17
REMARK   10  A    between atoms: C_15  and  O_16
REMARK   11  A    between atoms: N_19  and  C_20
REMARK   12  A    between atoms: C_20  and  C_21
REMARK   13  A    between atoms: C_21  and  C_22
REMARK   14  A    between atoms: C_23  and  C_25
REMARK   15  A    between atoms: C_25  and  C_33
REMARK   16  A    between atoms: C_26  and  C_27
REMARK                            x       y       z     vdW  Elec       q    Type
REMARK                         _______ _______ _______ _____ _____    ______ ____
ROOT
ATOM      1  C   UNL     1       3.159  -4.339   5.208  0.00  0.00    +0.199 C 
ENDROOT
BRANCH   1   2
ATOM      2  C   UNL     1       4.402  -4.251   6.056  0.00  0.00    +0.065 A 
ATOM      3  C   UNL     1       5.574  -4.859   5.634  0.00  0.00    +0.129 A 
ATOM      4  C   UNL     1       6.718  -4.778   6.415  0.00  0.00    +0.091 A 
ATOM      5  C   UNL     1       6.688  -4.087   7.617  0.00  0.00    +0.124 A 
ATOM      6  C   UNL     1       5.516  -3.478   8.038  0.00  0.00    +0.091 A 
ATOM      7  C   UNL     1       4.374  -3.556   7.256  0.00  0.00    +0.129 A 
BRANCH   7   8
ATOM      8  O   UNL     1       3.227  -2.954   7.667  0.00  0.00    -0.506 OA
ATOM      9  H   UNL     1       2.626  -3.540   8.148  0.00  0.00    +0.292 HD
ENDBRANCH   7   8
BRANCH   5  10
ATOM     10  O   UNL     1       7.809  -4.008   8.382  0.00  0.00    -0.507 OA
ATOM     11  H   UNL     1       8.367  -3.244   8.184  0.00  0.00    +0.292 HD
ENDBRANCH   5  10
BRANCH   3  12
ATOM     12  O   UNL     1       5.603  -5.536   4.456  0.00  0.00    -0.506 OA
ATOM     13  H   UNL     1       5.932  -5.015   3.711  0.00  0.00    +0.292 HD
ENDBRANCH   3  12
ENDBRANCH   1   2
BRANCH   1  15
ATOM     14  N   UNL     1       4.311  -3.641   3.133  0.00  0.00    -0.313 N 
ATOM     15  C   UNL     1       3.548  -4.553   3.768  0.00  0.00    +0.238 C 
ATOM     16  O   UNL     1       3.175  -5.546   3.180  0.00  0.00    -0.273 OA
ATOM     17  H   UNL     1       4.610  -2.847   3.604  0.00  0.00    +0.149 HD
BRANCH  14  18
ATOM     18  C   UNL     1       4.690  -3.849   1.733  0.00  0.00    +0.104 C 
BRANCH  18  19
ATOM     19  C   UNL     1       5.549  -2.676   1.258  0.00  0.00    +0.018 C 
BRANCH  19  21
ATOM     20  C   UNL     1       6.804  -1.720  -0.680  0.00  0.00    +0.004 C 
ATOM     21  C   UNL     1       5.944  -2.893  -0.204  0.00  0.00    -0.002 C 
ENDBRANCH  19  21
ENDBRANCH  18  19
ENDBRANCH  14  18
ENDBRANCH   1  15
BRANCH   1  22
ATOM     22  N   UNL     1       2.336  -5.463   5.663  0.00  0.00    -0.282 N 
ATOM     23  C   UNL     1       1.046  -5.261   5.998  0.00  0.00    +0.248 C 
ATOM     24  O   UNL     1       0.374  -6.185   6.415  0.00  0.00    -0.270 OA
BRANCH  23  25
ATOM     25  C   UNL     1       0.451  -3.922   5.858  0.00  0.00    +0.045 C 
ATOM     26  C   UNL     1      -0.399  -3.453   6.811  0.00  0.00    +0.021 C 
BRANCH  26  27
ATOM     27  C   UNL     1      -1.139  -2.205   6.584  0.00  0.00    -0.024 A 
ATOM     28  C   UNL     1      -1.562  -1.861   5.295  0.00  0.00    +0.008 A 
ATOM     29  C   UNL     1      -2.256  -0.688   5.091  0.00  0.00    +0.001 A 
ATOM     30  C   UNL     1      -2.537   0.149   6.158  0.00  0.00    +0.000 A 
ATOM     31  C   UNL     1      -2.122  -0.183   7.436  0.00  0.00    +0.001 A 
ATOM     32  C   UNL     1      -1.432  -1.355   7.658  0.00  0.00    +0.008 A 
ENDBRANCH  26  27
BRANCH  25  33
ATOM     33  C   UNL     1       0.776  -3.086   4.680  0.00  0.00    -0.013 A 
ATOM     34  C   UNL     1       0.556  -3.575   3.392  0.00  0.00    +0.008 A 
ATOM     35  C   UNL     1       0.862  -2.791   2.298  0.00  0.00    +0.001 A 
ATOM     36  C   UNL     1       1.385  -1.523   2.477  0.00  0.00    +0.000 A 
ATOM     37  C   UNL     1       1.606  -1.033   3.752  0.00  0.00    +0.001 A 
ATOM     38  C   UNL     1       1.299  -1.805   4.854  0.00  0.00    +0.008 A 
ENDBRANCH  25  33
ENDBRANCH  23  25
BRANCH  22  39
ATOM     39  C   UNL     1       2.916  -6.805   5.755  0.00  0.00    +0.109 C 
BRANCH  39  40
ATOM     40  C   UNL     1       3.441  -7.038   7.173  0.00  0.00    +0.016 C 
ATOM     41  C   UNL     1       4.117  -8.409   7.248  0.00  0.00    +0.005 C 
ENDBRANCH  39  40
ENDBRANCH  22  39
ENDBRANCH   1  22
TORSDOF 14
