REMARK  Name = ZINC12042747
REMARK  8 active torsions:
REMARK  status: ('A' for Active; 'I' for Inactive)
REMARK    1  A    between atoms: C_1  and  C_2
REMARK    2  A    between atoms: C_3  and  C_32
REMARK    3  A    between atoms: C_5  and  N_24
REMARK    4  A    between atoms: C_6  and  C_7
REMARK    5  A    between atoms: C_7  and  C_9
REMARK    6  A    between atoms: C_7  and  N_57
REMARK    7  A    between atoms: C_12  and  C_15
REMARK    8  A    between atoms: C_25  and  C_27
REMARK                            x       y       z     vdW  Elec       q    Type
REMARK                         _______ _______ _______ _____ _____    ______ ____
ROOT
ATOM      1  C   UNL     1      -0.056   1.049   0.046  0.00  0.00    -0.004 C 
ENDROOT
BRANCH   1   7
ATOM      2  C   UNL     1      -1.782  -0.703  -1.516  0.00  0.00    +0.045 C 
ATOM      3  C   UNL     1      -1.567   0.729  -1.933  0.00  0.00    -0.037 A 
ATOM      4  C   UNL     1      -2.178   1.222  -3.038  0.00  0.00    -0.008 A 
ATOM      5  S   UNL     1      -1.589   2.907  -3.068  0.00  0.00    -0.078 S 
ATOM      6  C   UNL     1      -0.572   2.847  -1.602  0.00  0.00    +0.074 A 
ATOM      7  C   UNL     1      -0.747   1.560  -1.191  0.00  0.00    -0.025 A 
ATOM      8  C   UNL     1      -3.109   0.526  -3.996  0.00  0.00    +0.052 C 
BRANCH   6   9
ATOM      9  N   UNL     1       0.202   3.857  -1.027  0.00  0.00    -0.273 N 
ATOM     10  C   UNL     1       0.150   5.110  -1.520  0.00  0.00    +0.284 C 
ATOM     11  O   UNL     1      -0.572   5.362  -2.467  0.00  0.00    -0.266 OA
ATOM     12  H   UNL     1       0.777   3.656  -0.272  0.00  0.00    +0.156 HD
BRANCH  10  13
ATOM     13  C   UNL     1       0.963   6.170  -0.915  0.00  0.00    +0.189 A 
ATOM     14  C   UNL     1       1.005   7.475  -1.315  0.00  0.00    +0.054 A 
ATOM     15  C   UNL     1       1.908   8.129  -0.462  0.00  0.00    +0.042 A 
ATOM     16  C   UNL     1       2.372   7.206   0.409  0.00  0.00    +0.196 A 
ATOM     17  O   UNL     1       1.796   6.028   0.136  0.00  0.00    -0.458 OA
ENDBRANCH  10  13
ENDBRANCH   6   9
ENDBRANCH   1   7
BRANCH   1  23
ATOM     18  C   UNL     1       2.041   1.146  -1.160  0.00  0.00    -0.078 C 
ATOM     19  C   UNL     1       3.431   1.787  -1.169  0.00  0.00    -0.019 C 
ATOM     20  C   UNL     1       4.211   1.319   0.062  0.00  0.00    -0.004 C 
ATOM     21  C   UNL     1       3.428   1.690   1.324  0.00  0.00    -0.019 C 
ATOM     22  C   UNL     1       2.038   1.052   1.262  0.00  0.00    -0.078 C 
ATOM     23  N   UNL     1       1.330   1.562   0.068  0.00  0.00    +0.387 N 
ATOM     24  H   UNL     1       1.305   2.587   0.108  0.00  0.00    -0.080 HD
ENDBRANCH   1  23
BRANCH   1  25
ATOM     25  C   UNL     1      -0.780   1.550   1.270  0.00  0.00    -0.057 A 
ATOM     26  C   UNL     1      -0.484   2.797   1.785  0.00  0.00    +0.003 A 
ATOM     27  C   UNL     1      -1.152   3.259   2.904  0.00  0.00    +0.012 A 
ATOM     28  C   UNL     1      -2.108   2.468   3.514  0.00  0.00    +0.055 A 
ATOM     29  C   UNL     1      -2.400   1.218   3.001  0.00  0.00    +0.012 A 
ATOM     30  C   UNL     1      -1.736   0.758   1.879  0.00  0.00    +0.003 A 
BRANCH  28  31
ATOM     31  C   UNL     1      -2.833   2.969   4.737  0.00  0.00    +0.417 C 
ATOM     32  F   UNL     1      -2.126   2.592   5.884  0.00  0.00    -0.166 F 
ATOM     33  F   UNL     1      -2.927   4.364   4.684  0.00  0.00    -0.166 F 
ATOM     34  F   UNL     1      -4.117   2.416   4.777  0.00  0.00    -0.166 F 
ENDBRANCH  28  31
ENDBRANCH   1  25
TORSDOF 6
