REMARK  Name = ZINC54374958
REMARK  5 active torsions:
REMARK  status: ('A' for Active; 'I' for Inactive)
REMARK    1  A    between atoms: C_1  and  C_2
REMARK    2  A    between atoms: N_8  and  C_9
REMARK    3  A    between atoms: C_12  and  S_18
REMARK    4  A    between atoms: C_14  and  N_15
REMARK    5  A    between atoms: S_18  and  N_21
REMARK                            x       y       z     vdW  Elec       q    Type
REMARK                         _______ _______ _______ _____ _____    ______ ____
ROOT
ATOM      1  C   UNL     1       1.085   0.374   2.218  0.00  0.00    +0.060 A 
ATOM      2  C   UNL     1       0.220   0.592   3.284  0.00  0.00    +0.027 A 
ATOM      3  C   UNL     1       0.584   1.452   4.301  0.00  0.00    +0.030 A 
ATOM      4  C   UNL     1       1.807   2.096   4.260  0.00  0.00    +0.107 A 
ATOM      5  C   UNL     1       2.670   1.882   3.201  0.00  0.00    +0.063 A 
ATOM      6  C   UNL     1       2.315   1.019   2.183  0.00  0.00    +0.149 A 
ENDROOT
BRANCH   1  13
ATOM      7  C   UNL     1      -0.019   1.526   0.010  0.00  0.00    +0.026 C 
ATOM      8  C   UNL     1       0.002  -0.004   0.002  0.00  0.00    +0.053 C 
ATOM      9  C   UNL     1       0.727  -0.502  -1.252  0.00  0.00    -0.060 C 
ATOM     10  N   UNL     1       0.865  -1.963  -1.189  0.00  0.00    +0.381 N 
ATOM     11  C   UNL     1       1.727  -2.336  -0.060  0.00  0.00    -0.063 C 
ATOM     12  C   UNL     1       1.051  -1.928   1.253  0.00  0.00    +0.086 C 
ATOM     13  N   UNL     1       0.721  -0.495   1.188  0.00  0.00    -0.329 N 
ATOM     14  H   UNL     1      -0.045  -2.380  -1.068  0.00  0.00    -0.086 HD
ATOM     15  H   UNL     1       1.275  -2.298  -2.048  0.00  0.00    -0.086 HD
ENDBRANCH   1  13
BRANCH   6  16
ATOM     16  N   UNL     1       3.242   0.786   1.053  0.00  0.00    +0.058 N 
ATOM     17  O   UNL     1       4.312   1.347   1.024  0.00  0.00    -0.126 OA
ATOM     18  O   UNL     1       2.929   0.034   0.160  0.00  0.00    -0.126 OA
ENDBRANCH   6  16
BRANCH   4  19
ATOM     19  S   UNL     1       2.266   3.193   5.561  0.00  0.00    +0.056 S 
ATOM     20  O   UNL     1       3.226   4.089   5.017  0.00  0.00    -0.153 OA
ATOM     21  O   UNL     1       1.058   3.642   6.159  0.00  0.00    -0.153 OA
BRANCH  19  22
ATOM     22  N   UNL     1       3.054   2.292   6.705  0.00  0.00    -0.204 NA
ATOM     23  H   UNL     1       3.180   1.340   6.571  0.00  0.00    +0.144 HD
ATOM     24  H   UNL     1       3.391   2.717   7.510  0.00  0.00    +0.144 HD
ENDBRANCH  19  22
ENDBRANCH   4  19
TORSDOF 4
