REMARK  Name = ZINC49060996
REMARK  9 active torsions:
REMARK  status: ('A' for Active; 'I' for Inactive)
REMARK    1  A    between atoms: C_1  and  C_2
REMARK    2  A    between atoms: C_2  and  C_3
REMARK    3  A    between atoms: C_3  and  C_4
REMARK    4  A    between atoms: C_3  and  C_6
REMARK    5  A    between atoms: C_3  and  N_10
REMARK    6  A    between atoms: C_4  and  C_5
REMARK    7  A    between atoms: N_7  and  O_8
REMARK    8  A    between atoms: N_10  and  S_11
REMARK    9  A    between atoms: S_11  and  C_14
REMARK                            x       y       z     vdW  Elec       q    Type
REMARK                         _______ _______ _______ _____ _____    ______ ____
ROOT
ATOM      1  C   UNL     1       0.772  -0.464   1.135  0.00  0.00    +0.097 C 
ENDROOT
BRANCH   1   2
ATOM      2  C   UNL     1       2.096   0.227   1.340  0.00  0.00    +0.153 C 
ATOM      3  N   UNL     1       3.190  -0.461   1.341  0.00  0.00    -0.075 NA
ATOM      4  N   UNL     1       2.140   1.591   1.526  0.00  0.00    -0.342 N 
ATOM      5  H   UNL     1       1.316   2.097   1.599  0.00  0.00    +0.144 HD
ATOM      6  H   UNL     1       2.995   2.045   1.584  0.00  0.00    +0.144 HD
BRANCH   3   7
ATOM      7  O   UNL     1       4.434   0.188   1.533  0.00  0.00    -0.408 OA
ATOM      8  H   UNL     1       5.195  -0.408   1.518  0.00  0.00    +0.328 HD
ENDBRANCH   3   7
ENDBRANCH   1   2
BRANCH   1  10
ATOM      9  C   UNL     1       1.091  -0.072  -1.312  0.00  0.00    +0.006 C 
ATOM     10  C   UNL     1       0.114   0.063  -0.142  0.00  0.00    +0.028 C 
ENDBRANCH   1  10
BRANCH   1  11
ATOM     11  C   UNL     1       0.998  -1.972   1.008  0.00  0.00    +0.028 C 
ATOM     12  C   UNL     1       1.506  -2.526   2.340  0.00  0.00    +0.006 C 
ENDBRANCH   1  11
BRANCH   1  13
ATOM     13  N   UNL     1      -0.101  -0.196   2.281  0.00  0.00    -0.176 NA
ATOM     14  H   UNL     1       0.285  -0.002   3.149  0.00  0.00    +0.149 HD
BRANCH  13  15
ATOM     15  S   UNL     1      -1.746  -0.224   2.093  0.00  0.00    +0.067 S 
ATOM     16  O   UNL     1      -2.301   0.288   3.297  0.00  0.00    -0.152 OA
ATOM     17  O   UNL     1      -2.019   0.351   0.823  0.00  0.00    -0.152 OA
BRANCH  15  18
ATOM     18  C   UNL     1      -2.230  -1.915   1.995  0.00  0.00    +0.156 A 
ATOM     19  C   UNL     1      -3.453  -2.439   1.736  0.00  0.00    +0.051 A 
ATOM     20  C   UNL     1      -3.601  -3.814   1.708  0.00  0.00    +0.025 A 
ATOM     21  C   UNL     1      -2.518  -4.596   1.940  0.00  0.00    +0.048 A 
ATOM     22  S   UNL     1      -1.235  -3.383   2.202  0.00  0.00    -0.076 S 
ATOM     23 BR   UNL     1      -4.935  -1.308   1.420  0.00  0.00    -0.048 Br
ENDBRANCH  15  18
ENDBRANCH  13  15
ENDBRANCH   1  13
TORSDOF 7
