REMARK  Name = ZINC35966251
REMARK  14 active torsions:
REMARK  status: ('A' for Active; 'I' for Inactive)
REMARK    1  A    between atoms: C_1  and  C_2
REMARK    2  A    between atoms: C_2  and  N_3
REMARK    3  A    between atoms: C_6  and  C_11
REMARK    4  A    between atoms: C_14  and  C_18
REMARK    5  A    between atoms: C_16  and  C_17
REMARK    6  A    between atoms: N_21  and  C_23
REMARK    7  A    between atoms: C_23  and  C_25
REMARK    8  A    between atoms: C_23  and  C_28
REMARK    9  A    between atoms: C_25  and  C_26
REMARK   10  A    between atoms: C_25  and  C_27
REMARK   11  A    between atoms: N_30  and  C_31
REMARK   12  A    between atoms: C_31  and  C_32
REMARK   13  A    between atoms: C_32  and  C_33
REMARK   14  A    between atoms: C_32  and  C_34
REMARK                            x       y       z     vdW  Elec       q    Type
REMARK                         _______ _______ _______ _____ _____    ______ ____
ROOT
ATOM      1  N   UNL     1       0.249   0.835  -1.109  0.00  0.00    -0.257 N 
ATOM      2  C   UNL     1       1.455   0.360  -0.678  0.00  0.00    +0.042 C 
ATOM      3  C   UNL     1       1.556  -0.367   0.453  0.00  0.00    +0.058 C 
ATOM      4  C   UNL     1       0.285  -0.639   1.232  0.00  0.00    +0.142 C 
ATOM      5  N   UNL     1      -0.964  -0.083   0.685  0.00  0.00    -0.288 N 
ATOM      6  C   UNL     1      -0.903   0.629  -0.458  0.00  0.00    +0.307 C 
ATOM      7  O   UNL     1      -1.929   1.096  -0.915  0.00  0.00    -0.252 OA
ATOM      8  C   UNL     1       2.898  -0.737   0.679  0.00  0.00    +0.247 C 
ATOM      9  O   UNL     1       3.279  -1.398   1.628  0.00  0.00    -0.270 OA
ATOM     10  N   UNL     1       3.702  -0.266  -0.291  0.00  0.00    -0.280 N 
ATOM     11  C   UNL     1       2.855   0.473  -1.239  0.00  0.00    +0.160 C 
ATOM     12  H   UNL     1      -1.810  -0.223   1.138  0.00  0.00    +0.151 HD
ENDROOT
BRANCH   4  13
ATOM     13  C   UNL     1       0.119  -2.132   1.343  0.00  0.00    -0.020 A 
ATOM     14  C   UNL     1       0.818  -2.971   0.494  0.00  0.00    +0.006 A 
ATOM     15  C   UNL     1       0.665  -4.340   0.596  0.00  0.00    +0.004 A 
ATOM     16  C   UNL     1      -0.185  -4.873   1.547  0.00  0.00    -0.050 A 
ATOM     17  C   UNL     1      -0.883  -4.035   2.397  0.00  0.00    +0.007 A 
ATOM     18  C   UNL     1      -0.727  -2.664   2.297  0.00  0.00    -0.045 A 
ATOM     19  C   UNL     1      -1.484  -1.751   3.227  0.00  0.00    +0.044 C 
ATOM     20  C   UNL     1      -0.352  -6.366   1.657  0.00  0.00    +0.044 C 
ENDBRANCH   4  13
BRANCH   1  22
ATOM     21  C   UNL     1       0.415   3.099  -2.019  0.00  0.00    +0.025 C 
ATOM     22  C   UNL     1       0.215   1.618  -2.347  0.00  0.00    +0.111 C 
ENDBRANCH   1  22
BRANCH  10  23
ATOM     23  C   UNL     1       5.152  -0.454  -0.385  0.00  0.00    +0.165 C 
BRANCH  23  24
ATOM     24  C   UNL     1       5.815   0.137   0.832  0.00  0.00    +0.234 C 
ATOM     25  O   UNL     1       5.154   0.408   1.812  0.00  0.00    -0.274 OA
ATOM     26  N   UNL     1       7.144   0.365   0.832  0.00  0.00    -0.314 N 
ATOM     27  H   UNL     1       7.664   0.198   0.031  0.00  0.00    +0.149 HD
BRANCH  26  28
ATOM     28  C   UNL     1       7.801   0.864   2.042  0.00  0.00    +0.107 C 
BRANCH  28  29
ATOM     29  C   UNL     1       9.298   1.035   1.776  0.00  0.00    -0.000 C 
ATOM     30  C   UNL     1       9.507   2.125   0.723  0.00  0.00    +0.009 C 
ATOM     31  C   UNL     1      10.005   1.436   3.072  0.00  0.00    +0.009 C 
ENDBRANCH  28  29
ENDBRANCH  26  28
ENDBRANCH  23  24
BRANCH  23  32
ATOM     32  C   UNL     1       5.469  -1.949  -0.463  0.00  0.00    +0.012 C 
ATOM     33  C   UNL     1       4.696  -2.574  -1.627  0.00  0.00    +0.009 C 
ATOM     34  C   UNL     1       6.970  -2.141  -0.687  0.00  0.00    +0.009 C 
ENDBRANCH  23  32
ENDBRANCH  10  23
TORSDOF 7
