REMARK  Name = ZINC13729283
REMARK  7 active torsions:
REMARK  status: ('A' for Active; 'I' for Inactive)
REMARK    1  A    between atoms: C_6  and  C_7
REMARK    2  A    between atoms: C_7  and  O_8
REMARK    3  A    between atoms: O_8  and  C_9
REMARK    4  A    between atoms: C_12  and  C_16
REMARK    5  A    between atoms: C_16  and  N_17
REMARK    6  A    between atoms: N_17  and  C_18
REMARK    7  A    between atoms: C_27  and  O_30
REMARK                            x       y       z     vdW  Elec       q    Type
REMARK                         _______ _______ _______ _____ _____    ______ ____
ROOT
ATOM      1  C   UNL     1      -2.917   2.995   1.558  0.00  0.00    +0.135 A 
ATOM      2  C   UNL     1      -3.660   3.414   0.464  0.00  0.00    +0.047 A 
ATOM      3  C   UNL     1      -4.855   4.081   0.657  0.00  0.00    +0.005 A 
ATOM      4  C   UNL     1      -5.309   4.331   1.939  0.00  0.00    -0.063 A 
ATOM      5  C   UNL     1      -4.571   3.915   3.030  0.00  0.00    +0.020 A 
ATOM      6  C   UNL     1      -3.378   3.243   2.843  0.00  0.00    +0.060 A 
ATOM      7 BR   UNL     1      -2.371   2.667   4.337  0.00  0.00    -0.047 Br
ENDROOT
BRANCH   1   8
ATOM      8  O   UNL     1      -1.741   2.339   1.370  0.00  0.00    -0.486 OA
BRANCH   8   9
ATOM      9  C   UNL     1      -1.332   2.114   0.020  0.00  0.00    +0.264 C 
BRANCH   9  15
ATOM     10  C   UNL     1       1.171   2.086   0.002  0.00  0.00    +0.008 A 
ATOM     11  C   UNL     1       2.377   1.412  -0.013  0.00  0.00    +0.020 A 
ATOM     12  C   UNL     1       2.397   0.029  -0.021  0.00  0.00    +0.041 A 
ATOM     13  C   UNL     1       1.208  -0.679  -0.013  0.00  0.00    +0.020 A 
ATOM     14  C   UNL     1       0.002  -0.004   0.002  0.00  0.00    +0.008 A 
ATOM     15  C   UNL     1      -0.017   1.378   0.010  0.00  0.00    -0.010 A 
ATOM     16 CL   UNL     1       3.912  -0.818  -0.039  0.00  0.00    -0.084 Cl
ENDBRANCH   9  15
ENDBRANCH   8   9
ENDBRANCH   1   8
BRANCH   4  17
ATOM     17  C   UNL     1      -6.613   5.059   2.146  0.00  0.00    -0.046 C 
BRANCH  17  18
ATOM     18  N   UNL     1      -7.712   4.087   2.209  0.00  0.00    +0.386 N 
ATOM     19  H   UNL     1      -7.755   3.519   1.268  0.00  0.00    -0.085 HD
ATOM     20  H   UNL     1      -7.541   3.395   3.047  0.00  0.00    -0.085 HD
BRANCH  18  21
ATOM     21  C   UNL     1      -9.001   4.762   2.411  0.00  0.00    -0.065 C 
ATOM     22  C   UNL     1      -8.965   5.549   3.723  0.00  0.00    -0.009 C 
ATOM     23  C   UNL     1     -10.307   6.252   3.933  0.00  0.00    -0.009 C 
ATOM     24  C   UNL     1     -10.568   7.212   2.769  0.00  0.00    +0.007 C 
ATOM     25  C   UNL     1     -10.604   6.425   1.458  0.00  0.00    -0.009 C 
ATOM     26  C   UNL     1      -9.261   5.722   1.248  0.00  0.00    -0.009 C 
ATOM     27  C   UNL     1     -11.722   5.382   1.519  0.00  0.00    +0.038 C 
ATOM     28  C   UNL     1     -11.461   4.423   2.682  0.00  0.00    +0.065 C 
ATOM     29  C   UNL     1     -11.425   5.209   3.994  0.00  0.00    +0.038 C 
ATOM     30  C   UNL     1     -10.119   3.719   2.472  0.00  0.00    +0.022 C 
BRANCH  28  31
ATOM     31  O   UNL     1     -12.505   3.449   2.739  0.00  0.00    -0.389 OA
ATOM     32  H   UNL     1     -12.489   2.670   3.516  0.00  0.00    +0.210 HD
ENDBRANCH  28  31
ENDBRANCH  18  21
ENDBRANCH  17  18
ENDBRANCH   4  17
TORSDOF 7
