REMARK  Name = ZINC00625115
REMARK  8 active torsions:
REMARK  status: ('A' for Active; 'I' for Inactive)
REMARK    1  A    between atoms: C_4  and  C_7
REMARK    2  A    between atoms: C_7  and  S_27
REMARK    3  A    between atoms: C_8  and  C_9
REMARK    4  A    between atoms: C_8  and  N_18
REMARK    5  A    between atoms: N_11  and  C_12
REMARK    6  A    between atoms: C_12  and  C_13
REMARK    7  A    between atoms: C_19  and  C_21
REMARK    8  A    between atoms: S_27  and  C_28
REMARK                            x       y       z     vdW  Elec       q    Type
REMARK                         _______ _______ _______ _____ _____    ______ ____
ROOT
ATOM      1  C   UNL     1      -3.687   1.463   0.082  0.00  0.00    +0.048 C 
ATOM      2  C   UNL     1      -2.564   0.718   0.308  0.00  0.00    +0.111 C 
ENDROOT
BRANCH   1   6
ATOM      3  C   UNL     1      -7.511  -0.378   0.186  0.00  0.00    +0.000 A 
ATOM      4  C   UNL     1      -6.481  -0.970  -0.522  0.00  0.00    +0.001 A 
ATOM      5  C   UNL     1      -5.236  -0.378  -0.560  0.00  0.00    +0.009 A 
ATOM      6  C   UNL     1      -5.016   0.824   0.118  0.00  0.00    -0.009 A 
ATOM      7  C   UNL     1      -6.060   1.414   0.835  0.00  0.00    +0.009 A 
ATOM      8  C   UNL     1      -7.301   0.813   0.860  0.00  0.00    +0.001 A 
ENDBRANCH   1   6
BRANCH   2   9
ATOM      9  C   UNL     1      -1.284   1.298   0.137  0.00  0.00    +0.260 C 
ATOM     10  O   UNL     1      -1.180   2.422  -0.321  0.00  0.00    -0.269 OA
ATOM     11  N   UNL     1      -0.180   0.606   0.480  0.00  0.00    -0.303 N 
ATOM     12  H   UNL     1      -0.267  -0.439   0.814  0.00  0.00    +0.149 HD
BRANCH  11  13
ATOM     13  C   UNL     1       1.137   1.244   0.408  0.00  0.00    +0.179 C 
BRANCH  13  14
ATOM     14  C   UNL     1       2.182   0.303   0.950  0.00  0.00    +0.122 A 
ATOM     15  C   UNL     1       2.873  -0.601   0.234  0.00  0.00    +0.046 A 
ATOM     16  C   UNL     1       3.739  -1.262   1.135  0.00  0.00    +0.041 A 
ATOM     17  C   UNL     1       3.525  -0.722   2.348  0.00  0.00    +0.195 A 
ATOM     18  O   UNL     1       2.585   0.230   2.229  0.00  0.00    -0.466 OA
ENDBRANCH  13  14
ENDBRANCH  11  13
ENDBRANCH   2   9
BRANCH   2  19
ATOM     19  N   UNL     1      -2.680  -0.622   0.709  0.00  0.00    -0.276 N 
ATOM     20  C   UNL     1      -2.090  -1.595  -0.013  0.00  0.00    +0.248 C 
ATOM     21  O   UNL     1      -1.382  -1.306  -0.959  0.00  0.00    -0.270 OA
ATOM     22  H   UNL     1      -3.252  -0.878   1.613  0.00  0.00    +0.155 HD
BRANCH  20  23
ATOM     23  C   UNL     1      -2.304  -3.014   0.344  0.00  0.00    +0.037 A 
ATOM     24  C   UNL     1      -3.200  -3.353   1.359  0.00  0.00    +0.013 A 
ATOM     25  C   UNL     1      -3.400  -4.679   1.683  0.00  0.00    +0.001 A 
ATOM     26  C   UNL     1      -2.705  -5.671   1.013  0.00  0.00    +0.000 A 
ATOM     27  C   UNL     1      -1.811  -5.340   0.010  0.00  0.00    +0.001 A 
ATOM     28  C   UNL     1      -1.607  -4.019  -0.328  0.00  0.00    +0.013 A 
ENDBRANCH  20  23
ENDBRANCH   2  19
BRANCH   1  29
ATOM     29  S   UNL     1      -3.547   3.188  -0.251  0.00  0.00    -0.060 S 
BRANCH  29  30
ATOM     30  C   UNL     1      -4.082   3.219  -1.930  0.00  0.00    +0.140 A 
ATOM     31  N   UNL     1      -4.134   4.237  -2.759  0.00  0.00    -0.232 NA
ATOM     32  C   UNL     1      -4.570   4.114  -4.031  0.00  0.00    +0.079 A 
ATOM     33  C   UNL     1      -4.675   5.120  -5.019  0.00  0.00    +0.029 A 
ATOM     34  C   UNL     1      -5.142   4.824  -6.274  0.00  0.00    +0.002 A 
ATOM     35  C   UNL     1      -5.526   3.537  -6.619  0.00  0.00    +0.001 A 
ATOM     36  C   UNL     1      -5.436   2.528  -5.678  0.00  0.00    +0.017 A 
ATOM     37  C   UNL     1      -4.971   2.815  -4.419  0.00  0.00    +0.040 A 
ATOM     38  S   UNL     1      -4.685   1.873  -2.939  0.00  0.00    -0.061 S 
ENDBRANCH  29  30
ENDBRANCH   1  29
TORSDOF 8
