REMARK  Name = ZINC48974959
REMARK  4 active torsions:
REMARK  status: ('A' for Active; 'I' for Inactive)
REMARK    1  A    between atoms: C_4  and  C_6
REMARK    2  A    between atoms: C_4  and  N_19
REMARK    3  A    between atoms: C_6  and  N_7
REMARK    4  A    between atoms: C_8  and  C_10
REMARK                            x       y       z     vdW  Elec       q    Type
REMARK                         _______ _______ _______ _____ _____    ______ ____
ROOT
ATOM      1  N   UNL     1       1.019  -2.425  -1.568  0.00  0.00    -0.316 N 
ATOM      2  C   UNL     1       1.056  -3.354  -2.543  0.00  0.00    +0.216 C 
ATOM      3  O   UNL     1       1.484  -3.065  -3.640  0.00  0.00    -0.276 OA
ATOM      4  H   UNL     1       0.677  -2.656  -0.690  0.00  0.00    +0.149 HD
ENDROOT
BRANCH   2   5
ATOM      5  C   UNL     1       0.566  -4.753  -2.270  0.00  0.00    +0.078 C 
ATOM      6  C   UNL     1       1.389  -5.370  -1.138  0.00  0.00    +0.032 C 
ATOM      7  C   UNL     1       0.865  -6.778  -0.840  0.00  0.00    +0.110 C 
ATOM      8  N   UNL     1       0.872  -7.558  -2.085  0.00  0.00    -0.286 N 
ATOM      9  C   UNL     1       0.185  -7.013  -3.264  0.00  0.00    +0.110 C 
ATOM     10  C   UNL     1       0.717  -5.602  -3.534  0.00  0.00    +0.032 C 
ATOM     11  C   UNL     1       1.495  -8.752  -2.144  0.00  0.00    +0.300 C 
ATOM     12  O   UNL     1       2.139  -9.149  -1.193  0.00  0.00    -0.253 OA
ATOM     13  N   UNL     1       1.405  -9.504  -3.259  0.00  0.00    -0.313 N 
ATOM     14  H   UNL     1       0.953  -9.156  -4.044  0.00  0.00    +0.146 HD
ATOM     15  H   UNL     1       1.794 -10.393  -3.277  0.00  0.00    +0.146 HD
ENDBRANCH   2   5
BRANCH   1  16
ATOM     16  C   UNL     1       1.496  -1.065  -1.833  0.00  0.00    +0.092 C 
BRANCH  16  20
ATOM     17  C   UNL     1      -0.220   1.493  -0.069  0.00  0.00    -0.001 C 
ATOM     18  C   UNL     1       1.200   2.090   0.093  0.00  0.00    -0.001 C 
ATOM     19  C   UNL     1       2.068   1.148  -0.777  0.00  0.00    -0.010 C 
ATOM     20  C   UNL     1       1.465  -0.252  -0.537  0.00  0.00    -0.050 C 
ATOM     21  C   UNL     1       0.010  -0.032  -0.087  0.00  0.00    -0.010 C 
BRANCH  20  22
ATOM     22  N   UNL     1       2.217  -0.951   0.514  0.00  0.00    +0.386 N 
ATOM     23  C   UNL     1       2.195  -0.145   1.736  0.00  0.00    -0.067 C 
ATOM     24  C   UNL     1       2.637  -0.998   2.931  0.00  0.00    +0.050 C 
ATOM     25  S   UNL     1       4.350  -1.540   2.642  0.00  0.00    -0.164 S 
ATOM     26  C   UNL     1       4.276  -2.211   0.952  0.00  0.00    +0.050 C 
ATOM     27  C   UNL     1       3.589  -1.176   0.053  0.00  0.00    -0.067 C 
ATOM     28  H   UNL     1       1.779  -1.841   0.697  0.00  0.00    -0.081 HD
ENDBRANCH  20  22
ENDBRANCH  16  20
ENDBRANCH   1  16
TORSDOF 4
