REMARK  Name = ZINC43310411
REMARK  5 active torsions:
REMARK  status: ('A' for Active; 'I' for Inactive)
REMARK    1  A    between atoms: C_3  and  N_9
REMARK    2  A    between atoms: N_9  and  N_10
REMARK    3  A    between atoms: N_13  and  C_14
REMARK    4  A    between atoms: C_14  and  C_15
REMARK    5  A    between atoms: C_15  and  N_16
REMARK                            x       y       z     vdW  Elec       q    Type
REMARK                         _______ _______ _______ _____ _____    ______ ____
ROOT
ATOM      1  N   UNL     1       3.565   3.527  -0.014  0.00  0.00    -0.220 N 
ATOM      2  C   UNL     1       4.723   4.217  -0.022  0.00  0.00    +0.316 C 
ATOM      3  O   UNL     1       4.707   5.432  -0.015  0.00  0.00    -0.251 OA
ATOM      4  N   UNL     1       5.899   3.558  -0.036  0.00  0.00    -0.297 N 
ATOM      5  H   UNL     1       2.719   4.001  -0.003  0.00  0.00    +0.174 HD
ATOM      6  H   UNL     1       5.912   2.588  -0.042  0.00  0.00    +0.150 HD
ENDROOT
BRANCH   1   7
ATOM      7  N   UNL     1       3.583   2.127  -0.021  0.00  0.00    -0.262 N 
ATOM      8  H   UNL     1       4.430   1.653  -0.032  0.00  0.00    +0.170 HD
BRANCH   7  11
ATOM      9  C   UNL     1      -0.017   1.380   0.010  0.00  0.00    +0.040 A 
ATOM     10  C   UNL     1       1.169   2.088   0.002  0.00  0.00    +0.028 A 
ATOM     11  C   UNL     1       2.381   1.411  -0.013  0.00  0.00    +0.059 A 
ATOM     12  C   UNL     1       2.398   0.022  -0.021  0.00  0.00    +0.043 A 
ATOM     13  C   UNL     1       1.209  -0.682  -0.013  0.00  0.00    +0.055 A 
ATOM     14  C   UNL     1       0.002  -0.004   0.002  0.00  0.00    +0.125 A 
ATOM     15  F   UNL     1      -1.159  -0.694   0.010  0.00  0.00    -0.205 F 
ATOM     16 BR   UNL     1       4.047  -0.905  -0.042  0.00  0.00    -0.048 Br
ENDBRANCH   7  11
ENDBRANCH   1   7
BRANCH   4  17
ATOM     17  C   UNL     1       7.158   4.307  -0.045  0.00  0.00    +0.127 C 
BRANCH  17  18
ATOM     18  C   UNL     1       8.334   3.328  -0.061  0.00  0.00    +0.141 C 
BRANCH  18  19
ATOM     19  N   UNL     1       9.593   4.077  -0.070  0.00  0.00    -0.337 N 
ATOM     20  C   UNL     1      10.277   4.503  -1.176  0.00  0.00    +0.104 A 
ATOM     21  C   UNL     1      11.373   5.149  -0.732  0.00  0.00    +0.101 A 
ATOM     22  N   UNL     1      11.358   5.117   0.609  0.00  0.00    -0.352 N 
ATOM     23  C   UNL     1      10.292   4.482   1.012  0.00  0.00    +0.173 A 
ATOM     24  H   UNL     1      12.031   5.509   1.187  0.00  0.00    +0.166 HD
ENDBRANCH  18  19
ENDBRANCH  17  18
ENDBRANCH   4  17
TORSDOF 5
