REMARK  Name = ZINC40315548
REMARK  6 active torsions:
REMARK  status: ('A' for Active; 'I' for Inactive)
REMARK    1  A    between atoms: C_4  and  S_8
REMARK    2  A    between atoms: C_6  and  N_7
REMARK    3  A    between atoms: S_8  and  N_11
REMARK    4  A    between atoms: N_11  and  C_12
REMARK    5  A    between atoms: C_12  and  C_13
REMARK    6  A    between atoms: N_17  and  C_19
REMARK                            x       y       z     vdW  Elec       q    Type
REMARK                         _______ _______ _______ _____ _____    ______ ____
ROOT
ATOM      1  S   UNL     1       3.939  -0.827  -0.041  0.00  0.00    +0.061 S 
ATOM      2  O   UNL     1       4.740  -0.248   0.980  0.00  0.00    -0.153 OA
ATOM      3  O   UNL     1       3.632  -2.214  -0.073  0.00  0.00    -0.153 OA
ENDROOT
BRANCH   1   7
ATOM      4  C   UNL     1      -0.017   1.384   0.010  0.00  0.00    +0.025 A 
ATOM      5  C   UNL     1       1.171   2.090   0.002  0.00  0.00    +0.042 A 
ATOM      6  C   UNL     1       2.379   1.414  -0.013  0.00  0.00    +0.150 A 
ATOM      7  C   UNL     1       2.400   0.030  -0.021  0.00  0.00    +0.142 A 
ATOM      8  C   UNL     1       1.215  -0.680  -0.014  0.00  0.00    +0.054 A 
ATOM      9  C   UNL     1       0.002  -0.004   0.002  0.00  0.00    +0.027 A 
ATOM     10  F   UNL     1       3.539   2.107  -0.020  0.00  0.00    -0.203 F 
BRANCH   9  11
ATOM     11  N   UNL     1      -1.198  -0.721   0.010  0.00  0.00    -0.358 N 
ATOM     12  H   UNL     1      -2.046  -0.248   0.021  0.00  0.00    +0.142 HD
ATOM     13  H   UNL     1      -1.185  -1.690   0.005  0.00  0.00    +0.142 HD
ENDBRANCH   9  11
ENDBRANCH   1   7
BRANCH   1  14
ATOM     14  N   UNL     1       4.678  -0.473  -1.480  0.00  0.00    -0.190 NA
ATOM     15  H   UNL     1       4.832  -1.174  -2.132  0.00  0.00    +0.148 HD
BRANCH  14  16
ATOM     16  C   UNL     1       5.101   0.900  -1.768  0.00  0.00    +0.107 C 
BRANCH  16  17
ATOM     17  C   UNL     1       6.067   0.898  -2.955  0.00  0.00    -0.014 C 
ATOM     18  C   UNL     1       7.422   0.252  -2.567  0.00  0.00    -0.016 C 
ATOM     19  C   UNL     1       8.416   0.916  -3.542  0.00  0.00    -0.078 C 
ATOM     20  N   UNL     1       7.809   2.182  -3.990  0.00  0.00    +0.382 N 
ATOM     21  C   UNL     1       6.500   2.340  -3.320  0.00  0.00    -0.074 C 
ATOM     22  H   UNL     1       7.677   2.160  -4.990  0.00  0.00    -0.081 HD
BRANCH  20  23
ATOM     23  C   UNL     1       8.686   3.305  -3.633  0.00  0.00    -0.069 C 
ATOM     24  C   UNL     1       9.026   4.313  -4.733  0.00  0.00    -0.017 C 
ATOM     25  C   UNL     1      10.089   3.327  -4.244  0.00  0.00    -0.017 C 
ENDBRANCH  20  23
ENDBRANCH  16  17
ENDBRANCH  14  16
ENDBRANCH   1  14
TORSDOF 6
