REMARK  Name = ZINC13120224
REMARK  7 active torsions:
REMARK  status: ('A' for Active; 'I' for Inactive)
REMARK    1  A    between atoms: C_8  and  C_10
REMARK    2  A    between atoms: C_15  and  C_16
REMARK    3  A    between atoms: C_15  and  N_51
REMARK    4  A    between atoms: N_18  and  C_19
REMARK    5  A    between atoms: C_24  and  S_25
REMARK    6  A    between atoms: S_25  and  C_26
REMARK    7  A    between atoms: C_26  and  C_27
REMARK                            x       y       z     vdW  Elec       q    Type
REMARK                         _______ _______ _______ _____ _____    ______ ____
ROOT
ATOM      1  C   UNL     1       0.728  -4.593   2.849  0.00  0.00    +0.201 C 
ATOM      2  O   UNL     1       0.982  -5.767   3.021  0.00  0.00    -0.278 OA
ATOM      3  N   UNL     1      -0.121  -3.959   3.682  0.00  0.00    -0.286 N 
ATOM      4  H   UNL     1      -0.275  -3.006   3.585  0.00  0.00    +0.155 HD
ENDROOT
BRANCH   3   5
ATOM      5  C   UNL     1      -0.782  -4.676   4.689  0.00  0.00    +0.047 A 
ATOM      6  C   UNL     1      -0.146  -5.733   5.322  0.00  0.00    +0.024 A 
ATOM      7  C   UNL     1      -0.797  -6.436   6.318  0.00  0.00    +0.002 A 
ATOM      8  C   UNL     1      -2.089  -6.096   6.678  0.00  0.00    +0.001 A 
ATOM      9  C   UNL     1      -2.733  -5.048   6.049  0.00  0.00    +0.016 A 
ATOM     10  C   UNL     1      -2.085  -4.333   5.052  0.00  0.00    +0.030 A 
BRANCH  10  11
ATOM     11  S   UNL     1      -2.904  -2.997   4.248  0.00  0.00    -0.114 S 
BRANCH  11  12
ATOM     12  C   UNL     1      -4.533  -2.938   5.043  0.00  0.00    +0.169 C 
BRANCH  12  13
ATOM     13  C   UNL     1      -5.346  -1.822   4.440  0.00  0.00    +0.221 C 
ATOM     14  O   UNL     1      -4.874  -1.135   3.559  0.00  0.00    -0.275 OA
ATOM     15  N   UNL     1      -6.599  -1.588   4.878  0.00  0.00    -0.329 N 
ATOM     16  H   UNL     1      -6.977  -2.138   5.582  0.00  0.00    +0.145 HD
ATOM     17  H   UNL     1      -7.123  -0.870   4.490  0.00  0.00    +0.145 HD
ENDBRANCH  12  13
ENDBRANCH  11  12
ENDBRANCH  10  11
ENDBRANCH   3   5
BRANCH   1  18
ATOM     18  C   UNL     1       1.361  -3.844   1.705  0.00  0.00    +0.020 C 
BRANCH  18  23
ATOM     19  C   UNL     1       3.055  -4.006  -0.024  0.00  0.00    -0.011 C 
ATOM     20  C   UNL     1       2.772  -4.613  -1.414  0.00  0.00    -0.010 C 
ATOM     21  C   UNL     1       2.247  -6.033  -1.075  0.00  0.00    -0.020 C 
ATOM     22  C   UNL     1       1.450  -5.770   0.227  0.00  0.00    -0.077 C 
ATOM     23  N   UNL     1       2.252  -4.763   0.951  0.00  0.00    +0.391 N 
ATOM     24  H   UNL     1       2.879  -5.239   1.610  0.00  0.00    -0.080 HD
BRANCH  19  32
ATOM     25  C   UNL     1       0.018   1.367   0.027  0.00  0.00    +0.002 A 
ATOM     26  C   UNL     1       1.191   2.110   0.030  0.00  0.00    +0.001 A 
ATOM     27  C   UNL     1       2.409   1.456   0.021  0.00  0.00    +0.017 A 
ATOM     28  C   UNL     1       2.436   0.082   0.010  0.00  0.00    +0.039 A 
ATOM     29  C   UNL     1       1.258  -0.700   0.006  0.00  0.00    +0.078 A 
ATOM     30  C   UNL     1       0.035   0.007   0.015  0.00  0.00    +0.029 A 
ATOM     31  N   UNL     1       1.471  -2.032  -0.005  0.00  0.00    -0.246 NA
ATOM     32  C   UNL     1       2.667  -2.550  -0.012  0.00  0.00    +0.066 A 
ATOM     33  S   UNL     1       3.705  -1.159  -0.003  0.00  0.00    -0.074 S 
ENDBRANCH  19  32
ENDBRANCH  18  23
ENDBRANCH   1  18
TORSDOF 7
