REMARK  Name = ZINC40291722
REMARK  5 active torsions:
REMARK  status: ('A' for Active; 'I' for Inactive)
REMARK    1  A    between atoms: C_1  and  C_2
REMARK    2  A    between atoms: C_3  and  C_18
REMARK    3  A    between atoms: C_6  and  S_11
REMARK    4  A    between atoms: C_7  and  C_8
REMARK    5  A    between atoms: S_11  and  C_12
REMARK                            x       y       z     vdW  Elec       q    Type
REMARK                         _______ _______ _______ _____ _____    ______ ____
ROOT
ATOM      1  C   UNL     1      -0.018   1.503   0.010  0.00  0.00    +0.046 C 
ATOM      2  C   UNL     1       0.002  -0.004   0.002  0.00  0.00    -0.015 A 
ATOM      3  C   UNL     1       0.006  -0.712  -1.189  0.00  0.00    +0.064 A 
ATOM      4  N   UNL     1       0.024  -2.031  -1.176  0.00  0.00    -0.153 NA
ATOM      5  N   UNL     1       0.038  -2.712  -0.089  0.00  0.00    -0.142 NA
ATOM      6  C   UNL     1       0.036  -2.136   1.106  0.00  0.00    +0.137 A 
ATOM      7  C   UNL     1       0.023  -0.732   1.197  0.00  0.00    +0.051 A 
ATOM      8  C   UNL     1      -0.010   0.027  -2.502  0.00  0.00    +0.068 C 
ENDROOT
BRANCH   7   9
ATOM      9  C   UNL     1       0.027  -0.051   2.509  0.00  0.00    +0.097 C 
ATOM     10  N   UNL     1       1.081  -0.162   3.315  0.00  0.00    -0.387 N 
ATOM     11  N   UNL     1      -1.025   0.675   2.885  0.00  0.00    -0.344 N 
ATOM     12  H   UNL     1       1.847  -0.690   3.041  0.00  0.00    +0.157 HD
ATOM     13  H   UNL     1      -1.793   0.756   2.298  0.00  0.00    +0.144 HD
ATOM     14  H   UNL     1      -1.023   1.122   3.746  0.00  0.00    +0.144 HD
ATOM     15  H   UNL     1       1.083   0.285   4.176  0.00  0.00    +0.157 HD
ENDBRANCH   7   9
BRANCH   6  16
ATOM     16  S   UNL     1       0.056  -3.122   2.566  0.00  0.00    -0.028 S 
BRANCH  16  17
ATOM     17  C   UNL     1       0.075  -4.777   1.964  0.00  0.00    +0.190 A 
ATOM     18  N   UNL     1       0.088  -5.898   2.717  0.00  0.00    -0.254 N 
ATOM     19  H   UNL     1       0.089  -5.947   3.686  0.00  0.00    +0.191 HD
ATOM     20  N   UNL     1       0.100  -6.977   1.819  0.00  0.00    -0.160 NA
ATOM     21  C   UNL     1       0.094  -6.472   0.615  0.00  0.00    +0.245 A 
ATOM     22  N   UNL     1       0.073  -5.142   0.699  0.00  0.00    -0.209 NA
ENDBRANCH  16  17
ENDBRANCH   6  16
TORSDOF 3
