REMARK  Name = ZINC08743949
REMARK  10 active torsions:
REMARK  status: ('A' for Active; 'I' for Inactive)
REMARK    1  A    between atoms: C_1  and  C_2
REMARK    2  A    between atoms: C_3  and  C_27
REMARK    3  A    between atoms: C_4  and  C_21
REMARK    4  A    between atoms: C_6  and  C_19
REMARK    5  A    between atoms: C_7  and  S_9
REMARK    6  A    between atoms: S_9  and  C_10
REMARK    7  A    between atoms: C_10  and  C_11
REMARK    8  A    between atoms: N_29  and  C_30
REMARK    9  A    between atoms: C_35  and  O_36
REMARK   10  A    between atoms: O_36  and  C_37
REMARK                            x       y       z     vdW  Elec       q    Type
REMARK                         _______ _______ _______ _____ _____    ______ ____
ROOT
ATOM      1  C   UNL     1       5.834   1.516  -0.155  0.00  0.00    +0.061 C 
ATOM      2  C   UNL     1       5.963   3.016  -0.115  0.00  0.00    +0.014 C 
ATOM      3  C   UNL     1       4.856   3.774  -0.053  0.00  0.00    +0.044 C 
ATOM      4  C   UNL     1       4.926   5.272   0.005  0.00  0.00    +0.098 C 
ATOM      5  C   UNL     1       6.285   5.761  -0.412  0.00  0.00    +0.069 C 
ATOM      6  C   UNL     1       7.351   4.918  -0.467  0.00  0.00    +0.080 C 
ATOM      7  N   UNL     1       7.207   3.587  -0.146  0.00  0.00    -0.312 N 
ATOM      8  H   UNL     1       8.095   2.981   0.085  0.00  0.00    +0.152 HD
ENDROOT
BRANCH   4   9
ATOM      9  C   UNL     1       4.648   5.728   1.414  0.00  0.00    -0.035 A 
ATOM     10  C   UNL     1       5.460   5.306   2.450  0.00  0.00    +0.004 A 
ATOM     11  C   UNL     1       5.207   5.727   3.742  0.00  0.00    +0.000 A 
ATOM     12  C   UNL     1       4.137   6.562   4.000  0.00  0.00    +0.000 A 
ATOM     13  C   UNL     1       3.321   6.979   2.965  0.00  0.00    +0.000 A 
ATOM     14  C   UNL     1       3.576   6.562   1.672  0.00  0.00    +0.004 A 
ENDBRANCH   4   9
BRANCH   3  15
ATOM     15  C   UNL     1       3.589   3.142  -0.037  0.00  0.00    +0.247 C 
ATOM     16  O   UNL     1       2.961   3.010  -1.072  0.00  0.00    -0.270 OA
ATOM     17  N   UNL     1       3.078   2.687   1.124  0.00  0.00    -0.279 N 
ATOM     18  H   UNL     1       3.614   2.864   2.068  0.00  0.00    +0.155 HD
BRANCH  17  19
ATOM     19  C   UNL     1       1.865   1.987   1.128  0.00  0.00    +0.076 A 
ATOM     20  C   UNL     1       0.864   2.324   0.228  0.00  0.00    +0.027 A 
ATOM     21  C   UNL     1      -0.332   1.633   0.235  0.00  0.00    +0.002 A 
ATOM     22  C   UNL     1      -0.538   0.609   1.141  0.00  0.00    +0.004 A 
ATOM     23  C   UNL     1       0.456   0.264   2.037  0.00  0.00    +0.047 A 
ATOM     24  C   UNL     1       1.659   0.952   2.037  0.00  0.00    +0.141 A 
BRANCH  24  25
ATOM     25  O   UNL     1       2.636   0.617   2.921  0.00  0.00    -0.493 OA
ATOM     26  C   UNL     1       2.354  -0.456   3.824  0.00  0.00    +0.277 C 
ENDBRANCH  24  25
ENDBRANCH  17  19
ENDBRANCH   3  15
BRANCH   5  27
ATOM     27  C   UNL     1       6.460   7.139  -0.760  0.00  0.00    +0.098 C 
ATOM     28  N   UNL     1       6.599   8.232  -1.036  0.00  0.00    -0.191 NA
ENDBRANCH   5  27
BRANCH   6  29
ATOM     29  S   UNL     1       8.929   5.535  -0.951  0.00  0.00    -0.100 S 
BRANCH  29  30
ATOM     30  C   UNL     1       9.908   4.016  -0.840  0.00  0.00    +0.171 C 
BRANCH  30  31
ATOM     31  C   UNL     1      11.336   4.310  -1.220  0.00  0.00    +0.229 C 
ATOM     32  O   UNL     1      11.660   5.435  -1.536  0.00  0.00    -0.275 OA
ATOM     33  N   UNL     1      12.253   3.322  -1.210  0.00  0.00    -0.264 N 
ATOM     34  C   UNL     1      13.570   3.593  -1.561  0.00  0.00    +0.164 A 
ATOM     35  N   UNL     1      14.600   2.771  -1.612  0.00  0.00    -0.233 NA
ATOM     36  C   UNL     1      15.796   3.196  -1.970  0.00  0.00    +0.120 A 
ATOM     37  C   UNL     1      15.949   4.505  -2.287  0.00  0.00    +0.068 A 
ATOM     38  S   UNL     1      14.280   5.100  -2.053  0.00  0.00    -0.061 S 
ATOM     39  H   UNL     1      11.959   2.302  -0.924  0.00  0.00    +0.157 HD
ENDBRANCH  30  31
ENDBRANCH  29  30
ENDBRANCH   6  29
TORSDOF 8
