REMARK  Name = ZINC39290069
REMARK  6 active torsions:
REMARK  status: ('A' for Active; 'I' for Inactive)
REMARK    1  A    between atoms: C_4  and  N_7
REMARK    2  A    between atoms: N_7  and  C_8
REMARK    3  A    between atoms: C_10  and  C_25
REMARK    4  A    between atoms: C_11  and  N_24
REMARK    5  A    between atoms: C_12  and  C_15
REMARK    6  A    between atoms: C_15  and  C_17
REMARK                            x       y       z     vdW  Elec       q    Type
REMARK                         _______ _______ _______ _____ _____    ______ ____
ROOT
ATOM      1  C   UNL     1       3.824  -1.312  -0.128  0.00  0.00    +0.146 C 
ATOM      2  C   UNL     1       4.782  -2.376  -0.723  0.00  0.00    +0.107 C 
ATOM      3  C   UNL     1       6.080  -2.403   0.018  0.00  0.00    +0.028 C 
ATOM      4  C   UNL     1       6.138  -1.858   1.257  0.00  0.00    +0.074 C 
ATOM      5  S   UNL     1       4.502  -1.223   1.582  0.00  0.00    -0.097 S 
ENDROOT
BRANCH   2   6
ATOM      6  C   UNL     1       5.048  -2.047  -2.193  0.00  0.00    +0.185 C 
ATOM      7  N   UNL     1       3.781  -1.974  -2.931  0.00  0.00    -0.363 N 
ATOM      8  C   UNL     1       3.817  -2.884  -3.861  0.00  0.00    +0.060 A 
ATOM      9  C   UNL     1       2.861  -3.290  -4.900  0.00  0.00    +0.027 A 
ATOM     10  C   UNL     1       3.180  -4.292  -5.743  0.00  0.00    +0.002 A 
ATOM     11  C   UNL     1       4.405  -4.979  -5.675  0.00  0.00    +0.002 A 
ATOM     12  C   UNL     1       5.352  -4.687  -4.760  0.00  0.00    +0.027 A 
ATOM     13  C   UNL     1       5.114  -3.611  -3.788  0.00  0.00    +0.060 A 
ATOM     14  N   UNL     1       5.829  -3.122  -2.817  0.00  0.00    -0.363 N 
ATOM     15  H   UNL     1       3.050  -1.360  -2.757  0.00  0.00    +0.162 HD
ATOM     16  H   UNL     1       6.716  -3.415  -2.553  0.00  0.00    +0.162 HD
ENDBRANCH   2   6
BRANCH   3  18
ATOM     17  H   UNL     1       8.066  -2.569  -0.404  0.00  0.00    +0.142 HD
ATOM     18  N   UNL     1       7.193  -2.968  -0.548  0.00  0.00    -0.360 N 
ATOM     19  H   UNL     1       7.109  -3.767  -1.091  0.00  0.00    +0.142 HD
ENDBRANCH   3  18
BRANCH   1  20
ATOM     20  N   UNL     1       3.952  -0.029  -0.822  0.00  0.00    -0.331 N 
ATOM     21  H   UNL     1       4.831   0.318  -1.042  0.00  0.00    +0.147 HD
BRANCH  20  25
ATOM     22  C   UNL     1       0.544   2.130  -1.853  0.00  0.00    +0.000 A 
ATOM     23  C   UNL     1       0.420   0.889  -1.255  0.00  0.00    +0.002 A 
ATOM     24  C   UNL     1       1.549   0.170  -0.912  0.00  0.00    +0.023 A 
ATOM     25  C   UNL     1       2.809   0.695  -1.168  0.00  0.00    +0.028 A 
ATOM     26  C   UNL     1       2.930   1.942  -1.769  0.00  0.00    +0.023 A 
ATOM     27  C   UNL     1       1.797   2.655  -2.109  0.00  0.00    +0.002 A 
ENDBRANCH  20  25
ENDBRANCH   1  20
BRANCH   4  28
ATOM     28  C   UNL     1       7.263  -1.805   2.115  0.00  0.00    +0.201 C 
ATOM     29  O   UNL     1       8.350  -2.190   1.721  0.00  0.00    -0.286 OA
BRANCH  28  30
ATOM     30  C   UNL     1       7.119  -1.282   3.491  0.00  0.00    +0.023 A 
ATOM     31  C   UNL     1       5.879  -1.326   4.131  0.00  0.00    +0.013 A 
ATOM     32  C   UNL     1       5.751  -0.836   5.414  0.00  0.00    +0.021 A 
ATOM     33  C   UNL     1       6.849  -0.302   6.067  0.00  0.00    +0.041 A 
ATOM     34  C   UNL     1       8.082  -0.255   5.437  0.00  0.00    +0.021 A 
ATOM     35  C   UNL     1       8.223  -0.747   4.157  0.00  0.00    +0.013 A 
ATOM     36 CL   UNL     1       6.680   0.313   7.682  0.00  0.00    -0.084 Cl
ENDBRANCH  28  30
ENDBRANCH   4  28
TORSDOF 6
