REMARK  Name = ZINC12706144
REMARK  12 active torsions:
REMARK  status: ('A' for Active; 'I' for Inactive)
REMARK    1  A    between atoms: C_1  and  C_2
REMARK    2  A    between atoms: C_5  and  C_8
REMARK    3  A    between atoms: C_8  and  C_10
REMARK    4  A    between atoms: C_8  and  N_20
REMARK    5  A    between atoms: N_12  and  C_13
REMARK    6  A    between atoms: C_13  and  C_14
REMARK    7  A    between atoms: N_20  and  C_21
REMARK    8  A    between atoms: C_25  and  C_28
REMARK    9  A    between atoms: C_26  and  C_27
REMARK   10  A    between atoms: C_29  and  C_31
REMARK   11  A    between atoms: C_32  and  N_39
REMARK   12  A    between atoms: C_33  and  C_36
REMARK                            x       y       z     vdW  Elec       q    Type
REMARK                         _______ _______ _______ _____ _____    ______ ____
ROOT
ATOM      1  N   UNL     1       4.446  -3.401  -5.439  0.00  0.00    -0.251 N 
ATOM      2  C   UNL     1       4.173  -2.624  -6.506  0.00  0.00    +0.262 C 
ATOM      3  O   UNL     1       3.707  -1.511  -6.345  0.00  0.00    -0.269 OA
ENDROOT
BRANCH   1   4
ATOM      4  C   UNL     1       4.983  -4.679  -5.624  0.00  0.00    +0.041 A 
ATOM      5  C   UNL     1       4.141  -5.762  -5.849  0.00  0.00    +0.024 A 
ATOM      6  C   UNL     1       4.674  -7.021  -6.037  0.00  0.00    +0.002 A 
ATOM      7  C   UNL     1       6.043  -7.209  -5.990  0.00  0.00    +0.004 A 
ATOM      8  C   UNL     1       6.884  -6.135  -5.762  0.00  0.00    -0.046 A 
ATOM      9  C   UNL     1       6.357  -4.871  -5.579  0.00  0.00    -0.026 A 
ATOM     10  C   UNL     1       7.274  -3.701  -5.330  0.00  0.00    +0.046 C 
ATOM     11  C   UNL     1       8.375  -6.343  -5.713  0.00  0.00    +0.044 C 
ENDBRANCH   1   4
BRANCH   2  12
ATOM     12  C   UNL     1       4.439  -3.118  -7.858  0.00  0.00    +0.116 A 
ATOM     13  C   UNL     1       4.233  -2.487  -9.087  0.00  0.00    +0.076 A 
ATOM     14  C   UNL     1       4.612  -3.284 -10.167  0.00  0.00    +0.155 A 
ATOM     15  N   UNL     1       5.097  -4.485  -9.941  0.00  0.00    -0.203 NA
ATOM     16  S   UNL     1       5.116  -4.681  -8.377  0.00  0.00    +0.019 S 
BRANCH  14  17
ATOM     17  C   UNL     1       4.469  -2.786 -11.547  0.00  0.00    +0.262 C 
ATOM     18  O   UNL     1       4.019  -1.675 -11.749  0.00  0.00    -0.269 OA
ATOM     19  N   UNL     1       4.836  -3.563 -12.585  0.00  0.00    -0.324 N 
ATOM     20  H   UNL     1       5.195  -4.450 -12.424  0.00  0.00    +0.145 HD
ATOM     21  H   UNL     1       4.742  -3.236 -13.493  0.00  0.00    +0.145 HD
ENDBRANCH  14  17
BRANCH  13  22
ATOM     22  N   UNL     1       3.712  -1.207  -9.219  0.00  0.00    -0.355 N 
ATOM     23  H   UNL     1       3.467  -0.699  -8.430  0.00  0.00    +0.142 HD
ATOM     24  H   UNL     1       3.592  -0.820 -10.101  0.00  0.00    +0.142 HD
ENDBRANCH  13  22
ENDBRANCH   2  12
BRANCH   1  25
ATOM     25  C   UNL     1       4.181  -2.907  -4.086  0.00  0.00    +0.197 C 
BRANCH  25  30
ATOM     26  C   UNL     1       6.205  -6.697  -0.221  0.00  0.00    +0.044 C 
ATOM     27  C   UNL     1       5.677  -5.708  -1.229  0.00  0.00    -0.050 A 
ATOM     28  C   UNL     1       6.184  -4.423  -1.267  0.00  0.00    +0.004 A 
ATOM     29  C   UNL     1       5.700  -3.517  -2.192  0.00  0.00    +0.006 A 
ATOM     30  C   UNL     1       4.709  -3.895  -3.078  0.00  0.00    -0.018 A 
ATOM     31  C   UNL     1       4.198  -5.179  -3.035  0.00  0.00    +0.006 A 
ATOM     32  C   UNL     1       4.686  -6.087  -2.114  0.00  0.00    +0.004 A 
ENDBRANCH  25  30
BRANCH  25  33
ATOM     33  C   UNL     1       2.696  -2.739  -3.894  0.00  0.00    +0.239 C 
ATOM     34  O   UNL     1       1.934  -3.006  -4.799  0.00  0.00    -0.273 OA
ATOM     35  N   UNL     1       2.214  -2.293  -2.717  0.00  0.00    -0.311 N 
ATOM     36  H   UNL     1       2.824  -2.079  -1.994  0.00  0.00    +0.149 HD
BRANCH  35  37
ATOM     37  C   UNL     1       0.770  -2.129  -2.531  0.00  0.00    +0.135 C 
BRANCH  37  38
ATOM     38  C   UNL     1       0.494  -1.613  -1.118  0.00  0.00    +0.135 C 
ATOM     39  C   UNL     1      -1.026  -1.557  -0.869  0.00  0.00    +0.035 C 
ATOM     40  C   UNL     1      -1.299  -0.073  -0.524  0.00  0.00    +0.031 C 
ATOM     41  C   UNL     1       0.102   0.422  -0.084  0.00  0.00    +0.160 C 
ATOM     42  O   UNL     1       1.000  -0.276  -0.975  0.00  0.00    -0.375 OA
ENDBRANCH  37  38
ENDBRANCH  35  37
ENDBRANCH  25  33
ENDBRANCH   1  25
TORSDOF 9
