REMARK  Name = ZINC12338886
REMARK  6 active torsions:
REMARK  status: ('A' for Active; 'I' for Inactive)
REMARK    1  A    between atoms: C_1  and  C_2
REMARK    2  A    between atoms: C_5  and  N_9
REMARK    3  A    between atoms: C_11  and  C_23
REMARK    4  A    between atoms: C_14  and  C_21
REMARK    5  A    between atoms: C_17  and  C_20
REMARK    6  A    between atoms: C_21  and  O_22
REMARK                            x       y       z     vdW  Elec       q    Type
REMARK                         _______ _______ _______ _____ _____    ______ ____
ROOT
ATOM      1  N   UNL     1      -0.071  -4.181  -0.058  0.00  0.00    -0.323 N 
ATOM      2  C   UNL     1       0.702  -4.796  -0.925  0.00  0.00    +0.212 A 
ATOM      3  C   UNL     1       0.886  -6.260  -0.873  0.00  0.00    +0.097 A 
ATOM      4  C   UNL     1       1.206  -6.898  -2.051  0.00  0.00    +0.030 A 
ATOM      5  C   UNL     1       1.339  -6.067  -3.250  0.00  0.00    +0.027 A 
ATOM      6  C   UNL     1       1.403  -6.628  -4.531  0.00  0.00    +0.007 A 
ATOM      7  C   UNL     1       1.525  -5.782  -5.614  0.00  0.00    +0.117 A 
ATOM      8  N   UNL     1       1.582  -4.472  -5.455  0.00  0.00    -0.256 NA
ATOM      9  C   UNL     1       1.527  -3.897  -4.271  0.00  0.00    +0.081 A 
ATOM     10  C   UNL     1       1.405  -4.667  -3.123  0.00  0.00    +0.159 A 
ATOM     11  O   UNL     1       1.349  -4.102  -1.897  0.00  0.00    -0.437 OA
ATOM     12  C   UNL     1       1.596  -2.396  -4.163  0.00  0.00    +0.069 C 
ATOM     13  H   UNL     1      -0.455  -4.674   0.684  0.00  0.00    +0.169 HD
ENDROOT
BRANCH   1  18
ATOM     14  C   UNL     1      -1.156   1.328  -0.651  0.00  0.00    +0.044 C 
ATOM     15  C   UNL     1      -0.866  -0.142  -0.491  0.00  0.00    -0.048 A 
ATOM     16  C   UNL     1      -0.828  -0.961  -1.606  0.00  0.00    +0.005 A 
ATOM     17  C   UNL     1      -0.563  -2.308  -1.469  0.00  0.00    +0.029 A 
ATOM     18  C   UNL     1      -0.333  -2.846  -0.201  0.00  0.00    +0.077 A 
ATOM     19  C   UNL     1      -0.373  -2.013   0.922  0.00  0.00    +0.147 A 
ATOM     20  C   UNL     1      -0.633  -0.665   0.768  0.00  0.00    +0.043 A 
ATOM     21  F   UNL     1      -0.152  -2.524   2.153  0.00  0.00    -0.203 F 
ENDBRANCH   1  18
BRANCH   3  22
ATOM     22  C   UNL     1       0.733  -7.008   0.388  0.00  0.00    +0.247 C 
ATOM     23  O   UNL     1       0.417  -6.425   1.407  0.00  0.00    -0.270 OA
ATOM     24  N   UNL     1       0.944  -8.339   0.412  0.00  0.00    -0.325 N 
ATOM     25  H   UNL     1       1.282  -8.791  -0.377  0.00  0.00    +0.145 HD
ATOM     26  H   UNL     1       0.758  -8.845   1.218  0.00  0.00    +0.145 HD
ENDBRANCH   3  22
BRANCH   6  27
ATOM     27  C   UNL     1       1.339  -8.121  -4.723  0.00  0.00    +0.193 C 
BRANCH  27  28
ATOM     28  O   UNL     1       1.424  -8.426  -6.117  0.00  0.00    -0.390 OA
ATOM     29  H   UNL     1       1.390  -9.372  -6.315  0.00  0.00    +0.210 HD
ENDBRANCH  27  28
ENDBRANCH   6  27
TORSDOF 4
