REMARK  Name = ZINC04477949
REMARK  7 active torsions:
REMARK  status: ('A' for Active; 'I' for Inactive)
REMARK    1  A    between atoms: C_1  and  C_2
REMARK    2  A    between atoms: C_2  and  C_3
REMARK    3  A    between atoms: C_3  and  C_4
REMARK    4  A    between atoms: C_6  and  C_26
REMARK    5  A    between atoms: C_8  and  C_20
REMARK    6  A    between atoms: C_11  and  C_12
REMARK    7  A    between atoms: C_11  and  O_19
REMARK                            x       y       z     vdW  Elec       q    Type
REMARK                         _______ _______ _______ _____ _____    ______ ____
ROOT
ATOM      1  C   UNL     1      -0.760   3.554   1.151  0.00  0.00    +0.015 C 
ATOM      2  C   UNL     1      -1.680   3.950  -0.006  0.00  0.00    -0.034 C 
ATOM      3  C   UNL     1      -2.293   6.011   1.111  0.00  0.00    -0.037 C 
ATOM      4  C   UNL     1      -1.392   5.676   2.301  0.00  0.00    +0.028 C 
ATOM      5  C   UNL     1      -1.297   4.155   2.452  0.00  0.00    +0.091 C 
ATOM      6  N   UNL     1      -1.733   5.420  -0.119  0.00  0.00    +0.388 N 
ATOM      7  H   UNL     1      -2.325   5.676  -0.918  0.00  0.00    -0.084 HD
ATOM      8  H   UNL     1      -0.784   5.782  -0.267  0.00  0.00    -0.084 HD
ENDROOT
BRANCH   5   9
ATOM      9  C   UNL     1      -0.362   3.819   3.586  0.00  0.00    -0.016 A 
ATOM     10  C   UNL     1       0.988   3.648   3.340  0.00  0.00    +0.009 A 
ATOM     11  C   UNL     1       1.846   3.344   4.380  0.00  0.00    +0.039 A 
ATOM     12  C   UNL     1       1.353   3.202   5.665  0.00  0.00    +0.123 A 
ATOM     13  C   UNL     1       0.000   3.369   5.909  0.00  0.00    +0.039 A 
ATOM     14  C   UNL     1      -0.856   3.677   4.869  0.00  0.00    +0.009 A 
ATOM     15  F   UNL     1       2.191   2.900   6.681  0.00  0.00    -0.205 F 
ENDBRANCH   5   9
BRANCH   3  16
ATOM     16  C   UNL     1      -2.374   7.506   0.946  0.00  0.00    -0.061 A 
ATOM     17  C   UNL     1      -1.347   8.189   0.322  0.00  0.00    +0.002 A 
ATOM     18  C   UNL     1      -1.423   9.561   0.167  0.00  0.00    +0.000 A 
ATOM     19  C   UNL     1      -2.522  10.251   0.645  0.00  0.00    +0.000 A 
ATOM     20  C   UNL     1      -3.546   9.568   1.274  0.00  0.00    +0.000 A 
ATOM     21  C   UNL     1      -3.472   8.196   1.425  0.00  0.00    +0.002 A 
ENDBRANCH   3  16
BRANCH   2  22
ATOM     22  C   UNL     1      -1.144   3.376  -1.293  0.00  0.00    -0.061 A 
ATOM     23  C   UNL     1      -0.036   3.943  -1.894  0.00  0.00    +0.002 A 
ATOM     24  C   UNL     1       0.458   3.414  -3.072  0.00  0.00    +0.000 A 
ATOM     25  C   UNL     1      -0.162   2.324  -3.653  0.00  0.00    +0.000 A 
ATOM     26  C   UNL     1      -1.273   1.760  -3.055  0.00  0.00    +0.000 A 
ATOM     27  C   UNL     1      -1.764   2.286  -1.875  0.00  0.00    +0.002 A 
ENDBRANCH   2  22
BRANCH   5  28
ATOM     28  O   UNL     1      -2.593   3.621   2.726  0.00  0.00    -0.384 OA
ATOM     29  H   UNL     1      -2.995   3.959   3.538  0.00  0.00    +0.211 HD
ENDBRANCH   5  28
BRANCH   1  30
ATOM     30  C   UNL     1      -0.718   2.029   1.272  0.00  0.00    +0.005 C 
BRANCH  30  32
ATOM     31  C   UNL     1      -2.112  -0.043   1.349  0.00  0.00    +0.004 C 
ATOM     32  C   UNL     1      -2.145   1.487   1.377  0.00  0.00    -0.003 C 
ENDBRANCH  30  32
ENDBRANCH   1  30
TORSDOF 6
