REMARK  Name = ZINC45703944
REMARK  9 active torsions:
REMARK  status: ('A' for Active; 'I' for Inactive)
REMARK    1  A    between atoms: C_1  and  C_2
REMARK    2  A    between atoms: C_2  and  C_4
REMARK    3  A    between atoms: C_2  and  N_12
REMARK    4  A    between atoms: N_12  and  C_13
REMARK    5  A    between atoms: N_12  and  C_14
REMARK    6  A    between atoms: C_14  and  C_15
REMARK    7  A    between atoms: N_17  and  C_18
REMARK    8  A    between atoms: C_22  and  S_24
REMARK    9  A    between atoms: S_24  and  N_27
REMARK                            x       y       z     vdW  Elec       q    Type
REMARK                         _______ _______ _______ _____ _____    ______ ____
ROOT
ATOM      1  C   UNL     1      -2.763  -2.504   0.141  0.00  0.00    +0.201 C 
ATOM      2  O   UNL     1      -3.690  -1.728   0.242  0.00  0.00    -0.278 OA
ATOM      3  N   UNL     1      -2.990  -3.832   0.155  0.00  0.00    -0.287 N 
ATOM      4  H   UNL     1      -2.259  -4.451   0.007  0.00  0.00    +0.155 HD
ENDROOT
BRANCH   3   5
ATOM      5  C   UNL     1      -4.282  -4.318   0.385  0.00  0.00    +0.035 A 
ATOM      6  C   UNL     1      -4.467  -5.493   1.102  0.00  0.00    +0.023 A 
ATOM      7  C   UNL     1      -5.743  -5.970   1.327  0.00  0.00    +0.004 A 
ATOM      8  C   UNL     1      -6.837  -5.280   0.838  0.00  0.00    +0.028 A 
ATOM      9  C   UNL     1      -6.657  -4.110   0.123  0.00  0.00    +0.107 A 
ATOM     10  C   UNL     1      -5.383  -3.624  -0.099  0.00  0.00    +0.051 A 
BRANCH   9  11
ATOM     11  S   UNL     1      -8.054  -3.234  -0.498  0.00  0.00    +0.056 S 
ATOM     12  O   UNL     1      -7.593  -2.463  -1.599  0.00  0.00    -0.153 OA
ATOM     13  O   UNL     1      -9.106  -4.182  -0.619  0.00  0.00    -0.153 OA
BRANCH  11  14
ATOM     14  N   UNL     1      -8.518  -2.158   0.672  0.00  0.00    -0.204 NA
ATOM     15  H   UNL     1      -8.029  -2.111   1.509  0.00  0.00    +0.144 HD
ATOM     16  H   UNL     1      -9.278  -1.575   0.521  0.00  0.00    +0.144 HD
ENDBRANCH  11  14
ENDBRANCH   9  11
ENDBRANCH   3   5
BRANCH   1  17
ATOM     17  C   UNL     1      -1.357  -1.982  -0.002  0.00  0.00    +0.019 C 
BRANCH  17  18
ATOM     18  N   UNL     1      -1.376  -0.513   0.009  0.00  0.00    +0.388 N 
ATOM     19  C   UNL     1      -2.095  -0.023  -1.174  0.00  0.00    -0.095 C 
ATOM     20  H   UNL     1      -1.842  -0.189   0.844  0.00  0.00    -0.081 HD
BRANCH  18  22
ATOM     21  C   UNL     1      -0.018   1.525   0.003  0.00  0.00    -0.008 C 
ATOM     22  C   UNL     1       0.002  -0.005  -0.009  0.00  0.00    -0.040 C 
BRANCH  22  23
ATOM     23  C   UNL     1       0.739  -0.507   1.205  0.00  0.00    -0.058 A 
ATOM     24  C   UNL     1       0.097  -0.565   2.428  0.00  0.00    +0.005 A 
ATOM     25  C   UNL     1       0.771  -1.026   3.543  0.00  0.00    +0.041 A 
ATOM     26  C   UNL     1       2.091  -1.430   3.437  0.00  0.00    +0.158 A 
ATOM     27  C   UNL     1       2.735  -1.372   2.210  0.00  0.00    +0.159 A 
ATOM     28  C   UNL     1       2.055  -0.915   1.094  0.00  0.00    +0.043 A 
ATOM     29  F   UNL     1       4.023  -1.766   2.104  0.00  0.00    -0.202 F 
ATOM     30  F   UNL     1       2.750  -1.880   4.526  0.00  0.00    -0.202 F 
ENDBRANCH  22  23
ENDBRANCH  18  22
ENDBRANCH  17  18
ENDBRANCH   1  17
TORSDOF 7
