REMARK  Name = ZINC39685042
REMARK  6 active torsions:
REMARK  status: ('A' for Active; 'I' for Inactive)
REMARK    1  A    between atoms: C_6  and  C_11
REMARK    2  A    between atoms: C_15  and  C_24
REMARK    3  A    between atoms: N_26  and  C_27
REMARK    4  A    between atoms: C_27  and  C_28
REMARK    5  A    between atoms: C_28  and  O_29
REMARK    6  A    between atoms: O_29  and  C_30
REMARK                            x       y       z     vdW  Elec       q    Type
REMARK                         _______ _______ _______ _____ _____    ______ ____
ROOT
ATOM      1  C   UNL     1       4.991  -2.714  -0.064  0.00  0.00    +0.247 C 
ATOM      2  O   UNL     1       3.932  -2.122   0.018  0.00  0.00    -0.270 OA
ATOM      3  N   UNL     1       5.005  -4.057  -0.171  0.00  0.00    -0.296 N 
ATOM      4  C   UNL     1       3.845  -4.972  -0.288  0.00  0.00    +0.121 C 
ATOM      5  C   UNL     1       4.293  -6.042  -1.308  0.00  0.00    +0.100 C 
ATOM      6  C   UNL     1       5.830  -6.027  -1.243  0.00  0.00    -0.004 C 
ATOM      7  C   UNL     1       6.186  -4.953  -0.204  0.00  0.00    +0.115 C 
ATOM      8  C   UNL     1       6.354  -7.389  -0.797  0.00  0.00    -0.010 C 
ATOM      9  C   UNL     1       7.885  -7.367  -0.796  0.00  0.00    -0.082 C 
ATOM     10  N   UNL     1       8.372  -7.050  -2.144  0.00  0.00    +0.379 N 
ATOM     11  C   UNL     1       7.941  -5.701  -2.528  0.00  0.00    -0.082 C 
ATOM     12  C   UNL     1       6.412  -5.652  -2.602  0.00  0.00    -0.010 C 
ATOM     13  H   UNL     1       9.380  -7.096  -2.155  0.00  0.00    -0.086 HD
ATOM     14  H   UNL     1       8.001  -7.720  -2.801  0.00  0.00    -0.086 HD
ENDROOT
BRANCH   1  20
ATOM     15  C   UNL     1       9.946   1.375  -0.545  0.00  0.00    +0.001 A 
ATOM     16  C   UNL     1       8.828   1.942  -1.153  0.00  0.00    +0.001 A 
ATOM     17  C   UNL     1       7.640   1.280  -1.191  0.00  0.00    +0.008 A 
ATOM     18  C   UNL     1       7.535   0.004  -0.608  0.00  0.00    -0.017 A 
ATOM     19  C   UNL     1       6.326  -0.706  -0.629  0.00  0.00    +0.021 A 
ATOM     20  C   UNL     1       6.262  -1.960  -0.045  0.00  0.00    +0.037 A 
ATOM     21  C   UNL     1       7.397  -2.522   0.566  0.00  0.00    +0.013 A 
ATOM     22  C   UNL     1       8.576  -1.849   0.596  0.00  0.00    +0.009 A 
ATOM     23  C   UNL     1       8.673  -0.573   0.011  0.00  0.00    -0.018 A 
ATOM     24  C   UNL     1       9.882   0.142   0.030  0.00  0.00    +0.008 A 
ENDBRANCH   1  20
BRANCH   5  25
ATOM     25  C   UNL     1       3.821  -5.679  -2.692  0.00  0.00    +0.218 C 
ATOM     26  O   UNL     1       3.772  -4.515  -3.030  0.00  0.00    -0.275 OA
ATOM     27  N   UNL     1       3.453  -6.647  -3.554  0.00  0.00    -0.312 N 
ATOM     28  H   UNL     1       3.493  -7.578  -3.284  0.00  0.00    +0.149 HD
BRANCH  27  29
ATOM     29  C   UNL     1       2.994  -6.294  -4.900  0.00  0.00    +0.145 C 
BRANCH  29  30
ATOM     30  C   UNL     1       2.641  -7.569  -5.669  0.00  0.00    +0.248 C 
BRANCH  30  31
ATOM     31  O   UNL     1       1.526  -8.208  -5.045  0.00  0.00    -0.488 OA
BRANCH  31  32
ATOM     32  C   UNL     1       1.082  -9.363  -5.608  0.00  0.00    +0.156 A 
ATOM     33  C   UNL     1       1.710  -9.873  -6.735  0.00  0.00    +0.048 A 
ATOM     34  C   UNL     1       1.256 -11.046  -7.306  0.00  0.00    +0.004 A 
ATOM     35  C   UNL     1       0.178 -11.714  -6.756  0.00  0.00    +0.003 A 
ATOM     36  C   UNL     1      -0.452 -11.209  -5.633  0.00  0.00    +0.042 A 
ATOM     37  C   UNL     1       0.002 -10.038  -5.053  0.00  0.00    +0.165 A 
ATOM     38  F   UNL     1      -0.609  -9.547  -3.953  0.00  0.00    -0.202 F 
ENDBRANCH  31  32
ENDBRANCH  30  31
ENDBRANCH  29  30
ENDBRANCH  27  29
ENDBRANCH   5  25
TORSDOF 6
