REMARK  Name = ZINC48390212
REMARK  10 active torsions:
REMARK  status: ('A' for Active; 'I' for Inactive)
REMARK    1  A    between atoms: C_1  and  C_2
REMARK    2  A    between atoms: C_2  and  C_3
REMARK    3  A    between atoms: N_5  and  C_6
REMARK    4  A    between atoms: C_9  and  N_12
REMARK    5  A    between atoms: N_15  and  C_16
REMARK    6  A    between atoms: C_16  and  C_17
REMARK    7  A    between atoms: C_17  and  C_18
REMARK    8  A    between atoms: C_17  and  N_23
REMARK    9  A    between atoms: N_23  and  C_24
REMARK   10  A    between atoms: N_23  and  C_25
REMARK                            x       y       z     vdW  Elec       q    Type
REMARK                         _______ _______ _______ _____ _____    ______ ____
ROOT
ATOM      1  N   UNL     1       3.281  -3.323   6.275  0.00  0.00    -0.269 N 
ATOM      2  C   UNL     1       3.671  -4.603   6.436  0.00  0.00    +0.304 C 
ATOM      3  O   UNL     1       3.374  -5.438   5.604  0.00  0.00    -0.253 OA
ATOM      4  N   UNL     1       4.390  -4.956   7.520  0.00  0.00    -0.300 N 
ATOM      5  H   UNL     1       3.458  -2.670   6.971  0.00  0.00    +0.156 HD
ATOM      6  H   UNL     1       4.627  -4.290   8.184  0.00  0.00    +0.150 HD
ENDROOT
BRANCH   1  10
ATOM      7  C   UNL     1       1.315  -2.166   2.784  0.00  0.00    +0.033 A 
ATOM      8  C   UNL     1       2.192  -1.290   3.410  0.00  0.00    +0.025 A 
ATOM      9  C   UNL     1       2.842  -1.673   4.566  0.00  0.00    +0.025 A 
ATOM     10  C   UNL     1       2.620  -2.934   5.103  0.00  0.00    +0.035 A 
ATOM     11  C   UNL     1       1.743  -3.810   4.477  0.00  0.00    +0.025 A 
ATOM     12  C   UNL     1       1.087  -3.425   3.325  0.00  0.00    +0.025 A 
BRANCH   7  15
ATOM     13  C   UNL     1      -0.609  -2.187   1.382  0.00  0.00    +0.217 C 
ATOM     14  O   UNL     1      -1.144  -2.961   2.148  0.00  0.00    -0.275 OA
ATOM     15  N   UNL     1       0.654  -1.778   1.612  0.00  0.00    -0.286 N 
ATOM     16  H   UNL     1       1.106  -1.214   0.964  0.00  0.00    +0.155 HD
BRANCH  13  18
ATOM     17  C   UNL     1      -2.759  -2.298   0.150  0.00  0.00    +0.013 C 
ATOM     18  C   UNL     1      -1.357  -1.684   0.175  0.00  0.00    +0.093 C 
ENDBRANCH  13  18
ENDBRANCH   7  15
ENDBRANCH   1  10
BRANCH   4  19
ATOM     19  C   UNL     1       4.815  -6.348   7.695  0.00  0.00    +0.095 C 
BRANCH  19  20
ATOM     20  C   UNL     1       5.500  -6.505   9.054  0.00  0.00    -0.020 C 
BRANCH  20  21
ATOM     21  C   UNL     1       4.500  -6.253  10.153  0.00  0.00    -0.052 A 
ATOM     22  C   UNL     1       4.456  -5.029  10.794  0.00  0.00    +0.009 A 
ATOM     23  C   UNL     1       3.545  -4.836  11.779  0.00  0.00    +0.045 A 
ATOM     24  S   UNL     1       2.709  -6.413  11.824  0.00  0.00    -0.105 S 
ATOM     25  C   UNL     1       3.628  -7.222  10.524  0.00  0.00    +0.047 A 
ENDBRANCH  20  21
BRANCH  20  26
ATOM     26  N   UNL     1       6.033  -7.868   9.179  0.00  0.00    +0.382 N 
ATOM     27  C   UNL     1       7.088  -8.075   8.178  0.00  0.00    -0.096 C 
ATOM     28  C   UNL     1       6.592  -8.054  10.525  0.00  0.00    -0.096 C 
ATOM     29  H   UNL     1       5.290  -8.534   9.028  0.00  0.00    -0.082 HD
ENDBRANCH  20  26
ENDBRANCH  19  20
ENDBRANCH   4  19
TORSDOF 7
