REMARK  Name = ZINC39533642
REMARK  9 active torsions:
REMARK  status: ('A' for Active; 'I' for Inactive)
REMARK    1  A    between atoms: C_4  and  C_7
REMARK    2  A    between atoms: C_10  and  C_13
REMARK    3  A    between atoms: C_13  and  C_15
REMARK    4  A    between atoms: C_13  and  N_24
REMARK    5  A    between atoms: C_15  and  N_16
REMARK    6  A    between atoms: N_16  and  C_17
REMARK    7  A    between atoms: C_22  and  O_23
REMARK    8  A    between atoms: C_28  and  C_31
REMARK    9  A    between atoms: C_36  and  O_37
REMARK                            x       y       z     vdW  Elec       q    Type
REMARK                         _______ _______ _______ _____ _____    ______ ____
ROOT
ATOM      1  C   UNL     1       7.400  -2.737  -0.115  0.00  0.00    -0.021 C 
ENDROOT
BRANCH   1   2
ATOM      2  N   UNL     1       7.151  -3.900  -0.977  0.00  0.00    +0.383 N 
ATOM      3  C   UNL     1       8.317  -4.793  -0.944  0.00  0.00    -0.097 C 
ATOM      4  C   UNL     1       8.057  -6.004  -1.842  0.00  0.00    -0.101 C 
ATOM      5  N   UNL     1       7.826  -5.551  -3.220  0.00  0.00    +0.381 N 
ATOM      6  C   UNL     1       6.659  -4.659  -3.253  0.00  0.00    -0.054 C 
ATOM      7  C   UNL     1       6.919  -3.447  -2.355  0.00  0.00    -0.089 C 
ATOM      8  H   UNL     1       8.639  -5.054  -3.552  0.00  0.00    -0.085 HD
ATOM      9  H   UNL     1       7.654  -6.350  -3.812  0.00  0.00    -0.085 HD
ATOM     10  H   UNL     1       6.338  -4.397  -0.645  0.00  0.00    -0.081 HD
BRANCH   6  11
ATOM     11  C   UNL     1       6.421  -4.194  -4.667  0.00  0.00    -0.022 A 
ATOM     12  C   UNL     1       7.439  -4.267  -5.599  0.00  0.00    +0.005 A 
ATOM     13  C   UNL     1       7.221  -3.841  -6.896  0.00  0.00    +0.000 A 
ATOM     14  C   UNL     1       5.986  -3.341  -7.264  0.00  0.00    +0.004 A 
ATOM     15  C   UNL     1       4.965  -3.267  -6.336  0.00  0.00    +0.045 A 
ATOM     16  C   UNL     1       5.179  -3.699  -5.035  0.00  0.00    +0.118 A 
BRANCH  16  17
ATOM     17  O   UNL     1       4.175  -3.633  -4.122  0.00  0.00    -0.507 OA
ATOM     18  H   UNL     1       4.143  -2.799  -3.633  0.00  0.00    +0.292 HD
ENDBRANCH  16  17
ENDBRANCH   6  11
ENDBRANCH   1   2
BRANCH   1  22
ATOM     19  C   UNL     1       4.051  -0.085  -0.297  0.00  0.00    -0.018 A 
ATOM     20  C   UNL     1       5.348   0.426  -0.275  0.00  0.00    +0.009 A 
ATOM     21  C   UNL     1       6.425  -0.435  -0.216  0.00  0.00    +0.002 A 
ATOM     22  C   UNL     1       6.220  -1.802  -0.179  0.00  0.00    -0.059 A 
ATOM     23  C   UNL     1       4.935  -2.315  -0.202  0.00  0.00    +0.002 A 
ATOM     24  C   UNL     1       3.850  -1.463  -0.254  0.00  0.00    +0.009 A 
BRANCH  19  28
ATOM     25  C   UNL     1       0.721   2.553  -0.479  0.00  0.00    +0.000 A 
ATOM     26  C   UNL     1       2.006   3.066  -0.463  0.00  0.00    +0.001 A 
ATOM     27  C   UNL     1       3.090   2.214  -0.404  0.00  0.00    +0.008 A 
ATOM     28  C   UNL     1       2.889   0.836  -0.361  0.00  0.00    -0.018 A 
ATOM     29  C   UNL     1       1.593   0.325  -0.378  0.00  0.00    +0.008 A 
ATOM     30  C   UNL     1       0.516   1.186  -0.437  0.00  0.00    +0.001 A 
ENDBRANCH  19  28
ENDBRANCH   1  22
BRANCH   1  31
ATOM     31  C   UNL     1       7.602  -3.205   1.328  0.00  0.00    +0.091 C 
BRANCH  31  32
ATOM     32  N   UNL     1       7.932  -2.055   2.173  0.00  0.00    -0.342 N 
ATOM     33  H   UNL     1       7.934  -1.161   1.796  0.00  0.00    +0.146 HD
BRANCH  32  34
ATOM     34  C   UNL     1       8.245  -2.246   3.523  0.00  0.00    +0.069 A 
ATOM     35  C   UNL     1       8.248  -3.524   4.063  0.00  0.00    +0.026 A 
ATOM     36  C   UNL     1       8.558  -3.710   5.397  0.00  0.00    +0.002 A 
ATOM     37  C   UNL     1       8.864  -2.625   6.197  0.00  0.00    +0.004 A 
ATOM     38  C   UNL     1       8.863  -1.348   5.666  0.00  0.00    +0.047 A 
ATOM     39  C   UNL     1       8.559  -1.153   4.329  0.00  0.00    +0.138 A 
BRANCH  39  40
ATOM     40  O   UNL     1       8.563   0.102   3.804  0.00  0.00    -0.505 OA
ATOM     41  H   UNL     1       7.711   0.555   3.863  0.00  0.00    +0.292 HD
ENDBRANCH  39  40
ENDBRANCH  32  34
ENDBRANCH  31  32
ENDBRANCH   1  31
TORSDOF 9
