REMARK  Name = ZINC43287198
REMARK  9 active torsions:
REMARK  status: ('A' for Active; 'I' for Inactive)
REMARK    1  A    between atoms: C_1  and  C_2
REMARK    2  A    between atoms: C_2  and  C_3
REMARK    3  A    between atoms: C_3  and  O_4
REMARK    4  A    between atoms: O_4  and  C_5
REMARK    5  A    between atoms: N_10  and  C_12
REMARK    6  A    between atoms: C_12  and  C_14
REMARK    7  A    between atoms: C_12  and  C_20
REMARK    8  A    between atoms: C_20  and  C_22
REMARK    9  A    between atoms: C_20  and  N_23
REMARK                            x       y       z     vdW  Elec       q    Type
REMARK                         _______ _______ _______ _____ _____    ______ ____
ROOT
ATOM      1  C   UNL     1       3.326  -5.678  -2.785  0.00  0.00    -0.014 C 
ENDROOT
BRANCH   1   6
ATOM      2  C   UNL     1       1.287  -2.591  -2.149  0.00  0.00    +0.102 C 
ATOM      3  C   UNL     1       0.193  -2.819  -3.196  0.00  0.00    +0.028 C 
ATOM      4  C   UNL     1       0.820  -3.434  -4.450  0.00  0.00    -0.016 C 
ATOM      5  C   UNL     1       1.538  -4.731  -4.071  0.00  0.00    -0.078 C 
ATOM      6  N   UNL     1       2.589  -4.443  -3.087  0.00  0.00    +0.387 N 
ATOM      7  C   UNL     1       1.989  -3.919  -1.855  0.00  0.00    -0.046 C 
ATOM      8  H   UNL     1       3.225  -3.759  -3.468  0.00  0.00    -0.081 HD
BRANCH   2   9
ATOM      9  O   UNL     1       0.701  -2.085  -0.948  0.00  0.00    -0.378 OA
BRANCH   9  10
ATOM     10  C   UNL     1       0.627  -0.659  -0.894  0.00  0.00    +0.160 C 
BRANCH  10  12
ATOM     11  C   UNL     1      -0.092   1.296   0.485  0.00  0.00    +0.006 C 
ATOM     12  C   UNL     1      -0.013  -0.231   0.428  0.00  0.00    +0.025 C 
ENDBRANCH  10  12
ENDBRANCH   9  10
ENDBRANCH   2   9
ENDBRANCH   1   6
BRANCH   1  13
ATOM     13  C   UNL     1       3.908  -6.239  -4.056  0.00  0.00    -0.021 A 
ATOM     14  C   UNL     1       3.988  -7.531  -4.461  0.00  0.00    +0.025 A 
ATOM     15  C   UNL     1       4.571  -7.816  -5.682  0.00  0.00    +0.025 A 
ATOM     16  C   UNL     1       5.046  -6.795  -6.438  0.00  0.00    +0.060 A 
ATOM     17  S   UNL     1       4.664  -5.376  -5.424  0.00  0.00    -0.102 S 
ATOM     18 BR   UNL     1       4.705  -9.602  -6.287  0.00  0.00    -0.050 Br
ENDBRANCH   1  13
BRANCH   1  19
ATOM     19  C   UNL     1       4.455  -5.369  -1.800  0.00  0.00    +0.039 C 
ATOM     20  C   UNL     1       5.225  -6.654  -1.488  0.00  0.00    +0.022 C 
BRANCH  19  21
ATOM     21  N   UNL     1       5.367  -4.383  -2.394  0.00  0.00    -0.329 NA
ATOM     22  H   UNL     1       6.085  -4.114  -1.738  0.00  0.00    +0.118 HD
ATOM     23  H   UNL     1       5.771  -4.734  -3.249  0.00  0.00    +0.118 HD
ENDBRANCH  19  21
ENDBRANCH   1  19
TORSDOF 7
