REMARK  Name = ZINC58848832
REMARK  7 active torsions:
REMARK  status: ('A' for Active; 'I' for Inactive)
REMARK    1  A    between atoms: C_1  and  O_2
REMARK    2  A    between atoms: O_2  and  C_3
REMARK    3  A    between atoms: C_7  and  N_9
REMARK    4  A    between atoms: N_9  and  S_10
REMARK    5  A    between atoms: S_10  and  C_13
REMARK    6  A    between atoms: C_26  and  C_29
REMARK    7  A    between atoms: C_34  and  C_35
REMARK                            x       y       z     vdW  Elec       q    Type
REMARK                         _______ _______ _______ _____ _____    ______ ____
ROOT
ATOM      1  C   UNL     1      -0.930  -6.585  -2.582  0.00  0.00    +0.109 A 
ATOM      2  C   UNL     1      -1.716  -5.447  -2.636  0.00  0.00    +0.030 A 
ATOM      3  C   UNL     1      -1.830  -4.750  -3.821  0.00  0.00    +0.025 A 
ATOM      4  C   UNL     1      -1.156  -5.187  -4.957  0.00  0.00    +0.031 A 
ATOM      5  C   UNL     1      -0.358  -6.319  -4.901  0.00  0.00    -0.018 A 
ATOM      6  C   UNL     1      -0.253  -7.015  -3.705  0.00  0.00    +0.034 A 
ATOM      7  C   UNL     1       0.411  -6.796  -6.087  0.00  0.00    +0.049 C 
ATOM      8  C   UNL     1      -0.229  -7.998  -6.732  0.00  0.00    -0.023 C 
ATOM      9  C   UNL     1      -0.085  -7.945  -8.033  0.00  0.00    -0.030 C 
ATOM     10  C   UNL     1       0.666  -6.697  -8.442  0.00  0.00    +0.033 C 
ATOM     11  C   UNL     1       0.542  -5.770  -7.210  0.00  0.00    +0.029 C 
ATOM     12  C   UNL     1      -0.686  -4.904  -7.393  0.00  0.00    +0.105 C 
ATOM     13  N   UNL     1      -1.296  -4.484  -6.148  0.00  0.00    -0.336 N 
ATOM     14  H   UNL     1      -1.847  -3.687  -6.150  0.00  0.00    +0.147 HD
ENDROOT
BRANCH  12  15
ATOM     15  C   UNL     1      -1.692  -5.665  -8.218  0.00  0.00    -0.015 A 
ATOM     16  C   UNL     1      -2.440  -6.673  -7.638  0.00  0.00    +0.006 A 
ATOM     17  C   UNL     1      -3.362  -7.372  -8.395  0.00  0.00    +0.000 A 
ATOM     18  C   UNL     1      -3.536  -7.063  -9.731  0.00  0.00    +0.001 A 
ATOM     19  C   UNL     1      -2.788  -6.055 -10.310  0.00  0.00    +0.013 A 
ATOM     20  C   UNL     1      -1.869  -5.353  -9.553  0.00  0.00    +0.060 A 
BRANCH  20  21
ATOM     21  C   UNL     1      -1.058  -4.251 -10.183  0.00  0.00    +0.418 C 
ATOM     22  F   UNL     1      -1.315  -4.210 -11.557  0.00  0.00    -0.166 F 
ATOM     23  F   UNL     1      -1.408  -3.026  -9.606  0.00  0.00    -0.166 F 
ATOM     24  F   UNL     1       0.304  -4.494  -9.970  0.00  0.00    -0.166 F 
ENDBRANCH  20  21
ENDBRANCH  12  15
BRANCH   1  25
ATOM     25  S   UNL     1      -0.789  -7.484  -1.073  0.00  0.00    +0.072 S 
ATOM     26  O   UNL     1      -0.427  -8.812  -1.424  0.00  0.00    -0.150 OA
ATOM     27  O   UNL     1      -1.952  -7.187  -0.313  0.00  0.00    -0.150 OA
BRANCH  25  28
ATOM     28  N   UNL     1       0.494  -6.847  -0.242  0.00  0.00    -0.216 N 
ATOM     29  H   UNL     1       1.281  -7.389  -0.076  0.00  0.00    +0.174 HD
BRANCH  28  34
ATOM     30  C   UNL     1       1.483  -3.384   0.505  0.00  0.00    +0.122 A 
ATOM     31  C   UNL     1       0.338  -2.917   1.134  0.00  0.00    +0.046 A 
ATOM     32  C   UNL     1      -0.749  -3.753   1.304  0.00  0.00    +0.005 A 
ATOM     33  C   UNL     1      -0.700  -5.056   0.848  0.00  0.00    +0.025 A 
ATOM     34  C   UNL     1       0.444  -5.530   0.218  0.00  0.00    +0.052 A 
ATOM     35  C   UNL     1       1.535  -4.689   0.041  0.00  0.00    +0.070 A 
BRANCH  30  37
ATOM     36  C   UNL     1       2.429  -1.229   0.841  0.00  0.00    +0.277 C 
ATOM     37  O   UNL     1       2.552  -2.561   0.338  0.00  0.00    -0.495 OA
ENDBRANCH  30  37
ENDBRANCH  28  34
ENDBRANCH  25  28
ENDBRANCH   1  25
TORSDOF 6
