REMARK  Name = ZINC09720936
REMARK  9 active torsions:
REMARK  status: ('A' for Active; 'I' for Inactive)
REMARK    1  A    between atoms: C_3  and  N_14
REMARK    2  A    between atoms: C_4  and  N_11
REMARK    3  A    between atoms: C_6  and  C_7
REMARK    4  A    between atoms: N_14  and  C_15
REMARK    5  A    between atoms: C_15  and  C_16
REMARK    6  A    between atoms: C_16  and  C_17
REMARK    7  A    between atoms: C_17  and  N_18
REMARK    8  A    between atoms: C_19  and  C_20
REMARK    9  A    between atoms: C_25  and  O_26
REMARK                            x       y       z     vdW  Elec       q    Type
REMARK                         _______ _______ _______ _____ _____    ______ ____
ROOT
ATOM      1  C   UNL     1       3.522   2.670  -0.118  0.00  0.00    +0.103 C 
ENDROOT
BRANCH   1   2
ATOM      2  N   UNL     1       3.361   1.217  -0.026  0.00  0.00    -0.342 N 
ATOM      3  H   UNL     1       4.142   0.644   0.009  0.00  0.00    +0.146 HD
BRANCH   2   6
ATOM      4  C   UNL     1      -0.300   0.922   0.104  0.00  0.00    +0.014 A 
ATOM      5  C   UNL     1       0.963   1.479   0.067  0.00  0.00    +0.026 A 
ATOM      6  C   UNL     1       2.081   0.657   0.013  0.00  0.00    +0.058 A 
ATOM      7  C   UNL     1       1.925  -0.723  -0.003  0.00  0.00    +0.147 A 
ATOM      8  C   UNL     1       0.659  -1.273   0.035  0.00  0.00    +0.047 A 
ATOM      9  C   UNL     1      -0.453  -0.452   0.089  0.00  0.00    +0.057 A 
BRANCH   9  10
ATOM     10  C   UNL     1      -1.833  -1.056   0.130  0.00  0.00    +0.417 C 
ATOM     11  F   UNL     1      -2.787  -0.035   0.181  0.00  0.00    -0.166 F 
ATOM     12  F   UNL     1      -2.038  -1.829  -1.018  0.00  0.00    -0.166 F 
ATOM     13  F   UNL     1      -1.954  -1.864   1.265  0.00  0.00    -0.166 F 
ENDBRANCH   9  10
BRANCH   7  14
ATOM     14  N   UNL     1       3.114  -1.603  -0.060  0.00  0.00    +0.058 N 
ATOM     15  O   UNL     1       3.072  -2.635  -0.689  0.00  0.00    -0.126 OA
ATOM     16  O   UNL     1       4.126  -1.290   0.522  0.00  0.00    -0.126 OA
ENDBRANCH   7  14
ENDBRANCH   2   6
ENDBRANCH   1   2
BRANCH   1  17
ATOM     17  C   UNL     1       5.011   3.018  -0.144  0.00  0.00    +0.039 C 
BRANCH  17  18
ATOM     18  C   UNL     1       5.180   4.535  -0.240  0.00  0.00    +0.114 C 
BRANCH  18  19
ATOM     19  N   UNL     1       6.606   4.868  -0.265  0.00  0.00    -0.390 N 
ATOM     20  C   UNL     1       7.126   5.411  -1.318  0.00  0.00    +0.090 C 
ATOM     21  H   UNL     1       7.161   4.681   0.508  0.00  0.00    +0.159 HD
BRANCH  20  22
ATOM     22  C   UNL     1       8.580   5.643  -1.387  0.00  0.00    +0.035 A 
ATOM     23  C   UNL     1       9.161   6.117  -2.566  0.00  0.00    +0.033 A 
ATOM     24  C   UNL     1      10.522   6.332  -2.624  0.00  0.00    +0.043 A 
ATOM     25  C   UNL     1      11.317   6.080  -1.517  0.00  0.00    +0.043 A 
ATOM     26  C   UNL     1      10.755   5.611  -0.345  0.00  0.00    +0.084 A 
ATOM     27  C   UNL     1       9.386   5.395  -0.268  0.00  0.00    +0.144 A 
ATOM     28 CL   UNL     1      11.760   5.298   1.035  0.00  0.00    -0.080 Cl
ATOM     29 CL   UNL     1      11.242   6.921  -4.090  0.00  0.00    -0.083 Cl
BRANCH  27  30
ATOM     30  O   UNL     1       8.832   4.939   0.884  0.00  0.00    -0.505 OA
ATOM     31  H   UNL     1       8.791   3.975   0.947  0.00  0.00    +0.292 HD
ENDBRANCH  27  30
ENDBRANCH  20  22
ENDBRANCH  18  19
ENDBRANCH  17  18
ENDBRANCH   1  17
TORSDOF 9
