REMARK  Name = ZINC45557338
REMARK  12 active torsions:
REMARK  status: ('A' for Active; 'I' for Inactive)
REMARK    1  A    between atoms: C_1  and  C_2
REMARK    2  A    between atoms: C_2  and  C_4
REMARK    3  A    between atoms: C_2  and  N_18
REMARK    4  A    between atoms: N_6  and  C_7
REMARK    5  A    between atoms: C_8  and  C_15
REMARK    6  A    between atoms: N_18  and  C_19
REMARK    7  A    between atoms: N_18  and  C_20
REMARK    8  A    between atoms: C_20  and  C_21
REMARK    9  A    between atoms: N_23  and  C_24
REMARK   10  A    between atoms: C_24  and  C_25
REMARK   11  A    between atoms: C_24  and  C_26
REMARK   12  A    between atoms: C_24  and  C_27
REMARK                            x       y       z     vdW  Elec       q    Type
REMARK                         _______ _______ _______ _____ _____    ______ ____
ROOT
ATOM      1  C   UNL     1       0.363  -0.280   1.627  0.00  0.00    +0.204 C 
ATOM      2  O   UNL     1      -0.482  -0.808   2.317  0.00  0.00    -0.277 OA
ATOM      3  N   UNL     1       1.580  -0.010   2.141  0.00  0.00    -0.281 N 
ATOM      4  H   UNL     1       2.256   0.413   1.589  0.00  0.00    +0.155 HD
ENDROOT
BRANCH   3   5
ATOM      5  C   UNL     1       1.865  -0.336   3.458  0.00  0.00    +0.084 A 
ATOM      6  C   UNL     1       3.044  -0.131   4.149  0.00  0.00    +0.068 A 
ATOM      7  C   UNL     1       3.090  -0.570   5.543  0.00  0.00    -0.023 A 
ATOM      8  C   UNL     1       1.947  -1.131   5.979  0.00  0.00    -0.004 A 
ATOM      9  S   UNL     1       0.855  -1.065   4.582  0.00  0.00    -0.077 S 
ATOM     10  C   UNL     1       2.049  -1.567   7.415  0.00  0.00    +0.043 C 
ATOM     11  C   UNL     1       3.565  -1.592   7.709  0.00  0.00    +0.010 C 
ATOM     12  C   UNL     1       4.101  -0.569   6.687  0.00  0.00    +0.037 C 
BRANCH   6  13
ATOM     13  C   UNL     1       4.203   0.500   3.510  0.00  0.00    +0.244 C 
ATOM     14  O   UNL     1       4.339   1.709   3.554  0.00  0.00    -0.270 OA
ATOM     15  N   UNL     1       5.118  -0.258   2.874  0.00  0.00    -0.325 N 
ATOM     16  H   UNL     1       5.010  -1.221   2.839  0.00  0.00    +0.145 HD
ATOM     17  H   UNL     1       5.885   0.160   2.451  0.00  0.00    +0.145 HD
ENDBRANCH   6  13
ENDBRANCH   3   5
BRANCH   1  19
ATOM     18  C   UNL     1      -0.451   1.518   0.126  0.00  0.00    -0.004 C 
ATOM     19  C   UNL     1       0.054   0.075   0.196  0.00  0.00    +0.017 C 
BRANCH  19  20
ATOM     20  N   UNL     1      -0.980  -0.831  -0.321  0.00  0.00    +0.391 N 
ATOM     21  C   UNL     1      -1.313  -0.458  -1.702  0.00  0.00    -0.094 C 
ATOM     22  H   UNL     1      -1.806  -0.762   0.255  0.00  0.00    -0.080 HD
BRANCH  20  23
ATOM     23  C   UNL     1      -0.479  -2.212  -0.294  0.00  0.00    +0.019 C 
BRANCH  23  24
ATOM     24  C   UNL     1      -1.594  -3.158  -0.657  0.00  0.00    +0.197 C 
ATOM     25  O   UNL     1      -2.697  -2.725  -0.912  0.00  0.00    -0.278 OA
ATOM     26  N   UNL     1      -1.365  -4.486  -0.697  0.00  0.00    -0.312 N 
ATOM     27  H   UNL     1      -0.482  -4.832  -0.492  0.00  0.00    +0.149 HD
BRANCH  26  28
ATOM     28  C   UNL     1      -2.449  -5.406  -1.049  0.00  0.00    +0.026 C 
ATOM     29  C   UNL     1      -2.961  -5.077  -2.453  0.00  0.00    +0.031 C 
ATOM     30  C   UNL     1      -1.927  -6.844  -1.021  0.00  0.00    +0.031 C 
ATOM     31  C   UNL     1      -3.591  -5.258  -0.042  0.00  0.00    +0.031 C 
ENDBRANCH  26  28
ENDBRANCH  23  24
ENDBRANCH  20  23
ENDBRANCH  19  20
ENDBRANCH   1  19
TORSDOF 7
