REMARK  Name = ZINC21079957
REMARK  11 active torsions:
REMARK  status: ('A' for Active; 'I' for Inactive)
REMARK    1  A    between atoms: C_1  and  O_2
REMARK    2  A    between atoms: O_2  and  C_3
REMARK    3  A    between atoms: C_7  and  C_10
REMARK    4  A    between atoms: C_8  and  O_9
REMARK    5  A    between atoms: N_11  and  N_12
REMARK    6  A    between atoms: C_15  and  S_18
REMARK    7  A    between atoms: S_18  and  C_19
REMARK    8  A    between atoms: C_19  and  C_20
REMARK    9  A    between atoms: C_20  and  C_21
REMARK   10  A    between atoms: N_23  and  C_24
REMARK   11  A    between atoms: N_23  and  C_30
REMARK                            x       y       z     vdW  Elec       q    Type
REMARK                         _______ _______ _______ _____ _____    ______ ____
ROOT
ATOM      1  N   UNL     1       0.349   3.613   0.357  0.00  0.00    -0.205 N 
ATOM      2  C   UNL     1       1.292   2.596   0.329  0.00  0.00    +0.232 A 
ATOM      3  N   UNL     1       1.040   1.272   0.101  0.00  0.00    -0.186 NA
ATOM      4  C   UNL     1       2.229   0.601   0.149  0.00  0.00    +0.210 A 
ATOM      5  N   UNL     1       3.177   1.474   0.396  0.00  0.00    -0.144 NA
ATOM      6  N   UNL     1       2.583   2.737   0.510  0.00  0.00    -0.245 N 
ATOM      7  H   UNL     1      -0.713   3.383   0.186  0.00  0.00    +0.177 HD
ATOM      8  H   UNL     1       3.005   3.733   0.710  0.00  0.00    +0.192 HD
ENDROOT
BRANCH   1  10
ATOM      9  C   UNL     1      -0.134   5.885   0.630  0.00  0.00    +0.142 C 
ATOM     10  N   UNL     1       0.749   4.933   0.603  0.00  0.00    -0.187 NA
BRANCH   9  15
ATOM     11  C   UNL     1       2.024   8.883   1.349  0.00  0.00    +0.162 A 
ATOM     12  C   UNL     1       1.073   9.891   1.376  0.00  0.00    +0.049 A 
ATOM     13  C   UNL     1      -0.263   9.599   1.161  0.00  0.00    +0.004 A 
ATOM     14  C   UNL     1      -0.660   8.301   0.918  0.00  0.00    +0.013 A 
ATOM     15  C   UNL     1       0.287   7.274   0.889  0.00  0.00    +0.040 A 
ATOM     16  C   UNL     1       1.637   7.570   1.112  0.00  0.00    +0.167 A 
BRANCH  11  18
ATOM     17  C   UNL     1       3.660  10.548   1.805  0.00  0.00    +0.277 C 
ATOM     18  O   UNL     1       3.334   9.178   1.561  0.00  0.00    -0.491 OA
ENDBRANCH  11  18
BRANCH  16  19
ATOM     19  O   UNL     1       2.566   6.577   1.092  0.00  0.00    -0.503 OA
ATOM     20  H   UNL     1       2.257   5.538   0.904  0.00  0.00    +0.292 HD
ENDBRANCH  16  19
ENDBRANCH   9  15
ENDBRANCH   1  10
BRANCH   4  21
ATOM     21  S   UNL     1       2.450  -1.131  -0.081  0.00  0.00    -0.084 S 
BRANCH  21  22
ATOM     22  C   UNL     1       4.238  -1.374   0.105  0.00  0.00    +0.087 C 
BRANCH  22  23
ATOM     23  C   UNL     1       4.573  -2.856  -0.073  0.00  0.00    +0.108 C 
BRANCH  23  24
ATOM     24  C   UNL     1       6.058  -3.058   0.082  0.00  0.00    +0.225 C 
ATOM     25  O   UNL     1       6.784  -2.103   0.264  0.00  0.00    -0.275 OA
ATOM     26  N   UNL     1       6.580  -4.299   0.017  0.00  0.00    -0.240 N 
BRANCH  26  27
ATOM     27  C   UNL     1       7.943  -4.499   0.270  0.00  0.00    +0.041 A 
ATOM     28  C   UNL     1       8.895  -4.006  -0.613  0.00  0.00    +0.024 A 
ATOM     29  C   UNL     1      10.238  -4.201  -0.358  0.00  0.00    +0.002 A 
ATOM     30  C   UNL     1      10.635  -4.896   0.769  0.00  0.00    +0.000 A 
ATOM     31  C   UNL     1       9.690  -5.393   1.648  0.00  0.00    +0.002 A 
ATOM     32  C   UNL     1       8.345  -5.196   1.402  0.00  0.00    +0.024 A 
ENDBRANCH  26  27
BRANCH  26  33
ATOM     33  C   UNL     1       5.760  -5.388  -0.303  0.00  0.00    +0.041 A 
ATOM     34  C   UNL     1       4.803  -5.827   0.602  0.00  0.00    +0.024 A 
ATOM     35  C   UNL     1       3.992  -6.898   0.281  0.00  0.00    +0.002 A 
ATOM     36  C   UNL     1       4.140  -7.540  -0.935  0.00  0.00    +0.000 A 
ATOM     37  C   UNL     1       5.096  -7.108  -1.836  0.00  0.00    +0.002 A 
ATOM     38  C   UNL     1       5.907  -6.034  -1.523  0.00  0.00    +0.024 A 
ENDBRANCH  26  33
ENDBRANCH  23  24
ENDBRANCH  22  23
ENDBRANCH  21  22
ENDBRANCH   4  21
TORSDOF 10
