REMARK  Name = ZINC03628643
REMARK  3 active torsions:
REMARK  status: ('A' for Active; 'I' for Inactive)
REMARK    1  A    between atoms: C_1  and  N_40
REMARK    2  A    between atoms: C_9  and  O_24
REMARK    3  A    between atoms: C_14  and  O_23
REMARK                            x       y       z     vdW  Elec       q    Type
REMARK                         _______ _______ _______ _____ _____    ______ ____
ROOT
ATOM      1  C   UNL     1       3.747   0.004   4.843  0.00  0.00    -0.096 C 
ATOM      2  C   UNL     1       2.870   1.865   3.588  0.00  0.00    -0.078 C 
ATOM      3  C   UNL     1       1.845   2.402   2.563  0.00  0.00    -0.003 C 
ATOM      4  C   UNL     1       2.020   1.489   1.363  0.00  0.00    +0.042 C 
ATOM      5  C   UNL     1       3.446   1.610   0.911  0.00  0.00    +0.011 A 
ATOM      6  C   UNL     1       4.478   0.773   1.238  0.00  0.00    -0.041 A 
ATOM      7  C   UNL     1       5.707   1.166   0.742  0.00  0.00    +0.007 A 
ATOM      8  C   UNL     1       5.794   2.275  -0.089  0.00  0.00    +0.049 A 
ATOM      9  C   UNL     1       4.698   3.031  -0.510  0.00  0.00    +0.159 A 
ATOM     10  C   UNL     1       3.455   2.663  -0.012  0.00  0.00    +0.166 A 
ATOM     11  O   UNL     1       2.153   3.058  -0.257  0.00  0.00    -0.481 OA
ATOM     12  C   UNL     1       1.442   1.858  -0.002  0.00  0.00    +0.217 C 
ATOM     13  C   UNL     1      -0.019   1.537   0.011  0.00  0.00    +0.178 C 
ATOM     14  C   UNL     1       0.002  -0.004   0.002  0.00  0.00    +0.004 C 
ATOM     15  C   UNL     1       0.837  -0.641   0.825  0.00  0.00    -0.026 C 
ATOM     16  C   UNL     1       1.640   0.102   1.804  0.00  0.00    +0.012 C 
ATOM     17  C   UNL     1       2.751  -0.467   2.660  0.00  0.00    -0.057 C 
ATOM     18  C   UNL     1       4.158  -0.426   2.058  0.00  0.00    +0.021 C 
ATOM     19  N   UNL     1       2.703   0.424   3.901  0.00  0.00    +0.380 N 
ATOM     20  H   UNL     1       1.786   0.300   4.347  0.00  0.00    -0.082 HD
ENDROOT
BRANCH  13  21
ATOM     21  O   UNL     1      -0.665   2.046  -1.158  0.00  0.00    -0.384 OA
ATOM     22  H   UNL     1      -1.585   1.763  -1.254  0.00  0.00    +0.210 HD
ENDBRANCH  13  21
BRANCH   9  23
ATOM     23  O   UNL     1       4.841   4.078  -1.366  0.00  0.00    -0.503 OA
ATOM     24  H   UNL     1       4.769   3.836  -2.299  0.00  0.00    +0.292 HD
ENDBRANCH   9  23
TORSDOF 2
