REMARK  Name = ZINC26014126
REMARK  9 active torsions:
REMARK  status: ('A' for Active; 'I' for Inactive)
REMARK    1  A    between atoms: C_1  and  C_2
REMARK    2  A    between atoms: C_2  and  C_3
REMARK    3  A    between atoms: C_3  and  C_4
REMARK    4  A    between atoms: C_9  and  C_30
REMARK    5  A    between atoms: N_10  and  C_17
REMARK    6  A    between atoms: C_17  and  C_18
REMARK    7  A    between atoms: N_20  and  C_21
REMARK    8  A    between atoms: C_21  and  C_22
REMARK    9  A    between atoms: C_27  and  C_28
REMARK                            x       y       z     vdW  Elec       q    Type
REMARK                         _______ _______ _______ _____ _____    ______ ____
ROOT
ATOM      1  C   UNL     1       0.739  -2.027  -1.265  0.00  0.00    +0.080 C 
ATOM      2  C   UNL     1       1.564  -2.518  -2.456  0.00  0.00    +0.050 C 
ATOM      3  C   UNL     1       0.801  -2.283  -3.733  0.00  0.00    -0.019 A 
ATOM      4  C   UNL     1       1.485  -1.968  -4.915  0.00  0.00    +0.026 A 
ATOM      5  C   UNL     1       0.793  -1.768  -6.061  0.00  0.00    +0.020 A 
ATOM      6  N   UNL     1      -0.562  -1.876  -6.085  0.00  0.00    -0.302 N 
ATOM      7  C   UNL     1      -1.250  -2.175  -4.966  0.00  0.00    +0.273 A 
ATOM      8  O   UNL     1      -2.466  -2.274  -5.004  0.00  0.00    -0.266 OA
ATOM      9  C   UNL     1      -0.561  -2.375  -3.750  0.00  0.00    +0.102 A 
ATOM     10  N   UNL     1      -1.270  -2.644  -2.575  0.00  0.00    -0.281 N 
ATOM     11  C   UNL     1      -0.671  -2.547  -1.376  0.00  0.00    +0.221 C 
ATOM     12  O   UNL     1      -1.270  -2.881  -0.376  0.00  0.00    -0.275 OA
ATOM     13  C   UNL     1       1.534  -1.423  -7.327  0.00  0.00    +0.063 C 
ATOM     14  H   UNL     1      -2.204  -2.902  -2.626  0.00  0.00    +0.155 HD
ENDROOT
BRANCH   1  15
ATOM     15  C   UNL     1       0.718  -0.497  -1.257  0.00  0.00    +0.013 C 
BRANCH  15  17
ATOM     16  C   UNL     1      -0.019   1.526   0.010  0.00  0.00    +0.004 C 
ATOM     17  C   UNL     1       0.002  -0.004   0.002  0.00  0.00    -0.003 C 
ENDBRANCH  15  17
ENDBRANCH   1  15
BRANCH   6  18
ATOM     18  C   UNL     1      -1.282  -1.663  -7.342  0.00  0.00    +0.220 C 
BRANCH  18  19
ATOM     19  C   UNL     1      -1.415  -2.974  -8.074  0.00  0.00    +0.233 C 
ATOM     20  O   UNL     1      -0.953  -3.986  -7.592  0.00  0.00    -0.274 OA
ATOM     21  N   UNL     1      -2.047  -3.021  -9.263  0.00  0.00    -0.310 N 
ATOM     22  H   UNL     1      -2.416  -2.211  -9.649  0.00  0.00    +0.149 HD
BRANCH  21  23
ATOM     23  C   UNL     1      -2.175  -4.296  -9.974  0.00  0.00    +0.141 C 
BRANCH  23  24
ATOM     24  C   UNL     1      -2.916  -4.077 -11.268  0.00  0.00    -0.011 A 
ATOM     25  C   UNL     1      -4.269  -4.377 -11.360  0.00  0.00    +0.010 A 
ATOM     26  C   UNL     1      -4.912  -4.161 -12.566  0.00  0.00    +0.041 A 
ATOM     27  C   UNL     1      -4.186  -3.654 -13.639  0.00  0.00    +0.094 A 
ATOM     28  N   UNL     1      -2.897  -3.381 -13.510  0.00  0.00    -0.347 N 
ATOM     29  C   UNL     1      -2.259  -3.571 -12.371  0.00  0.00    +0.019 A 
ATOM     30  C   UNL     1      -0.792  -3.237 -12.274  0.00  0.00    +0.063 C 
ATOM     31  N   UNL     1      -4.819  -3.433 -14.856  0.00  0.00    -0.345 N 
ATOM     32  H   UNL     1      -5.763  -3.632 -14.955  0.00  0.00    +0.144 HD
ATOM     33  H   UNL     1      -4.316  -3.079 -15.607  0.00  0.00    +0.144 HD
ATOM     34  H   UNL     1      -2.410  -3.028 -14.272  0.00  0.00    +0.167 HD
ENDBRANCH  23  24
ENDBRANCH  21  23
ENDBRANCH  18  19
ENDBRANCH   6  18
TORSDOF 6
