REMARK  Name = ZINC35642033
REMARK  10 active torsions:
REMARK  status: ('A' for Active; 'I' for Inactive)
REMARK    1  A    between atoms: C_1  and  C_2
REMARK    2  A    between atoms: C_2  and  N_3
REMARK    3  A    between atoms: C_4  and  C_24
REMARK    4  A    between atoms: C_5  and  C_19
REMARK    5  A    between atoms: C_6  and  C_11
REMARK    6  A    between atoms: C_19  and  O_21
REMARK    7  A    between atoms: O_21  and  C_22
REMARK    8  A    between atoms: C_22  and  C_23
REMARK    9  A    between atoms: C_24  and  N_25
REMARK   10  A    between atoms: C_32  and  C_34
REMARK                            x       y       z     vdW  Elec       q    Type
REMARK                         _______ _______ _______ _____ _____    ______ ____
ROOT
ATOM      1  N   UNL     1      -1.762  -0.497   0.038  0.00  0.00    -0.261 N 
ATOM      2  C   UNL     1      -2.131  -0.887   1.294  0.00  0.00    +0.010 C 
ATOM      3  C   UNL     1      -3.240  -1.632   1.495  0.00  0.00    +0.076 C 
ATOM      4  C   UNL     1      -4.060  -2.017   0.280  0.00  0.00    +0.143 C 
ATOM      5  N   UNL     1      -3.577  -1.546  -1.028  0.00  0.00    -0.288 N 
ATOM      6  C   UNL     1      -2.451  -0.805  -1.067  0.00  0.00    +0.307 C 
ATOM      7  O   UNL     1      -2.046  -0.408  -2.142  0.00  0.00    -0.252 OA
ATOM      8  H   UNL     1      -4.059  -1.760  -1.842  0.00  0.00    +0.151 HD
ENDROOT
BRANCH   4   9
ATOM      9  C   UNL     1      -4.138  -3.522   0.231  0.00  0.00    -0.021 A 
ATOM     10  C   UNL     1      -3.076  -4.253  -0.266  0.00  0.00    +0.007 A 
ATOM     11  C   UNL     1      -3.146  -5.632  -0.312  0.00  0.00    +0.022 A 
ATOM     12  C   UNL     1      -4.281  -6.282   0.140  0.00  0.00    +0.059 A 
ATOM     13  C   UNL     1      -5.345  -5.550   0.639  0.00  0.00    +0.060 A 
ATOM     14  C   UNL     1      -5.270  -4.170   0.689  0.00  0.00    +0.027 A 
ATOM     15 CL   UNL     1      -6.769  -6.364   1.206  0.00  0.00    -0.082 Cl
ATOM     16 CL   UNL     1      -4.370  -8.015   0.082  0.00  0.00    -0.082 Cl
ENDBRANCH   4   9
BRANCH   1  18
ATOM     17  C   UNL     1      -0.902   1.792   0.018  0.00  0.00    +0.025 C 
ATOM     18  C   UNL     1      -0.548   0.309  -0.106  0.00  0.00    +0.111 C 
ENDBRANCH   1  18
BRANCH   3  19
ATOM     19  C   UNL     1      -3.623  -2.038   2.795  0.00  0.00    +0.339 C 
ATOM     20  O   UNL     1      -2.946  -1.721   3.755  0.00  0.00    -0.245 OA
BRANCH  19  21
ATOM     21  O   UNL     1      -4.739  -2.776   2.970  0.00  0.00    -0.462 OA
BRANCH  21  22
ATOM     22  C   UNL     1      -5.066  -3.150   4.310  0.00  0.00    +0.229 C 
ATOM     23  C   UNL     1      -6.353  -3.977   4.309  0.00  0.00    +0.048 C 
ENDBRANCH  21  22
ENDBRANCH  19  21
ENDBRANCH   3  19
BRANCH   2  24
ATOM     24  C   UNL     1      -1.287  -0.482   2.474  0.00  0.00    -0.026 C 
BRANCH  24  25
ATOM     25  N   UNL     1      -0.425  -1.604   2.869  0.00  0.00    +0.384 N 
ATOM     26  C   UNL     1       0.151  -1.305   4.178  0.00  0.00    -0.077 C 
ATOM     27  C   UNL     1       0.410  -2.600   4.917  0.00  0.00    +0.000 C 
ATOM     28  C   UNL     1       1.859  -3.053   4.664  0.00  0.00    +0.106 C 
ATOM     29  N   UNL     1       2.253  -2.815   3.260  0.00  0.00    -0.303 N 
ATOM     30  C   UNL     1       1.362  -3.082   2.150  0.00  0.00    +0.089 C 
ATOM     31  C   UNL     1       0.518  -1.825   1.840  0.00  0.00    -0.059 C 
ATOM     32  C   UNL     1       3.485  -2.332   3.004  0.00  0.00    +0.219 C 
ATOM     33  O   UNL     1       3.830  -2.129   1.859  0.00  0.00    -0.275 OA
ATOM     34  H   UNL     1      -0.999  -2.429   2.957  0.00  0.00    -0.081 HD
BRANCH  32  35
ATOM     35  C   UNL     1       4.433  -2.044   4.139  0.00  0.00    +0.075 C 
ATOM     36  C   UNL     1       4.772  -0.579   4.422  0.00  0.00    +0.013 C 
ATOM     37  C   UNL     1       5.816  -1.497   3.783  0.00  0.00    +0.013 C 
ENDBRANCH  32  35
ENDBRANCH  24  25
ENDBRANCH   2  24
TORSDOF 8
