REMARK  Name = ZINC13734923
REMARK  14 active torsions:
REMARK  status: ('A' for Active; 'I' for Inactive)
REMARK    1  A    between atoms: C_1  and  C_2
REMARK    2  A    between atoms: C_2  and  N_3
REMARK    3  A    between atoms: N_3  and  C_4
REMARK    4  A    between atoms: C_4  and  C_5
REMARK    5  A    between atoms: C_5  and  C_6
REMARK    6  A    between atoms: C_6  and  N_7
REMARK    7  A    between atoms: N_7  and  C_8
REMARK    8  A    between atoms: C_8  and  C_9
REMARK    9  A    between atoms: C_11  and  O_25
REMARK   10  A    between atoms: C_12  and  O_16
REMARK   11  A    between atoms: O_16  and  C_17
REMARK   12  A    between atoms: C_17  and  C_18
REMARK   13  A    between atoms: O_25  and  C_26
REMARK   14  A    between atoms: C_26  and  C_27
REMARK                            x       y       z     vdW  Elec       q    Type
REMARK                         _______ _______ _______ _____ _____    ______ ____
ROOT
ATOM      1  C   UNL     1       2.884  -6.359  -4.984  0.00  0.00    -0.029 A 
ATOM      2  C   UNL     1       2.167  -6.570  -6.147  0.00  0.00    +0.054 A 
ATOM      3  C   UNL     1       2.819  -6.981  -7.298  0.00  0.00    +0.163 A 
ATOM      4  C   UNL     1       4.196  -7.182  -7.281  0.00  0.00    +0.176 A 
ATOM      5  C   UNL     1       4.910  -6.969  -6.112  0.00  0.00    +0.063 A 
ATOM      6  C   UNL     1       4.253  -6.553  -4.967  0.00  0.00    +0.024 A 
ATOM      7 BR   UNL     1       6.781  -7.240  -6.082  0.00  0.00    -0.046 Br
ENDROOT
BRANCH   1   8
ATOM      8  C   UNL     1       2.173  -5.912  -3.733  0.00  0.00    +0.116 C 
BRANCH   8   9
ATOM      9  N   UNL     1       2.134  -4.444  -3.691  0.00  0.00    -0.312 NA
ATOM     10  H   UNL     1       1.702  -4.069  -4.522  0.00  0.00    +0.122 HD
BRANCH   9  11
ATOM     11  C   UNL     1       1.446  -3.970  -2.482  0.00  0.00    +0.079 C 
BRANCH  11  12
ATOM     12  C   UNL     1       1.426  -2.440  -2.474  0.00  0.00    -0.004 C 
BRANCH  12  13
ATOM     13  C   UNL     1       0.710  -1.947  -1.215  0.00  0.00    -0.081 C 
BRANCH  13  14
ATOM     14  N   UNL     1       0.690  -0.478  -1.207  0.00  0.00    +0.379 N 
ATOM     15  H   UNL     1       0.202  -0.144  -2.024  0.00  0.00    -0.086 HD
ATOM     16  H   UNL     1       1.636  -0.129  -1.214  0.00  0.00    -0.086 HD
BRANCH  14  18
ATOM     17  C   UNL     1      -0.019   1.526   0.010  0.00  0.00    -0.017 C 
ATOM     18  C   UNL     1       0.002  -0.004   0.002  0.00  0.00    -0.086 C 
ENDBRANCH  14  18
ENDBRANCH  13  14
ENDBRANCH  12  13
ENDBRANCH  11  12
ENDBRANCH   9  11
ENDBRANCH   8   9
ENDBRANCH   1   8
BRANCH   4  19
ATOM     19  O   UNL     1       4.840  -7.587  -8.408  0.00  0.00    -0.483 OA
BRANCH  19  20
ATOM     20  C   UNL     1       5.329  -6.564  -9.278  0.00  0.00    +0.264 C 
BRANCH  20  21
ATOM     21  C   UNL     1       6.009  -7.197 -10.465  0.00  0.00    -0.010 A 
ATOM     22  C   UNL     1       7.360  -7.485 -10.415  0.00  0.00    +0.008 A 
ATOM     23  C   UNL     1       7.984  -8.066 -11.503  0.00  0.00    +0.020 A 
ATOM     24  C   UNL     1       7.256  -8.358 -12.643  0.00  0.00    +0.041 A 
ATOM     25  C   UNL     1       5.904  -8.069 -12.693  0.00  0.00    +0.020 A 
ATOM     26  C   UNL     1       5.280  -7.494 -11.602  0.00  0.00    +0.008 A 
ATOM     27 CL   UNL     1       8.039  -9.086 -14.010  0.00  0.00    -0.084 Cl
ENDBRANCH  20  21
ENDBRANCH  19  20
ENDBRANCH   4  19
BRANCH   3  28
ATOM     28  O   UNL     1       2.115  -7.189  -8.443  0.00  0.00    -0.489 OA
BRANCH  28  29
ATOM     29  C   UNL     1       0.705  -6.964  -8.387  0.00  0.00    +0.226 C 
ATOM     30  C   UNL     1       0.088  -7.247  -9.758  0.00  0.00    +0.048 C 
ENDBRANCH  28  29
ENDBRANCH   3  28
TORSDOF 12
