REMARK  Name = ZINC38511485
REMARK  5 active torsions:
REMARK  status: ('A' for Active; 'I' for Inactive)
REMARK    1  A    between atoms: C_1  and  N_2
REMARK    2  A    between atoms: C_13  and  N_17
REMARK    3  A    between atoms: C_18  and  C_20
REMARK    4  A    between atoms: N_25  and  S_27
REMARK    5  A    between atoms: S_27  and  C_30
REMARK                            x       y       z     vdW  Elec       q    Type
REMARK                         _______ _______ _______ _____ _____    ______ ____
ROOT
ATOM      1  N   UNL     1       6.476  -8.057  -0.070  0.00  0.00    -0.285 N 
ATOM      2  C   UNL     1       7.283  -7.927   1.002  0.00  0.00    +0.222 C 
ATOM      3  O   UNL     1       7.123  -7.005   1.773  0.00  0.00    -0.275 OA
ATOM      4  H   UNL     1       6.559  -8.831  -0.649  0.00  0.00    +0.155 HD
ENDROOT
BRANCH   1  17
ATOM      5  C   UNL     1      -0.060   1.435   0.045  0.00  0.00    -0.096 C 
ATOM      6  N   UNL     1      -0.034  -0.033   0.033  0.00  0.00    +0.380 N 
ATOM      7  C   UNL     1       0.646  -0.498  -1.183  0.00  0.00    -0.060 C 
ATOM      8  C   UNL     1       0.573  -2.027  -1.255  0.00  0.00    +0.088 C 
ATOM      9  N   UNL     1       1.120  -2.579  -0.005  0.00  0.00    -0.313 N 
ATOM     10  C   UNL     1       0.609  -2.049   1.268  0.00  0.00    +0.088 C 
ATOM     11  C   UNL     1       0.680  -0.519   1.221  0.00  0.00    -0.060 C 
ATOM     12  C   UNL     1       2.085  -3.566  -0.028  0.00  0.00    +0.162 A 
ATOM     13  N   UNL     1       2.650  -4.142  -1.063  0.00  0.00    -0.225 NA
ATOM     14  C   UNL     1       3.591  -5.104  -0.935  0.00  0.00    +0.080 A 
ATOM     15  C   UNL     1       4.273  -5.799  -1.960  0.00  0.00    +0.031 A 
ATOM     16  C   UNL     1       5.200  -6.749  -1.664  0.00  0.00    +0.025 A 
ATOM     17  C   UNL     1       5.516  -7.074  -0.347  0.00  0.00    +0.035 A 
ATOM     18  C   UNL     1       4.868  -6.412   0.687  0.00  0.00    +0.040 A 
ATOM     19  C   UNL     1       3.931  -5.454   0.391  0.00  0.00    +0.043 A 
ATOM     20  S   UNL     1       2.888  -4.379   1.346  0.00  0.00    -0.052 S 
ATOM     21  H   UNL     1      -0.979  -0.386   0.042  0.00  0.00    -0.082 HD
ENDBRANCH   1  17
BRANCH   2  22
ATOM     22  C   UNL     1       8.383  -8.928   1.241  0.00  0.00    +0.091 C 
ATOM     23  C   UNL     1       9.347  -8.923   0.052  0.00  0.00    +0.015 C 
ATOM     24  C   UNL     1      10.446  -9.963   0.280  0.00  0.00    +0.018 C 
ATOM     25  C   UNL     1      11.235  -9.598   1.542  0.00  0.00    +0.109 C 
ATOM     26  N   UNL     1      10.295  -9.459   2.663  0.00  0.00    -0.175 NA
ATOM     27  C   UNL     1       9.148  -8.553   2.515  0.00  0.00    +0.122 C 
BRANCH  26  28
ATOM     28  S   UNL     1      10.524 -10.307   4.066  0.00  0.00    +0.067 S 
ATOM     29  O   UNL     1       9.250 -10.415   4.688  0.00  0.00    -0.152 OA
ATOM     30  O   UNL     1      11.305 -11.445   3.730  0.00  0.00    -0.152 OA
BRANCH  28  31
ATOM     31  C   UNL     1      11.518  -9.308   5.123  0.00  0.00    +0.143 A 
ATOM     32  C   UNL     1      11.130  -8.392   6.044  0.00  0.00    +0.036 A 
ATOM     33  C   UNL     1      12.096  -7.719   6.768  0.00  0.00    +0.010 A 
ATOM     34  C   UNL     1      13.403  -7.995   6.535  0.00  0.00    +0.047 A 
ATOM     35  S   UNL     1      13.296  -9.245   5.265  0.00  0.00    -0.077 S 
ENDBRANCH  28  31
ENDBRANCH  26  28
ENDBRANCH   2  22
TORSDOF 4
