REMARK  Name = ZINC56644449
REMARK  10 active torsions:
REMARK  status: ('A' for Active; 'I' for Inactive)
REMARK    1  A    between atoms: C_1  and  C_2
REMARK    2  A    between atoms: C_5  and  C_29
REMARK    3  A    between atoms: N_8  and  C_10
REMARK    4  A    between atoms: C_10  and  C_11
REMARK    5  A    between atoms: C_11  and  C_13
REMARK    6  A    between atoms: C_11  and  N_14
REMARK    7  A    between atoms: N_17  and  C_18
REMARK    8  A    between atoms: C_23  and  S_24
REMARK    9  A    between atoms: S_24  and  C_25
REMARK   10  A    between atoms: C_25  and  C_26
REMARK                            x       y       z     vdW  Elec       q    Type
REMARK                         _______ _______ _______ _____ _____    ______ ____
ROOT
ATOM      1  N   UNL     1       3.499  -2.485   0.942  0.00  0.00    -0.298 N 
ATOM      2  C   UNL     1       4.537  -1.849   0.363  0.00  0.00    +0.304 C 
ATOM      3  O   UNL     1       5.041  -0.886   0.908  0.00  0.00    -0.253 OA
ATOM      4  N   UNL     1       5.016  -2.281  -0.821  0.00  0.00    -0.268 N 
ATOM      5  H   UNL     1       3.097  -3.253   0.507  0.00  0.00    +0.150 HD
ATOM      6  H   UNL     1       4.669  -3.096  -1.216  0.00  0.00    +0.156 HD
ENDROOT
BRANCH   4   7
ATOM      7  C   UNL     1       6.015  -1.552  -1.480  0.00  0.00    +0.048 A 
ATOM      8  C   UNL     1       6.160  -0.195  -1.239  0.00  0.00    +0.024 A 
ATOM      9  C   UNL     1       7.146   0.522  -1.891  0.00  0.00    +0.002 A 
ATOM     10  C   UNL     1       7.991  -0.110  -2.785  0.00  0.00    +0.001 A 
ATOM     11  C   UNL     1       7.854  -1.463  -3.031  0.00  0.00    +0.016 A 
ATOM     12  C   UNL     1       6.871  -2.192  -2.377  0.00  0.00    +0.030 A 
BRANCH  12  13
ATOM     13  S   UNL     1       6.699  -3.918  -2.684  0.00  0.00    -0.114 S 
BRANCH  13  14
ATOM     14  C   UNL     1       8.004  -4.282  -3.891  0.00  0.00    +0.169 C 
BRANCH  14  15
ATOM     15  C   UNL     1       7.968  -5.746  -4.245  0.00  0.00    +0.221 C 
ATOM     16  O   UNL     1       7.143  -6.473  -3.733  0.00  0.00    -0.275 OA
ATOM     17  N   UNL     1       8.852  -6.248  -5.129  0.00  0.00    -0.329 N 
ATOM     18  H   UNL     1       9.512  -5.666  -5.539  0.00  0.00    +0.145 HD
ATOM     19  H   UNL     1       8.829  -7.191  -5.357  0.00  0.00    +0.145 HD
ENDBRANCH  14  15
ENDBRANCH  13  14
ENDBRANCH  12  13
ENDBRANCH   4   7
BRANCH   1  20
ATOM     20  C   UNL     1       2.978  -2.016   2.228  0.00  0.00    +0.055 C 
ATOM     21  C   UNL     1       3.799  -2.629   3.365  0.00  0.00    +0.026 C 
BRANCH  20  22
ATOM     22  C   UNL     1       1.515  -2.437   2.371  0.00  0.00    -0.057 C 
BRANCH  22  28
ATOM     23  C   UNL     1       0.007   1.565  -0.012  0.00  0.00    +0.005 C 
ATOM     24  C   UNL     1       0.016   0.035  -0.022  0.00  0.00    -0.031 C 
ATOM     25  C   UNL     1      -1.425  -0.485  -0.018  0.00  0.00    +0.003 C 
ATOM     26  C   UNL     1      -1.405  -2.015   0.051  0.00  0.00    -0.031 C 
ATOM     27  C   UNL     1      -0.626  -2.454   1.293  0.00  0.00    -0.076 C 
ATOM     28  N   UNL     1       0.750  -1.948   1.216  0.00  0.00    +0.381 N 
ATOM     29  C   UNL     1       0.743  -0.481   1.222  0.00  0.00    -0.076 C 
ATOM     30  C   UNL     1      -2.839  -2.541   0.134  0.00  0.00    +0.005 C 
ATOM     31  H   UNL     1       1.181  -2.278   0.365  0.00  0.00    -0.082 HD
ENDBRANCH  22  28
ENDBRANCH  20  22
ENDBRANCH   1  20
TORSDOF 7
