REMARK  Name = ZINC13463639
REMARK  8 active torsions:
REMARK  status: ('A' for Active; 'I' for Inactive)
REMARK    1  A    between atoms: C_1  and  O_2
REMARK    2  A    between atoms: O_2  and  C_3
REMARK    3  A    between atoms: C_3  and  C_5
REMARK    4  A    between atoms: C_10  and  S_11
REMARK    5  A    between atoms: S_11  and  O_14
REMARK    6  A    between atoms: O_14  and  C_15
REMARK    7  A    between atoms: C_17  and  C_24
REMARK    8  A    between atoms: C_20  and  N_21
REMARK                            x       y       z     vdW  Elec       q    Type
REMARK                         _______ _______ _______ _____ _____    ______ ____
ROOT
ATOM      1  S   UNL     1      -4.847   0.047   1.693  0.00  0.00    +0.152 S 
ATOM      2  O   UNL     1      -5.441   0.750   0.611  0.00  0.00    -0.131 OA
ATOM      3  O   UNL     1      -3.841  -0.939   1.501  0.00  0.00    -0.131 OA
ENDROOT
BRANCH   1   9
ATOM      4  C   UNL     1      -4.997   2.185   3.403  0.00  0.00    +0.088 A 
ATOM      5  C   UNL     1      -4.446   3.142   4.258  0.00  0.00    +0.032 A 
ATOM      6  C   UNL     1      -3.082   3.174   4.466  0.00  0.00    +0.019 A 
ATOM      7  C   UNL     1      -2.260   2.260   3.829  0.00  0.00    +0.017 A 
ATOM      8  C   UNL     1      -2.800   1.310   2.981  0.00  0.00    +0.032 A 
ATOM      9  C   UNL     1      -4.162   1.263   2.769  0.00  0.00    +0.142 A 
ATOM     10 BR   UNL     1      -2.334   4.470   5.623  0.00  0.00    -0.050 Br
BRANCH   4  11
ATOM     11  C   UNL     1      -6.456   2.144   3.176  0.00  0.00    +0.341 C 
ATOM     12  O   UNL     1      -6.920   1.388   2.347  0.00  0.00    -0.245 OA
BRANCH  11  14
ATOM     13  C   UNL     1      -8.693   2.852   3.613  0.00  0.00    +0.280 C 
ATOM     14  O   UNL     1      -7.271   2.946   3.889  0.00  0.00    -0.464 OA
ENDBRANCH  11  14
ENDBRANCH   4  11
ENDBRANCH   1   9
BRANCH   1  15
ATOM     15  O   UNL     1      -5.983  -0.631   2.446  0.00  0.00    -0.340 OA
BRANCH  15  16
ATOM     16  C   UNL     1      -5.568  -1.505   3.401  0.00  0.00    +0.188 A 
ATOM     17  C   UNL     1      -5.240  -1.044   4.665  0.00  0.00    +0.066 A 
ATOM     18  C   UNL     1      -4.815  -1.944   5.643  0.00  0.00    +0.067 A 
ATOM     19  C   UNL     1      -4.724  -3.305   5.340  0.00  0.00    +0.017 A 
ATOM     20  C   UNL     1      -5.054  -3.753   4.077  0.00  0.00    +0.037 A 
ATOM     21  C   UNL     1      -5.480  -2.860   3.111  0.00  0.00    +0.170 A 
BRANCH  21  22
ATOM     22  N   UNL     1      -5.838  -3.349   1.761  0.00  0.00    +0.060 N 
ATOM     23  O   UNL     1      -5.846  -4.545   1.529  0.00  0.00    -0.126 OA
ATOM     24  O   UNL     1      -6.126  -2.557   0.882  0.00  0.00    -0.126 OA
ENDBRANCH  21  22
BRANCH  18  25
ATOM     25  C   UNL     1      -4.463  -1.461   6.994  0.00  0.00    +0.387 C 
ATOM     26  O   UNL     1      -4.543  -0.277   7.255  0.00  0.00    -0.241 OA
ATOM     27  O   UNL     1      -4.053  -2.332   7.936  0.00  0.00    -0.241 OA
ENDBRANCH  18  25
ENDBRANCH  15  16
ENDBRANCH   1  15
TORSDOF 7
