REMARK  Name = ZINC67392856
REMARK  11 active torsions:
REMARK  status: ('A' for Active; 'I' for Inactive)
REMARK    1  A    between atoms: C_1  and  C_2
REMARK    2  A    between atoms: N_7  and  C_9
REMARK    3  A    between atoms: C_9  and  C_10
REMARK    4  A    between atoms: C_9  and  C_11
REMARK    5  A    between atoms: C_9  and  C_12
REMARK    6  A    between atoms: C_12  and  N_13
REMARK    7  A    between atoms: C_14  and  C_16
REMARK    8  A    between atoms: N_18  and  C_19
REMARK    9  A    between atoms: C_22  and  O_25
REMARK   10  A    between atoms: O_25  and  C_26
REMARK   11  A    between atoms: C_26  and  C_27
REMARK                            x       y       z     vdW  Elec       q    Type
REMARK                         _______ _______ _______ _____ _____    ______ ____
ROOT
ATOM      1  C   UNL     1       2.955  -6.261  -0.350  0.00  0.00    +0.303 C 
ATOM      2  O   UNL     1       3.343  -5.460  -1.175  0.00  0.00    -0.265 OA
ATOM      3  N   UNL     1       3.091  -7.583  -0.577  0.00  0.00    -0.278 N 
ATOM      4  H   UNL     1       2.843  -8.221   0.110  0.00  0.00    +0.155 HD
ENDROOT
BRANCH   3   5
ATOM      5  C   UNL     1       3.590  -8.034  -1.803  0.00  0.00    +0.034 A 
ATOM      6  C   UNL     1       4.573  -7.307  -2.463  0.00  0.00    +0.027 A 
ATOM      7  C   UNL     1       5.065  -7.753  -3.673  0.00  0.00    +0.047 A 
ATOM      8  C   UNL     1       4.578  -8.927  -4.230  0.00  0.00    +0.121 A 
ATOM      9  C   UNL     1       3.596  -9.653  -3.572  0.00  0.00    +0.047 A 
ATOM     10  C   UNL     1       3.107  -9.212  -2.359  0.00  0.00    +0.027 A 
BRANCH   8  11
ATOM     11  O   UNL     1       5.064  -9.366  -5.422  0.00  0.00    -0.483 OA
BRANCH  11  12
ATOM     12  C   UNL     1       4.517 -10.582  -5.937  0.00  0.00    +0.324 C 
BRANCH  12  13
ATOM     13  C   UNL     1       5.171 -10.908  -7.255  0.00  0.00    +0.248 C 
ATOM     14  O   UNL     1       6.021 -10.171  -7.709  0.00  0.00    -0.272 OA
ATOM     15  N   UNL     1       4.811 -12.018  -7.930  0.00  0.00    -0.327 N 
ATOM     16  H   UNL     1       4.131 -12.607  -7.567  0.00  0.00    +0.145 HD
ATOM     17  H   UNL     1       5.232 -12.228  -8.778  0.00  0.00    +0.145 HD
ENDBRANCH  12  13
ENDBRANCH  11  12
ENDBRANCH   8  11
ENDBRANCH   3   5
BRANCH   1  19
ATOM     18  N   UNL     1       2.191  -4.461   1.145  0.00  0.00    -0.309 N 
ATOM     19  C   UNL     1       2.326  -5.782   0.918  0.00  0.00    +0.299 C 
ATOM     20  O   UNL     1       1.938  -6.583   1.743  0.00  0.00    -0.265 OA
ATOM     21  H   UNL     1       2.501  -3.821   0.485  0.00  0.00    +0.149 HD
BRANCH  18  22
ATOM     22  C   UNL     1       1.574  -3.991   2.388  0.00  0.00    +0.092 C 
BRANCH  22  23
ATOM     23  C   UNL     1       1.542  -2.461   2.395  0.00  0.00    -0.055 C 
ATOM     24  C   UNL     1       2.970  -1.921   2.297  0.00  0.00    -0.008 C 
ATOM     25  C   UNL     1       0.898  -1.970   3.693  0.00  0.00    -0.008 C 
BRANCH  23  31
ATOM     26  C   UNL     1      -0.035   1.519   0.021  0.00  0.00    +0.005 C 
ATOM     27  C   UNL     1      -0.011  -0.010   0.014  0.00  0.00    -0.031 C 
ATOM     28  C   UNL     1      -1.446  -0.545   0.038  0.00  0.00    -0.001 C 
ATOM     29  C   UNL     1      -1.410  -2.074   0.110  0.00  0.00    -0.018 C 
ATOM     30  C   UNL     1      -0.612  -2.502   1.343  0.00  0.00    -0.078 C 
ATOM     31  N   UNL     1       0.758  -1.983   1.248  0.00  0.00    +0.384 N 
ATOM     32  C   UNL     1       0.736  -0.515   1.250  0.00  0.00    -0.075 C 
ATOM     33  H   UNL     1       1.182  -2.310   0.393  0.00  0.00    -0.081 HD
ENDBRANCH  23  31
ENDBRANCH  22  23
ENDBRANCH  18  22
ENDBRANCH   1  19
TORSDOF 8
