REMARK  Name = ZINC54111612
REMARK  9 active torsions:
REMARK  status: ('A' for Active; 'I' for Inactive)
REMARK    1  A    between atoms: C_1  and  C_2
REMARK    2  A    between atoms: C_2  and  N_3
REMARK    3  A    between atoms: N_3  and  C_4
REMARK    4  A    between atoms: N_3  and  C_5
REMARK    5  A    between atoms: C_5  and  C_6
REMARK    6  A    between atoms: C_6  and  N_7
REMARK    7  A    between atoms: N_7  and  S_8
REMARK    8  A    between atoms: S_8  and  C_11
REMARK    9  A    between atoms: C_12  and  N_19
REMARK                            x       y       z     vdW  Elec       q    Type
REMARK                         _______ _______ _______ _____ _____    ______ ____
ROOT
ATOM      1  S   UNL     1       1.327  -4.985  -4.600  0.00  0.00    +0.061 S 
ATOM      2  O   UNL     1       1.315  -6.389  -4.383  0.00  0.00    -0.153 OA
ATOM      3  O   UNL     1       0.604  -4.371  -5.658  0.00  0.00    -0.153 OA
ENDROOT
BRANCH   1   4
ATOM      4  C   UNL     1       3.014  -4.522  -4.808  0.00  0.00    +0.144 A 
ATOM      5  C   UNL     1       3.335  -3.332  -5.449  0.00  0.00    +0.054 A 
ATOM      6  C   UNL     1       4.666  -2.970  -5.611  0.00  0.00    +0.044 A 
ATOM      7  C   UNL     1       5.668  -3.794  -5.134  0.00  0.00    +0.044 A 
ATOM      8  C   UNL     1       5.346  -4.979  -4.496  0.00  0.00    +0.042 A 
ATOM      9  C   UNL     1       4.020  -5.340  -4.328  0.00  0.00    +0.070 A 
ATOM     10 CL   UNL     1       3.620  -6.823  -3.521  0.00  0.00    -0.081 Cl
ATOM     11 CL   UNL     1       7.332  -3.343  -5.336  0.00  0.00    -0.083 Cl
BRANCH   5  12
ATOM     12  N   UNL     1       2.321  -2.501  -5.931  0.00  0.00    -0.356 N 
ATOM     13  H   UNL     1       1.412  -2.610  -5.610  0.00  0.00    +0.142 HD
ATOM     14  H   UNL     1       2.525  -1.815  -6.585  0.00  0.00    +0.142 HD
ENDBRANCH   5  12
ENDBRANCH   1   4
BRANCH   1  15
ATOM     15  N   UNL     1       0.797  -4.284  -3.196  0.00  0.00    -0.192 NA
ATOM     16  H   UNL     1       0.538  -4.840  -2.444  0.00  0.00    +0.148 HD
BRANCH  15  17
ATOM     17  C   UNL     1       0.719  -2.825  -3.090  0.00  0.00    +0.087 C 
BRANCH  17  18
ATOM     18  C   UNL     1      -0.132  -2.447  -1.875  0.00  0.00    -0.062 C 
BRANCH  18  19
ATOM     19  N   UNL     1      -0.210  -0.985  -1.768  0.00  0.00    +0.379 N 
ATOM     20  C   UNL     1       1.126  -0.441  -1.491  0.00  0.00    -0.096 C 
ATOM     21  H   UNL     1      -0.555  -0.602  -2.635  0.00  0.00    -0.082 HD
BRANCH  19  23
ATOM     22  C   UNL     1      -1.301   0.898  -0.644  0.00  0.00    -0.017 C 
ATOM     23  C   UNL     1      -1.122  -0.622  -0.675  0.00  0.00    -0.083 C 
ENDBRANCH  19  23
ENDBRANCH  18  19
ENDBRANCH  17  18
ENDBRANCH  15  17
ENDBRANCH   1  15
TORSDOF 7
