REMARK  Name = ZINC37063229
REMARK  7 active torsions:
REMARK  status: ('A' for Active; 'I' for Inactive)
REMARK    1  A    between atoms: C_1  and  C_2
REMARK    2  A    between atoms: C_2  and  N_3
REMARK    3  A    between atoms: C_7  and  C_9
REMARK    4  A    between atoms: C_9  and  N_10
REMARK    5  A    between atoms: N_10  and  S_11
REMARK    6  A    between atoms: S_11  and  C_14
REMARK    7  A    between atoms: C_16  and  N_22
REMARK                            x       y       z     vdW  Elec       q    Type
REMARK                         _______ _______ _______ _____ _____    ______ ____
ROOT
ATOM      1  S   UNL     1       4.522  -2.171   0.330  0.00  0.00    +0.061 S 
ATOM      2  O   UNL     1       4.950  -1.311   1.377  0.00  0.00    -0.153 OA
ATOM      3  O   UNL     1       4.446  -3.582   0.487  0.00  0.00    -0.153 OA
ENDROOT
BRANCH   1   4
ATOM      4  C   UNL     1       5.591  -1.873  -1.038  0.00  0.00    +0.143 A 
ATOM      5  C   UNL     1       6.622  -0.961  -0.921  0.00  0.00    +0.054 A 
ATOM      6  C   UNL     1       7.466  -0.726  -1.999  0.00  0.00    +0.028 A 
ATOM      7  C   UNL     1       7.271  -1.409  -3.193  0.00  0.00    +0.045 A 
ATOM      8  C   UNL     1       6.239  -2.321  -3.305  0.00  0.00    +0.080 A 
ATOM      9  C   UNL     1       5.402  -2.558  -2.226  0.00  0.00    +0.168 A 
ATOM     10  F   UNL     1       4.396  -3.453  -2.335  0.00  0.00    -0.202 F 
ATOM     11 CL   UNL     1       5.994  -3.176  -4.796  0.00  0.00    -0.080 Cl
BRANCH   6  12
ATOM     12  N   UNL     1       8.509   0.198  -1.883  0.00  0.00    -0.358 N 
ATOM     13  H   UNL     1       8.644   0.675  -1.050  0.00  0.00    +0.142 HD
ATOM     14  H   UNL     1       9.098   0.361  -2.637  0.00  0.00    +0.142 HD
ENDBRANCH   6  12
ENDBRANCH   1   4
BRANCH   1  15
ATOM     15  N   UNL     1       3.009  -1.663  -0.111  0.00  0.00    -0.191 NA
ATOM     16  H   UNL     1       2.595  -0.916   0.349  0.00  0.00    +0.148 HD
BRANCH  15  17
ATOM     17  C   UNL     1       2.296  -2.340  -1.197  0.00  0.00    +0.090 C 
BRANCH  17  22
ATOM     18  N   UNL     1       0.690  -0.478  -1.207  0.00  0.00    +0.382 N 
ATOM     19  C   UNL     1      -0.098  -0.111  -2.403  0.00  0.00    -0.078 C 
ATOM     20  C   UNL     1       0.088  -1.300  -3.378  0.00  0.00    -0.020 C 
ATOM     21  C   UNL     1       0.095  -2.507  -2.403  0.00  0.00    -0.016 C 
ATOM     22  C   UNL     1       0.818  -1.946  -1.161  0.00  0.00    -0.053 C 
ATOM     23  H   UNL     1       1.606  -0.058  -1.264  0.00  0.00    -0.081 HD
BRANCH  18  25
ATOM     24  C   UNL     1      -0.019   1.526   0.010  0.00  0.00    -0.017 C 
ATOM     25  C   UNL     1       0.002  -0.004   0.002  0.00  0.00    -0.082 C 
ENDBRANCH  18  25
ENDBRANCH  17  22
ENDBRANCH  15  17
ENDBRANCH   1  15
TORSDOF 6
