REMARK  Name = ZINC20254655
REMARK  6 active torsions:
REMARK  status: ('A' for Active; 'I' for Inactive)
REMARK    1  A    between atoms: C_1  and  N_2
REMARK    2  A    between atoms: C_3  and  C_5
REMARK    3  A    between atoms: C_8  and  N_20
REMARK    4  A    between atoms: N_11  and  C_12
REMARK    5  A    between atoms: C_12  and  C_13
REMARK    6  A    between atoms: N_20  and  C_21
REMARK                            x       y       z     vdW  Elec       q    Type
REMARK                         _______ _______ _______ _____ _____    ______ ____
ROOT
ATOM      1  C   UNL     1      -0.922   2.208  -1.139  0.00  0.00    +0.142 C 
ATOM      2  C   UNL     1      -0.319   1.978   0.263  0.00  0.00    +0.014 C 
ATOM      3  C   UNL     1      -1.423   2.509   1.214  0.00  0.00    -0.055 C 
ATOM      4  C   UNL     1      -2.712   2.096   0.452  0.00  0.00    +0.070 C 
ATOM      5  N   UNL     1      -2.385   2.289  -0.977  0.00  0.00    -0.289 NA
ENDROOT
BRANCH   1   8
ATOM      6  C   UNL     1      -0.299  -1.330  -2.457  0.00  0.00    +0.128 C 
ATOM      7  N   UNL     1      -0.739  -0.212  -1.619  0.00  0.00    -0.317 N 
ATOM      8  C   UNL     1      -0.570   1.056  -2.044  0.00  0.00    +0.230 C 
ATOM      9  O   UNL     1      -0.134   1.269  -3.156  0.00  0.00    -0.274 OA
ATOM     10  H   UNL     1      -1.207  -0.406  -0.643  0.00  0.00    +0.148 HD
ENDBRANCH   1   8
BRANCH   3  11
ATOM     11  N   UNL     1      -1.349   1.852   2.526  0.00  0.00    +0.384 N 
ATOM     12  H   UNL     1      -1.902   0.901   2.491  0.00  0.00    -0.085 HD
ATOM     13  H   UNL     1      -0.296   1.654   2.778  0.00  0.00    -0.085 HD
BRANCH  11  14
ATOM     14  C   UNL     1      -1.933   2.699   3.574  0.00  0.00    -0.065 C 
ATOM     15  C   UNL     1      -0.878   3.684   4.081  0.00  0.00    -0.024 C 
ATOM     16  C   UNL     1      -1.486   4.567   5.172  0.00  0.00    +0.005 C 
ATOM     17  C   UNL     1      -1.964   3.689   6.331  0.00  0.00    -0.010 C 
ATOM     18  C   UNL     1      -0.777   2.913   6.905  0.00  0.00    +0.007 C 
ATOM     19  C   UNL     1      -0.168   2.030   5.814  0.00  0.00    -0.010 C 
ATOM     20  C   UNL     1       0.309   2.908   4.655  0.00  0.00    +0.005 C 
ATOM     21  C   UNL     1      -1.224   1.046   5.307  0.00  0.00    +0.005 C 
ATOM     22  C   UNL     1      -2.410   1.822   4.732  0.00  0.00    -0.024 C 
ATOM     23  C   UNL     1      -3.019   2.705   5.824  0.00  0.00    +0.005 C 
ENDBRANCH  11  14
ENDBRANCH   3  11
BRANCH   5  24
ATOM     24  C   UNL     1      -3.064   1.289  -1.812  0.00  0.00    +0.121 C 
BRANCH  24  25
ATOM     25  C   UNL     1      -3.038   1.736  -3.251  0.00  0.00    -0.015 A 
ATOM     26  C   UNL     1      -2.511   0.905  -4.223  0.00  0.00    +0.006 A 
ATOM     27  C   UNL     1      -2.488   1.315  -5.543  0.00  0.00    +0.000 A 
ATOM     28  C   UNL     1      -2.991   2.554  -5.893  0.00  0.00    +0.001 A 
ATOM     29  C   UNL     1      -3.517   3.385  -4.922  0.00  0.00    +0.020 A 
ATOM     30  C   UNL     1      -3.546   2.974  -3.601  0.00  0.00    +0.045 A 
ATOM     31 CL   UNL     1      -4.214   4.014  -2.382  0.00  0.00    -0.083 Cl
ENDBRANCH  24  25
ENDBRANCH   5  24
TORSDOF 5
