REMARK  Name = ZINC62017501
REMARK  8 active torsions:
REMARK  status: ('A' for Active; 'I' for Inactive)
REMARK    1  A    between atoms: C_1  and  C_2
REMARK    2  A    between atoms: C_2  and  C_4
REMARK    3  A    between atoms: C_2  and  N_11
REMARK    4  A    between atoms: N_11  and  C_12
REMARK    5  A    between atoms: N_11  and  C_13
REMARK    6  A    between atoms: C_13  and  C_14
REMARK    7  A    between atoms: C_18  and  N_20
REMARK    8  A    between atoms: N_20  and  N_21
REMARK                            x       y       z     vdW  Elec       q    Type
REMARK                         _______ _______ _______ _____ _____    ______ ____
ROOT
ATOM      1  C   UNL     1       0.863  -2.041   0.743  0.00  0.00    -0.020 C 
ENDROOT
BRANCH   1   2
ATOM      2  C   UNL     1       1.663  -2.717   1.826  0.00  0.00    +0.045 A 
ATOM      3  C   UNL     1       3.018  -2.922   1.647  0.00  0.00    +0.060 A 
ATOM      4  C   UNL     1       3.750  -3.546   2.649  0.00  0.00    +0.025 A 
ATOM      5  C   UNL     1       3.090  -3.942   3.799  0.00  0.00    +0.046 A 
ATOM      6  C   UNL     1       1.724  -3.704   3.911  0.00  0.00    +0.132 A 
ATOM      7  N   UNL     1       1.062  -3.101   2.936  0.00  0.00    -0.236 NA
ATOM      8 CL   UNL     1       3.797  -2.405   0.184  0.00  0.00    -0.082 Cl
BRANCH   6   9
ATOM      9  N   UNL     1       1.049  -4.098   5.062  0.00  0.00    -0.268 N 
ATOM     10  H   UNL     1       1.530  -4.537   5.780  0.00  0.00    +0.167 HD
BRANCH   9  11
ATOM     11  N   UNL     1      -0.292  -3.867   5.179  0.00  0.00    -0.255 NA
ATOM     12  H   UNL     1      -0.798  -4.278   4.409  0.00  0.00    +0.140 HD
ATOM     13  H   UNL     1      -0.641  -4.206   6.063  0.00  0.00    +0.140 HD
ENDBRANCH   9  11
ENDBRANCH   6   9
ENDBRANCH   1   2
BRANCH   1  14
ATOM     14  N   UNL     1       0.755  -0.606   1.037  0.00  0.00    +0.386 N 
ATOM     15  C   UNL     1      -0.009  -0.416   2.277  0.00  0.00    -0.095 C 
ATOM     16  H   UNL     1       1.679  -0.215   1.148  0.00  0.00    -0.081 HD
BRANCH  14  18
ATOM     17  C   UNL     1      -0.165   1.539   0.294  0.00  0.00    -0.008 C 
ATOM     18  C   UNL     1       0.067   0.071  -0.071  0.00  0.00    -0.038 C 
BRANCH  18  19
ATOM     19  C   UNL     1       0.916  -0.010  -1.313  0.00  0.00    -0.026 A 
ATOM     20  C   UNL     1       2.291  -0.103  -1.207  0.00  0.00    +0.005 A 
ATOM     21  C   UNL     1       3.069  -0.178  -2.346  0.00  0.00    +0.000 A 
ATOM     22  C   UNL     1       2.474  -0.158  -3.594  0.00  0.00    +0.003 A 
ATOM     23  C   UNL     1       1.100  -0.065  -3.703  0.00  0.00    +0.038 A 
ATOM     24  C   UNL     1       0.318   0.004  -2.562  0.00  0.00    +0.125 A 
ATOM     25  F   UNL     1      -1.026   0.091  -2.667  0.00  0.00    -0.205 F 
ENDBRANCH  18  19
ENDBRANCH  14  18
ENDBRANCH   1  14
TORSDOF 6
