REMARK  Name = ZINC39881563
REMARK  6 active torsions:
REMARK  status: ('A' for Active; 'I' for Inactive)
REMARK    1  A    between atoms: C_1  and  C_2
REMARK    2  A    between atoms: N_12  and  C_15
REMARK    3  A    between atoms: C_18  and  C_21
REMARK    4  A    between atoms: N_23  and  C_24
REMARK    5  A    between atoms: C_29  and  O_30
REMARK    6  A    between atoms: O_30  and  C_31
REMARK                            x       y       z     vdW  Elec       q    Type
REMARK                         _______ _______ _______ _____ _____    ______ ____
ROOT
ATOM      1  C   UNL     1      -0.880  -4.565   4.821  0.00  0.00    +0.035 A 
ATOM      2  C   UNL     1      -0.297  -3.321   5.041  0.00  0.00    +0.024 A 
ATOM      3  C   UNL     1       0.016  -2.923   6.321  0.00  0.00    +0.015 A 
ATOM      4  C   UNL     1      -0.252  -3.770   7.400  0.00  0.00    +0.037 A 
ATOM      5  C   UNL     1      -0.837  -5.019   7.175  0.00  0.00    +0.015 A 
ATOM      6  C   UNL     1      -1.154  -5.409   5.894  0.00  0.00    +0.024 A 
ENDROOT
BRANCH   1  18
ATOM      7  C   UNL     1       5.504  -5.673   0.688  0.00  0.00    +0.044 C 
ATOM      8  C   UNL     1       4.003  -5.741   0.576  0.00  0.00    -0.048 A 
ATOM      9  C   UNL     1       3.422  -6.121  -0.632  0.00  0.00    +0.004 A 
ATOM     10  C   UNL     1       2.068  -6.191  -0.763  0.00  0.00    +0.010 A 
ATOM     11  C   UNL     1       1.248  -5.878   0.331  0.00  0.00    -0.001 A 
ATOM     12  C   UNL     1      -0.157  -5.938   0.237  0.00  0.00    +0.017 A 
ATOM     13  C   UNL     1      -0.892  -5.621   1.339  0.00  0.00    -0.007 A 
ATOM     14  C   UNL     1      -0.265  -5.244   2.533  0.00  0.00    +0.107 A 
ATOM     15  N   UNL     1       1.059  -5.192   2.605  0.00  0.00    -0.342 N 
ATOM     16  C   UNL     1       1.835  -5.491   1.560  0.00  0.00    +0.048 A 
ATOM     17  C   UNL     1       3.236  -5.435   1.659  0.00  0.00    +0.029 A 
ATOM     18  N   UNL     1      -1.196  -4.965   3.525  0.00  0.00    -0.286 N 
ATOM     19  C   UNL     1      -2.557  -5.150   3.016  0.00  0.00    +0.117 C 
ATOM     20  C   UNL     1      -2.389  -5.590   1.553  0.00  0.00    +0.058 C 
ATOM     21  H   UNL     1       1.475  -4.929   3.441  0.00  0.00    +0.167 HD
ENDBRANCH   1  18
BRANCH   4  22
ATOM     22  C   UNL     1       0.084  -3.347   8.773  0.00  0.00    +0.248 C 
ATOM     23  O   UNL     1       0.593  -2.260   8.967  0.00  0.00    -0.270 OA
ATOM     24  N   UNL     1      -0.175  -4.165   9.812  0.00  0.00    -0.279 N 
ATOM     25  H   UNL     1      -0.511  -5.061   9.652  0.00  0.00    +0.155 HD
BRANCH  24  26
ATOM     26  C   UNL     1       0.040  -3.722  11.123  0.00  0.00    +0.078 A 
ATOM     27  C   UNL     1       0.138  -2.364  11.390  0.00  0.00    +0.047 A 
ATOM     28  C   UNL     1       0.350  -1.928  12.686  0.00  0.00    +0.043 A 
ATOM     29  C   UNL     1       0.466  -2.844  13.716  0.00  0.00    +0.024 A 
ATOM     30  C   UNL     1       0.370  -4.199  13.457  0.00  0.00    +0.049 A 
ATOM     31  C   UNL     1       0.151  -4.643  12.163  0.00  0.00    +0.150 A 
ATOM     32 CL   UNL     1       0.472  -0.229  13.019  0.00  0.00    -0.083 Cl
BRANCH  31  33
ATOM     33  O   UNL     1       0.051  -5.974  11.907  0.00  0.00    -0.454 OA
BRANCH  33  34
ATOM     34  C   UNL     1       0.174  -6.835  12.951  0.00  0.00    +0.129 A 
ATOM     35  C   UNL     1      -0.933  -7.154  13.724  0.00  0.00    +0.046 A 
ATOM     36  C   UNL     1      -0.804  -8.030  14.784  0.00  0.00    +0.004 A 
ATOM     37  C   UNL     1       0.426  -8.589  15.075  0.00  0.00    +0.000 A 
ATOM     38  C   UNL     1       1.531  -8.274  14.306  0.00  0.00    +0.004 A 
ATOM     39  C   UNL     1       1.407  -7.402  13.241  0.00  0.00    +0.046 A 
ENDBRANCH  33  34
ENDBRANCH  31  33
ENDBRANCH  24  26
ENDBRANCH   4  22
TORSDOF 5
