REMARK  Name = ZINC20830477
REMARK  10 active torsions:
REMARK  status: ('A' for Active; 'I' for Inactive)
REMARK    1  A    between atoms: C_1  and  C_2
REMARK    2  A    between atoms: C_2  and  C_28
REMARK    3  A    between atoms: C_4  and  N_10
REMARK    4  A    between atoms: C_6  and  C_8
REMARK    5  A    between atoms: C_6  and  C_9
REMARK    6  A    between atoms: C_11  and  C_13
REMARK    7  A    between atoms: C_13  and  S_14
REMARK    8  A    between atoms: S_14  and  C_15
REMARK    9  A    between atoms: C_18  and  C_21
REMARK   10  A    between atoms: N_19  and  N_20
REMARK                            x       y       z     vdW  Elec       q    Type
REMARK                         _______ _______ _______ _____ _____    ______ ____
ROOT
ATOM      1  C   UNL     1       0.810   7.424  -2.193  0.00  0.00    +0.173 C 
ENDROOT
BRANCH   1   3
ATOM      2  N   UNL     1       1.564   5.445  -0.914  0.00  0.00    -0.312 N 
ATOM      3  C   UNL     1       1.090   5.948  -2.071  0.00  0.00    +0.224 C 
ATOM      4  O   UNL     1       0.889   5.213  -3.014  0.00  0.00    -0.275 OA
ATOM      5  H   UNL     1       1.746   6.112  -0.058  0.00  0.00    +0.149 HD
BRANCH   2   9
ATOM      6  C   UNL     1       0.908   1.130  -1.592  0.00  0.00    -0.010 C 
ATOM      7  C   UNL     1       0.815   1.789  -0.211  0.00  0.00    -0.072 C 
ATOM      8  C   UNL     1       0.556   3.285  -0.376  0.00  0.00    +0.009 C 
ATOM      9  C   UNL     1       1.837   4.007  -0.795  0.00  0.00    +0.070 C 
ATOM     10  C   UNL     1       2.893   3.784   0.289  0.00  0.00    +0.009 C 
ATOM     11  C   UNL     1       3.191   2.291   0.424  0.00  0.00    -0.072 C 
ATOM     12  N   UNL     1       1.988   1.500   0.588  0.00  0.00    +0.386 N 
ATOM     13  C   UNL     1       4.065   2.105   1.684  0.00  0.00    -0.010 C 
ATOM     14  C   UNL     1       4.015   1.817  -0.777  0.00  0.00    -0.010 C 
ATOM     15  C   UNL     1      -0.414   1.182   0.502  0.00  0.00    -0.010 C 
ATOM     16  H   UNL     1       1.742   1.608   1.654  0.00  0.00    -0.084 HD
ATOM     17  H   UNL     1       2.320   0.469   0.391  0.00  0.00    -0.084 HD
ENDBRANCH   2   9
ENDBRANCH   1   3
BRANCH   1  18
ATOM     18  S   UNL     1       0.189   7.785  -3.854  0.00  0.00    -0.075 S 
BRANCH  18  19
ATOM     19  C   UNL     1      -0.048   9.526  -3.720  0.00  0.00    +0.209 A 
ATOM     20  N   UNL     1       0.187  10.265  -2.659  0.00  0.00    -0.121 NA
ATOM     21  N   UNL     1      -0.091  11.495  -2.908  0.00  0.00    -0.127 NA
ATOM     22  C   UNL     1      -0.528  11.615  -4.140  0.00  0.00    +0.182 A 
ATOM     23  N   UNL     1      -0.514  10.358  -4.698  0.00  0.00    -0.224 N 
BRANCH  22  24
ATOM     24  C   UNL     1      -0.955  12.866  -4.803  0.00  0.00    +0.021 A 
ATOM     25  C   UNL     1      -0.598  14.102  -4.262  0.00  0.00    +0.013 A 
ATOM     26  C   UNL     1      -0.996  15.266  -4.888  0.00  0.00    +0.016 A 
ATOM     27  C   UNL     1      -1.755  15.209  -6.044  0.00  0.00    +0.018 A 
ATOM     28  C   UNL     1      -2.116  13.985  -6.582  0.00  0.00    +0.016 A 
ATOM     29  C   UNL     1      -1.721  12.815  -5.969  0.00  0.00    +0.013 A 
ATOM     30 BR   UNL     1      -2.303  16.808  -6.891  0.00  0.00    -0.050 Br
ENDBRANCH  22  24
BRANCH  23  31
ATOM     31  N   UNL     1      -0.888  10.013  -5.966  0.00  0.00    -0.295 N 
ATOM     32  H   UNL     1      -1.248  10.785  -6.662  0.00  0.00    +0.163 HD
ATOM     33  H   UNL     1      -0.828   8.964  -6.290  0.00  0.00    +0.163 HD
ENDBRANCH  23  31
ENDBRANCH  18  19
ENDBRANCH   1  18
TORSDOF 6
