REMARK  Name = ZINC39364805
REMARK  8 active torsions:
REMARK  status: ('A' for Active; 'I' for Inactive)
REMARK    1  A    between atoms: C_1  and  C_2
REMARK    2  A    between atoms: C_4  and  C_8
REMARK    3  A    between atoms: C_8  and  C_9
REMARK    4  A    between atoms: C_9  and  N_10
REMARK    5  A    between atoms: N_10  and  C_11
REMARK    6  A    between atoms: C_11  and  C_12
REMARK    7  A    between atoms: N_15  and  C_26
REMARK    8  A    between atoms: C_17  and  C_19
REMARK                            x       y       z     vdW  Elec       q    Type
REMARK                         _______ _______ _______ _____ _____    ______ ____
ROOT
ATOM      1  C   UNL     1      -1.407  -7.232  -3.852  0.00  0.00    +0.014 C 
ATOM      2  C   UNL     1      -0.599  -6.795  -5.097  0.00  0.00    +0.127 C 
ATOM      3  N   UNL     1      -0.099  -8.042  -5.696  0.00  0.00    -0.266 N 
ATOM      4  N   UNL     1      -0.575  -9.119  -4.994  0.00  0.00    -0.232 NA
ATOM      5  C   UNL     1      -0.838  -8.656  -3.607  0.00  0.00    +0.107 C 
ATOM      6  H   UNL     1       0.089  -9.879  -5.002  0.00  0.00    +0.145 HD
ENDROOT
BRANCH   5   7
ATOM      7  C   UNL     1      -1.857  -9.534  -2.928  0.00  0.00    -0.010 A 
ATOM      8  C   UNL     1      -1.707  -9.861  -1.593  0.00  0.00    +0.006 A 
ATOM      9  C   UNL     1      -2.641 -10.666  -0.969  0.00  0.00    +0.000 A 
ATOM     10  C   UNL     1      -3.725 -11.146  -1.681  0.00  0.00    +0.001 A 
ATOM     11  C   UNL     1      -3.876 -10.821  -3.015  0.00  0.00    +0.020 A 
ATOM     12  C   UNL     1      -2.944 -10.009  -3.638  0.00  0.00    +0.046 A 
ATOM     13 CL   UNL     1      -3.136  -9.595  -5.313  0.00  0.00    -0.083 Cl
ENDBRANCH   5   7
BRANCH   3  14
ATOM     14  C   UNL     1       0.737  -8.118  -6.815  0.00  0.00    +0.045 A 
ATOM     15  C   UNL     1       1.163  -6.956  -7.444  0.00  0.00    +0.027 A 
ATOM     16  C   UNL     1       1.989  -7.033  -8.549  0.00  0.00    +0.040 A 
ATOM     17  C   UNL     1       2.393  -8.268  -9.028  0.00  0.00    +0.124 A 
ATOM     18  C   UNL     1       1.970  -9.428  -8.401  0.00  0.00    +0.040 A 
ATOM     19  C   UNL     1       1.148  -9.355  -7.294  0.00  0.00    +0.027 A 
ATOM     20  F   UNL     1       3.200  -8.341 -10.108  0.00  0.00    -0.205 F 
ENDBRANCH   3  14
BRANCH   1  21
ATOM     21  C   UNL     1      -1.123  -6.313  -2.661  0.00  0.00    -0.076 C 
BRANCH  21  22
ATOM     22  N   UNL     1      -1.769  -5.012  -2.882  0.00  0.00    +0.379 N 
ATOM     23  H   UNL     1      -2.765  -5.143  -2.976  0.00  0.00    -0.086 HD
ATOM     24  H   UNL     1      -1.403  -4.594  -3.724  0.00  0.00    -0.086 HD
BRANCH  22  25
ATOM     25  C   UNL     1      -1.496  -4.131  -1.739  0.00  0.00    -0.079 C 
BRANCH  25  26
ATOM     26  C   UNL     1      -2.168  -2.776  -1.968  0.00  0.00    +0.031 C 
BRANCH  26  30
ATOM     27  C   UNL     1      -2.064   1.819  -1.119  0.00  0.00    +0.067 C 
ATOM     28  C   UNL     1      -1.746   0.354  -0.971  0.00  0.00    +0.053 C 
ATOM     29  N   UNL     1      -2.620  -0.595  -0.926  0.00  0.00    -0.261 NA
ATOM     30  C   UNL     1      -1.884  -1.857  -0.778  0.00  0.00    +0.219 C 
ATOM     31  N   UNL     1      -0.462  -1.495  -0.745  0.00  0.00    -0.264 NA
ATOM     32  C   UNL     1      -0.392  -0.211  -0.864  0.00  0.00    +0.130 C 
ENDBRANCH  26  30
ENDBRANCH  25  26
ENDBRANCH  22  25
ENDBRANCH  21  22
ENDBRANCH   1  21
TORSDOF 7
