REMARK  Name = ZINC43287212
REMARK  9 active torsions:
REMARK  status: ('A' for Active; 'I' for Inactive)
REMARK    1  A    between atoms: C_1  and  C_2
REMARK    2  A    between atoms: C_2  and  C_3
REMARK    3  A    between atoms: C_3  and  C_5
REMARK    4  A    between atoms: C_3  and  N_23
REMARK    5  A    between atoms: C_5  and  C_7
REMARK    6  A    between atoms: C_5  and  N_13
REMARK    7  A    between atoms: C_17  and  O_20
REMARK    8  A    between atoms: O_20  and  C_21
REMARK    9  A    between atoms: C_21  and  C_22
REMARK                            x       y       z     vdW  Elec       q    Type
REMARK                         _______ _______ _______ _____ _____    ______ ____
ROOT
ATOM      1  C   UNL     1      -1.413  -2.059   0.130  0.00  0.00    -0.014 C 
ENDROOT
BRANCH   1   2
ATOM      2  N   UNL     1      -0.636  -2.449   1.314  0.00  0.00    +0.387 N 
ATOM      3  C   UNL     1      -0.610  -3.913   1.421  0.00  0.00    -0.078 C 
ATOM      4  C   UNL     1       0.265  -4.326   2.606  0.00  0.00    -0.016 C 
ATOM      5  C   UNL     1      -0.312  -3.730   3.892  0.00  0.00    +0.028 C 
ATOM      6  C   UNL     1      -0.404  -2.208   3.742  0.00  0.00    +0.102 C 
ATOM      7  C   UNL     1      -1.254  -1.873   2.515  0.00  0.00    -0.046 C 
ATOM      8  H   UNL     1       0.308  -2.103   1.225  0.00  0.00    -0.081 HD
BRANCH   6   9
ATOM      9  O   UNL     1      -1.008  -1.649   4.910  0.00  0.00    -0.379 OA
BRANCH   9  10
ATOM     10  C   UNL     1      -0.076  -1.296   5.934  0.00  0.00    +0.157 C 
ATOM     11  C   UNL     1      -0.830  -0.710   7.129  0.00  0.00    +0.034 C 
ENDBRANCH   9  10
ENDBRANCH   6   9
ENDBRANCH   1   2
BRANCH   1  12
ATOM     12  C   UNL     1      -0.780  -2.649  -1.103  0.00  0.00    -0.021 A 
ATOM     13  C   UNL     1      -1.376  -3.194  -2.192  0.00  0.00    +0.025 A 
ATOM     14  C   UNL     1      -0.586  -3.680  -3.217  0.00  0.00    +0.025 A 
ATOM     15  C   UNL     1       0.763  -3.596  -3.103  0.00  0.00    +0.060 A 
ATOM     16  S   UNL     1       0.951  -2.806  -1.513  0.00  0.00    -0.102 S 
ATOM     17 BR   UNL     1      -1.373  -4.449  -4.755  0.00  0.00    -0.050 Br
ENDBRANCH   1  12
BRANCH   1  18
ATOM     18  C   UNL     1      -1.433  -0.534   0.013  0.00  0.00    +0.042 C 
BRANCH  18  19
ATOM     19  N   UNL     1      -2.107  -0.147  -1.234  0.00  0.00    -0.328 NA
ATOM     20  H   UNL     1      -1.628  -0.527  -2.037  0.00  0.00    +0.118 HD
ATOM     21  H   UNL     1      -3.076  -0.429  -1.224  0.00  0.00    +0.118 HD
ENDBRANCH  18  19
BRANCH  18  23
ATOM     22  C   UNL     1      -0.019   1.526   0.010  0.00  0.00    +0.005 C 
ATOM     23  C   UNL     1       0.002  -0.004   0.002  0.00  0.00    +0.014 C 
ENDBRANCH  18  23
ENDBRANCH   1  18
TORSDOF 7
