REMARK  Name = ZINC09361122
REMARK  6 active torsions:
REMARK  status: ('A' for Active; 'I' for Inactive)
REMARK    1  A    between atoms: C_1  and  C_2
REMARK    2  A    between atoms: C_4  and  C_38
REMARK    3  A    between atoms: C_9  and  C_27
REMARK    4  A    between atoms: C_11  and  C_18
REMARK    5  A    between atoms: C_21  and  N_24
REMARK    6  A    between atoms: C_27  and  C_29
REMARK                            x       y       z     vdW  Elec       q    Type
REMARK                         _______ _______ _______ _____ _____    ______ ____
ROOT
ATOM      1  C   UNL     1      -1.174  -4.471  -3.044  0.00  0.00    +0.044 C 
ATOM      2  C   UNL     1       0.011  -4.137  -2.175  0.00  0.00    -0.050 A 
ATOM      3  C   UNL     1       1.160  -4.903  -2.247  0.00  0.00    +0.008 A 
ATOM      4  C   UNL     1       2.248  -4.604  -1.453  0.00  0.00    -0.029 A 
ATOM      5  C   UNL     1       2.197  -3.525  -0.573  0.00  0.00    +0.039 A 
ATOM      6  C   UNL     1       1.035  -2.761  -0.510  0.00  0.00    -0.027 A 
ATOM      7  C   UNL     1      -0.048  -3.064  -1.303  0.00  0.00    +0.008 A 
ATOM      8  C   UNL     1       1.298  -1.693   0.516  0.00  0.00    +0.052 C 
ATOM      9  C   UNL     1       0.296  -1.772   1.672  0.00  0.00    +0.069 C 
ATOM     10  C   UNL     1      -0.699  -0.619   1.427  0.00  0.00    +0.016 C 
ATOM     11  C   UNL     1      -0.229   0.055   0.126  0.00  0.00    -0.047 C 
ATOM     12  C   UNL     1       2.127   0.576   0.613  0.00  0.00    -0.005 C 
ATOM     13  S   UNL     1       1.312   2.191   0.237  0.00  0.00    -0.181 S 
ATOM     14  C   UNL     1      -0.428   1.581   0.243  0.00  0.00    +0.052 C 
ATOM     15  C   UNL     1       2.702  -1.954   0.995  0.00  0.00    +0.212 C 
ATOM     16  O   UNL     1       3.312  -1.318   1.829  0.00  0.00    -0.277 OA
ATOM     17  N   UNL     1       3.150  -3.028   0.318  0.00  0.00    -0.286 N 
ATOM     18  C   UNL     1       3.495  -5.445  -1.538  0.00  0.00    +0.045 C 
ATOM     19  H   UNL     1       4.033  -3.413   0.436  0.00  0.00    +0.155 HD
ATOM     20  N   UNL     1       1.166  -0.368  -0.066  0.00  0.00    +0.401 N 
ATOM     21  H   UNL     1       1.380  -0.402  -1.069  0.00  0.00    -0.078 HD
ENDROOT
BRANCH  10  22
ATOM     22  C   UNL     1      -2.095  -1.160   1.260  0.00  0.00    -0.045 A 
ATOM     23  C   UNL     1      -3.182  -0.404   1.658  0.00  0.00    +0.006 A 
ATOM     24  C   UNL     1      -4.463  -0.898   1.500  0.00  0.00    +0.033 A 
ATOM     25  C   UNL     1      -4.657  -2.153   0.954  0.00  0.00    +0.126 A 
ATOM     26  C   UNL     1      -3.570  -2.912   0.562  0.00  0.00    +0.033 A 
ATOM     27  C   UNL     1      -2.289  -2.415   0.715  0.00  0.00    +0.006 A 
BRANCH  25  28
ATOM     28  N   UNL     1      -6.029  -2.685   0.790  0.00  0.00    +0.056 N 
ATOM     29  O   UNL     1      -6.200  -3.791   0.309  0.00  0.00    -0.126 OA
ATOM     30  O   UNL     1      -6.987  -2.017   1.135  0.00  0.00    -0.126 OA
ENDBRANCH  25  28
ENDBRANCH  10  22
BRANCH   9  31
ATOM     31  C   UNL     1       1.000  -1.584   2.990  0.00  0.00    +0.166 C 
ATOM     32  O   UNL     1       1.155  -0.469   3.441  0.00  0.00    -0.292 OA
BRANCH  31  33
ATOM     33  C   UNL     1       1.501  -2.753   3.731  0.00  0.00    +0.018 A 
ATOM     34  C   UNL     1       1.319  -4.041   3.217  0.00  0.00    +0.011 A 
ATOM     35  C   UNL     1       1.796  -5.131   3.914  0.00  0.00    +0.001 A 
ATOM     36  C   UNL     1       2.442  -4.954   5.125  0.00  0.00    +0.000 A 
ATOM     37  C   UNL     1       2.621  -3.683   5.643  0.00  0.00    +0.001 A 
ATOM     38  C   UNL     1       2.155  -2.583   4.955  0.00  0.00    +0.011 A 
ENDBRANCH  31  33
ENDBRANCH   9  31
TORSDOF 4
