REMARK  Name = ZINC58011426
REMARK  14 active torsions:
REMARK  status: ('A' for Active; 'I' for Inactive)
REMARK    1  A    between atoms: C_1  and  C_2
REMARK    2  A    between atoms: C_2  and  C_3
REMARK    3  A    between atoms: C_3  and  C_4
REMARK    4  A    between atoms: C_4  and  N_5
REMARK    5  A    between atoms: N_5  and  C_6
REMARK    6  A    between atoms: C_7  and  N_18
REMARK    7  A    between atoms: N_8  and  C_15
REMARK    8  A    between atoms: C_15  and  C_16
REMARK    9  A    between atoms: C_16  and  C_17
REMARK   10  A    between atoms: C_19  and  C_21
REMARK   11  A    between atoms: C_21  and  N_22
REMARK   12  A    between atoms: N_22  and  C_23
REMARK   13  A    between atoms: C_23  and  C_29
REMARK   14  A    between atoms: C_31  and  C_34
REMARK                            x       y       z     vdW  Elec       q    Type
REMARK                         _______ _______ _______ _____ _____    ______ ____
ROOT
ATOM      1  N   UNL     1       1.469  -2.527   2.414  0.00  0.00    -0.266 N 
ATOM      2  C   UNL     1       2.775  -2.831   2.256  0.00  0.00    +0.203 C 
ATOM      3  O   UNL     1       3.395  -3.334   3.170  0.00  0.00    -0.277 OA
ENDROOT
BRANCH   1   4
ATOM      4  C   UNL     1       0.854  -2.691   3.673  0.00  0.00    +0.140 A 
ATOM      5  C   UNL     1      -0.141  -3.630   3.851  0.00  0.00    +0.127 A 
ATOM      6  N   UNL     1      -0.722  -3.766   5.090  0.00  0.00    -0.280 N 
ATOM      7  C   UNL     1      -0.325  -2.993   6.117  0.00  0.00    +0.331 A 
ATOM      8  O   UNL     1      -0.852  -3.128   7.205  0.00  0.00    -0.246 OA
ATOM      9  N   UNL     1       0.643  -2.072   5.962  0.00  0.00    -0.273 N 
ATOM     10  H   UNL     1       0.911  -1.527   6.718  0.00  0.00    +0.173 HD
ATOM     11  C   UNL     1       1.248  -1.903   4.770  0.00  0.00    +0.277 A 
ATOM     12  O   UNL     1       2.129  -1.069   4.642  0.00  0.00    -0.266 OA
BRANCH   5  13
ATOM     13  N   UNL     1      -0.547  -4.420   2.802  0.00  0.00    -0.343 N 
ATOM     14  H   UNL     1      -0.186  -4.271   1.914  0.00  0.00    +0.144 HD
ATOM     15  H   UNL     1      -1.196  -5.127   2.950  0.00  0.00    +0.144 HD
ENDBRANCH   5  13
BRANCH   6  16
ATOM     16  C   UNL     1      -1.780  -4.759   5.293  0.00  0.00    +0.128 C 
BRANCH  16  17
ATOM     17  C   UNL     1      -1.156  -6.089   5.721  0.00  0.00    +0.018 C 
ATOM     18  C   UNL     1      -2.260  -7.126   5.934  0.00  0.00    +0.005 C 
ENDBRANCH  16  17
ENDBRANCH   6  16
ENDBRANCH   1   4
BRANCH   1  19
ATOM     19  C   UNL     1       0.691  -2.028   1.277  0.00  0.00    +0.114 C 
BRANCH  19  20
ATOM     20  C   UNL     1       0.675  -0.498   1.303  0.00  0.00    +0.019 C 
BRANCH  20  22
ATOM     21  C   UNL     1      -0.154   1.552   0.142  0.00  0.00    +0.004 C 
ATOM     22  C   UNL     1      -0.138   0.023   0.116  0.00  0.00    -0.002 C 
ENDBRANCH  20  22
ENDBRANCH  19  20
ENDBRANCH   1  19
BRANCH   2  23
ATOM     23  C   UNL     1       3.462  -2.544   0.946  0.00  0.00    +0.017 C 
BRANCH  23  24
ATOM     24  N   UNL     1       4.868  -2.963   1.029  0.00  0.00    +0.393 N 
ATOM     25  H   UNL     1       5.327  -2.453   1.768  0.00  0.00    -0.084 HD
ATOM     26  H   UNL     1       4.913  -3.952   1.224  0.00  0.00    -0.084 HD
BRANCH  24  27
ATOM     27  C   UNL     1       5.538  -2.684  -0.248  0.00  0.00    -0.003 C 
ATOM     28  C   UNL     1       4.841  -3.457  -1.369  0.00  0.00    -0.005 C 
ATOM     29  C   UNL     1       4.910  -4.957  -1.074  0.00  0.00    -0.001 C 
ATOM     30  C   UNL     1       6.374  -5.392  -0.988  0.00  0.00    -0.000 C 
ATOM     31  C   UNL     1       7.071  -4.619   0.133  0.00  0.00    -0.001 C 
ATOM     32  C   UNL     1       7.002  -3.119  -0.162  0.00  0.00    -0.005 C 
BRANCH  27  33
ATOM     33  C   UNL     1       5.469  -1.206  -0.539  0.00  0.00    +0.161 A 
ATOM     34  N   UNL     1       4.351  -0.473  -0.582  0.00  0.00    -0.198 NA
ATOM     35  C   UNL     1       4.641   0.768  -0.859  0.00  0.00    +0.224 A 
ATOM     36  O   UNL     1       5.968   0.867  -1.003  0.00  0.00    -0.338 OA
ATOM     37  N   UNL     1       6.489  -0.435  -0.784  0.00  0.00    -0.063 NA
ATOM     38  C   UNL     1       3.651   1.897  -0.993  0.00  0.00    +0.112 C 
ENDBRANCH  27  33
ENDBRANCH  24  27
ENDBRANCH  23  24
ENDBRANCH   2  23
TORSDOF 11
