REMARK  Name = ZINC59404975
REMARK  11 active torsions:
REMARK  status: ('A' for Active; 'I' for Inactive)
REMARK    1  A    between atoms: C_1  and  C_2
REMARK    2  A    between atoms: C_2  and  C_3
REMARK    3  A    between atoms: C_3  and  N_4
REMARK    4  A    between atoms: N_4  and  C_5
REMARK    5  A    between atoms: N_4  and  C_19
REMARK    6  A    between atoms: C_5  and  C_6
REMARK    7  A    between atoms: N_8  and  C_9
REMARK    8  A    between atoms: C_12  and  S_15
REMARK    9  A    between atoms: S_15  and  C_18
REMARK   10  A    between atoms: C_19  and  C_21
REMARK   11  A    between atoms: C_19  and  C_22
REMARK                            x       y       z     vdW  Elec       q    Type
REMARK                         _______ _______ _______ _____ _____    ______ ____
ROOT
ATOM      1  N   UNL     1       0.706  -1.918  -1.127  0.00  0.00    +0.390 N 
ATOM      2  H   UNL     1       1.042  -2.241  -0.232  0.00  0.00    -0.080 HD
ENDROOT
BRANCH   1   3
ATOM      3  C   UNL     1      -0.686  -2.350  -1.313  0.00  0.00    -0.040 C 
ATOM      4  C   UNL     1      -1.576  -1.664  -0.274  0.00  0.00    -0.008 C 
BRANCH   3   5
ATOM      5  C   UNL     1      -0.775  -3.844  -1.143  0.00  0.00    -0.060 A 
ATOM      6  C   UNL     1      -0.047  -4.471  -0.148  0.00  0.00    +0.003 A 
ATOM      7  C   UNL     1      -0.128  -5.842   0.008  0.00  0.00    +0.021 A 
ATOM      8  C   UNL     1      -0.937  -6.588  -0.830  0.00  0.00    +0.059 A 
ATOM      9  C   UNL     1      -1.667  -5.960  -1.825  0.00  0.00    +0.059 A 
ATOM     10  C   UNL     1      -1.589  -4.587  -1.977  0.00  0.00    +0.023 A 
ATOM     11 CL   UNL     1      -2.683  -6.894  -2.878  0.00  0.00    -0.082 Cl
ATOM     12 CL   UNL     1      -1.039  -8.310  -0.634  0.00  0.00    -0.082 Cl
ENDBRANCH   3   5
ENDBRANCH   1   3
BRANCH   1  13
ATOM     13  C   UNL     1       0.774  -0.451  -1.174  0.00  0.00    -0.078 C 
BRANCH  13  15
ATOM     14  C   UNL     1       0.116   1.576  -2.479  0.00  0.00    +0.002 C 
ATOM     15  C   UNL     1       0.154   0.046  -2.482  0.00  0.00    -0.022 C 
ENDBRANCH  13  15
ENDBRANCH   1  13
BRANCH   1  16
ATOM     16  C   UNL     1       1.541  -2.482  -2.196  0.00  0.00    +0.020 C 
BRANCH  16  17
ATOM     17  C   UNL     1       2.986  -2.141  -1.938  0.00  0.00    +0.201 C 
ATOM     18  O   UNL     1       3.290  -1.493  -0.959  0.00  0.00    -0.278 OA
ATOM     19  N   UNL     1       3.940  -2.557  -2.794  0.00  0.00    -0.287 N 
ATOM     20  H   UNL     1       3.705  -3.131  -3.540  0.00  0.00    +0.155 HD
BRANCH  19  21
ATOM     21  C   UNL     1       5.269  -2.163  -2.606  0.00  0.00    +0.033 A 
ATOM     22  C   UNL     1       6.082  -1.914  -3.704  0.00  0.00    +0.025 A 
ATOM     23  C   UNL     1       7.394  -1.524  -3.515  0.00  0.00    +0.029 A 
ATOM     24  C   UNL     1       7.897  -1.382  -2.235  0.00  0.00    +0.088 A 
ATOM     25  C   UNL     1       7.090  -1.629  -1.140  0.00  0.00    +0.029 A 
ATOM     26  C   UNL     1       5.776  -2.013  -1.322  0.00  0.00    +0.025 A 
BRANCH  24  27
ATOM     27  S   UNL     1       9.571  -0.885  -1.998  0.00  0.00    -0.006 S 
ATOM     28  O   UNL     1       9.931  -1.415  -0.730  0.00  0.00    -0.170 OA
ATOM     29  O   UNL     1      10.244  -1.307  -3.177  0.00  0.00    -0.170 OA
ATOM     30  C   UNL     1       9.514   0.926  -1.926  0.00  0.00    +0.200 C 
ENDBRANCH  24  27
ENDBRANCH  19  21
ENDBRANCH  16  17
ENDBRANCH   1  16
TORSDOF 8
