REMARK  Name = ZINC10752073
REMARK  5 active torsions:
REMARK  status: ('A' for Active; 'I' for Inactive)
REMARK    1  A    between atoms: C_3  and  S_6
REMARK    2  A    between atoms: S_6  and  N_9
REMARK    3  A    between atoms: C_13  and  C_16
REMARK    4  A    between atoms: C_24  and  S_28
REMARK    5  A    between atoms: S_28  and  N_31
REMARK                            x       y       z     vdW  Elec       q    Type
REMARK                         _______ _______ _______ _____ _____    ______ ____
ROOT
ATOM      1  C   UNL     1      -1.083   6.259   4.446  0.00  0.00    +0.223 C 
ATOM      2  O   UNL     1      -1.188   7.396   4.039  0.00  0.00    -0.275 OA
ATOM      3  N   UNL     1      -0.475   6.018   5.625  0.00  0.00    -0.264 N 
ATOM      4  C   UNL     1       0.031   7.070   6.371  0.00  0.00    +0.165 A 
ATOM      5  N   UNL     1       0.014   8.354   6.101  0.00  0.00    -0.225 NA
ATOM      6  C   UNL     1       0.550   9.277   6.928  0.00  0.00    +0.080 A 
ATOM      7  C   UNL     1       0.599  10.680   6.756  0.00  0.00    +0.031 A 
ATOM      8  C   UNL     1       1.186  11.481   7.700  0.00  0.00    +0.030 A 
ATOM      9  C   UNL     1       1.751  10.950   8.851  0.00  0.00    +0.106 A 
ATOM     10  C   UNL     1       1.722   9.583   9.052  0.00  0.00    +0.045 A 
ATOM     11  C   UNL     1       1.135   8.773   8.111  0.00  0.00    +0.043 A 
ATOM     12  S   UNL     1       0.865   7.024   7.951  0.00  0.00    -0.052 S 
ATOM     13  H   UNL     1      -0.392   5.108   5.950  0.00  0.00    +0.157 HD
ENDROOT
BRANCH   1  18
ATOM     14  N   UNL     1      -2.913   4.548   1.635  0.00  0.00    -0.175 NA
ATOM     15  C   UNL     1      -3.889   3.717   2.353  0.00  0.00    +0.109 C 
ATOM     16  C   UNL     1      -3.233   3.192   3.639  0.00  0.00    +0.018 C 
ATOM     17  C   UNL     1      -2.696   4.374   4.450  0.00  0.00    +0.015 C 
ATOM     18  C   UNL     1      -1.634   5.115   3.635  0.00  0.00    +0.091 C 
ATOM     19  C   UNL     1      -2.268   5.658   2.350  0.00  0.00    +0.122 C 
BRANCH  14  20
ATOM     20  S   UNL     1      -2.551   4.243   0.049  0.00  0.00    +0.067 S 
ATOM     21  O   UNL     1      -2.072   5.463  -0.500  0.00  0.00    -0.152 OA
ATOM     22  O   UNL     1      -3.664   3.547  -0.496  0.00  0.00    -0.152 OA
BRANCH  20  25
ATOM     23  C   UNL     1      -0.013   1.076   0.008  0.00  0.00    +0.010 A 
ATOM     24  C   UNL     1      -1.213   1.761   0.017  0.00  0.00    +0.036 A 
ATOM     25  C   UNL     1      -1.196   3.116   0.030  0.00  0.00    +0.143 A 
ATOM     26  S   UNL     1       0.555   3.464   0.015  0.00  0.00    -0.077 S 
ATOM     27  C   UNL     1       1.146   1.780   0.001  0.00  0.00    +0.047 A 
ENDBRANCH  20  25
ENDBRANCH  14  20
ENDBRANCH   1  18
BRANCH   9  28
ATOM     28  S   UNL     1       2.498  12.009  10.046  0.00  0.00    +0.056 S 
ATOM     29  O   UNL     1       1.908  13.291   9.877  0.00  0.00    -0.153 OA
ATOM     30  O   UNL     1       2.464  11.312  11.283  0.00  0.00    -0.153 OA
BRANCH  28  31
ATOM     31  N   UNL     1       4.094  12.164   9.633  0.00  0.00    -0.204 NA
ATOM     32  H   UNL     1       4.573  12.980   9.847  0.00  0.00    +0.144 HD
ATOM     33  H   UNL     1       4.550  11.439   9.176  0.00  0.00    +0.144 HD
ENDBRANCH  28  31
ENDBRANCH   9  28
TORSDOF 5
