REMARK  Name = ZINC01504471
REMARK  5 active torsions:
REMARK  status: ('A' for Active; 'I' for Inactive)
REMARK    1  A    between atoms: C_1  and  O_2
REMARK    2  A    between atoms: O_2  and  C_3
REMARK    3  A    between atoms: C_8  and  C_9
REMARK    4  A    between atoms: C_12  and  C_14
REMARK    5  A    between atoms: C_19  and  O_25
REMARK                            x       y       z     vdW  Elec       q    Type
REMARK                         _______ _______ _______ _____ _____    ______ ____
ROOT
ATOM      1  C   UNL     1      -1.770  -2.525   3.165  0.00  0.00    +0.067 A 
ATOM      2  C   UNL     1      -2.269  -3.424   4.079  0.00  0.00    +0.027 A 
ATOM      3  C   UNL     1      -2.947  -2.883   5.259  0.00  0.00    +0.018 A 
ATOM      4  C   UNL     1      -3.242  -3.705   6.354  0.00  0.00    +0.015 A 
ATOM      5  C   UNL     1      -3.872  -3.181   7.446  0.00  0.00    +0.046 A 
ATOM      6  C   UNL     1      -4.224  -1.834   7.480  0.00  0.00    +0.120 A 
ATOM      7  C   UNL     1      -3.941  -1.006   6.404  0.00  0.00    +0.092 A 
ATOM      8  C   UNL     1      -3.304  -1.522   5.289  0.00  0.00    +0.141 A 
ATOM      9  O   UNL     1      -3.024  -0.729   4.224  0.00  0.00    -0.439 OA
ATOM     10  C   UNL     1      -1.958  -1.087   3.458  0.00  0.00    +0.202 A 
ATOM     11  N   UNL     1      -1.130  -0.191   2.991  0.00  0.00    -0.369 N 
ATOM     12  H   UNL     1      -0.378  -0.465   2.444  0.00  0.00    +0.159 HD
ATOM     13  H   UNL     1      -1.267   0.748   3.192  0.00  0.00    +0.159 HD
ENDROOT
BRANCH   1  17
ATOM     14  C   UNL     1       0.063  -2.829  -0.054  0.00  0.00    +0.082 A 
ATOM     15  C   UNL     1       0.120  -4.197  -0.120  0.00  0.00    +0.075 A 
ATOM     16  S   UNL     1      -0.731  -4.639   1.389  0.00  0.00    -0.075 S 
ATOM     17  C   UNL     1      -1.072  -2.976   1.947  0.00  0.00    +0.114 A 
ATOM     18  N   UNL     1      -0.526  -2.255   0.978  0.00  0.00    -0.239 NA
BRANCH  14  24
ATOM     19  C   UNL     1       0.606  -0.607  -1.056  0.00  0.00    +0.129 A 
ATOM     20  C   UNL     1       1.173   0.159  -2.061  0.00  0.00    +0.048 A 
ATOM     21  C   UNL     1       1.787  -0.455  -3.137  0.00  0.00    +0.023 A 
ATOM     22  C   UNL     1       1.840  -1.837  -3.216  0.00  0.00    +0.042 A 
ATOM     23  C   UNL     1       1.278  -2.612  -2.220  0.00  0.00    +0.033 A 
ATOM     24  C   UNL     1       0.662  -2.002  -1.129  0.00  0.00    +0.044 A 
ATOM     25 CL   UNL     1       2.613  -2.597  -4.571  0.00  0.00    -0.084 Cl
BRANCH  19  27
ATOM     26  C   UNL     1      -0.017   1.425   0.010  0.00  0.00    +0.277 C 
ATOM     27  O   UNL     1       0.002  -0.004   0.002  0.00  0.00    -0.494 OA
ENDBRANCH  19  27
ENDBRANCH  14  24
ENDBRANCH   1  17
BRANCH   6  28
ATOM     28  O   UNL     1      -4.849  -1.328   8.574  0.00  0.00    -0.507 OA
ATOM     29  H   UNL     1      -4.246  -0.986   9.248  0.00  0.00    +0.292 HD
ENDBRANCH   6  28
TORSDOF 4
