REMARK  Name = ZINC07588222
REMARK  6 active torsions:
REMARK  status: ('A' for Active; 'I' for Inactive)
REMARK    1  A    between atoms: C_4  and  S_23
REMARK    2  A    between atoms: C_5  and  N_7
REMARK    3  A    between atoms: C_8  and  C_10
REMARK    4  A    between atoms: C_10  and  N_11
REMARK    5  A    between atoms: S_23  and  C_24
REMARK    6  A    between atoms: C_24  and  C_25
REMARK                            x       y       z     vdW  Elec       q    Type
REMARK                         _______ _______ _______ _____ _____    ______ ____
ROOT
ATOM      1  N   UNL     1       1.233  -2.082  -0.021  0.00  0.00    -0.286 N 
ATOM      2  C   UNL     1       0.082  -2.774   0.088  0.00  0.00    +0.201 C 
ATOM      3  O   UNL     1      -0.980  -2.187   0.102  0.00  0.00    -0.278 OA
ATOM      4  H   UNL     1       2.077  -2.554  -0.097  0.00  0.00    +0.155 HD
ENDROOT
BRANCH   1   9
ATOM      5  C   UNL     1       0.135   1.379  -0.616  0.00  0.00    +0.002 A 
ATOM      6  C   UNL     1       1.166   2.090  -0.031  0.00  0.00    +0.001 A 
ATOM      7  C   UNL     1       2.223   1.424   0.559  0.00  0.00    +0.016 A 
ATOM      8  C   UNL     1       2.252   0.037   0.566  0.00  0.00    +0.030 A 
ATOM      9  C   UNL     1       1.211  -0.681  -0.024  0.00  0.00    +0.047 A 
ATOM     10  C   UNL     1       0.155  -0.004  -0.614  0.00  0.00    +0.024 A 
BRANCH   8  11
ATOM     11  S   UNL     1       3.599  -0.816   1.317  0.00  0.00    -0.114 S 
BRANCH  11  12
ATOM     12  C   UNL     1       4.672   0.512   1.928  0.00  0.00    +0.169 C 
BRANCH  12  13
ATOM     13  C   UNL     1       5.879  -0.088   2.602  0.00  0.00    +0.221 C 
ATOM     14  O   UNL     1       6.003  -1.293   2.664  0.00  0.00    -0.275 OA
ATOM     15  N   UNL     1       6.821   0.715   3.137  0.00  0.00    -0.329 N 
ATOM     16  H   UNL     1       6.722   1.678   3.087  0.00  0.00    +0.145 HD
ATOM     17  H   UNL     1       7.598   0.328   3.571  0.00  0.00    +0.145 HD
ENDBRANCH  12  13
ENDBRANCH  11  12
ENDBRANCH   8  11
ENDBRANCH   1   9
BRANCH   2  18
ATOM     18  C   UNL     1       0.113  -4.277   0.194  0.00  0.00    +0.019 C 
BRANCH  18  19
ATOM     19  N   UNL     1      -1.259  -4.789   0.302  0.00  0.00    +0.387 N 
ATOM     20  C   UNL     1      -1.859  -4.316   1.555  0.00  0.00    -0.078 C 
ATOM     21  C   UNL     1      -3.315  -4.779   1.636  0.00  0.00    -0.018 C 
ATOM     22  C   UNL     1      -3.362  -6.310   1.591  0.00  0.00    +0.000 C 
ATOM     23  C   UNL     1      -2.668  -6.794   0.315  0.00  0.00    -0.025 C 
ATOM     24  C   UNL     1      -1.236  -6.257   0.284  0.00  0.00    -0.065 C 
ATOM     25  C   UNL     1      -0.471  -6.771   1.506  0.00  0.00    -0.015 C 
ATOM     26  C   UNL     1      -0.444  -8.300   1.485  0.00  0.00    -0.002 C 
ATOM     27  C   UNL     1      -1.877  -8.835   1.519  0.00  0.00    +0.000 C 
ATOM     28  C   UNL     1      -2.644  -8.323   0.296  0.00  0.00    +0.002 C 
ATOM     29  H   UNL     1      -1.805  -4.453  -0.477  0.00  0.00    -0.081 HD
ENDBRANCH  18  19
ENDBRANCH   2  18
TORSDOF 6
