REMARK  Name = ZINC20445617
REMARK  6 active torsions:
REMARK  status: ('A' for Active; 'I' for Inactive)
REMARK    1  A    between atoms: C_4  and  C_7
REMARK    2  A    between atoms: C_7  and  N_8
REMARK    3  A    between atoms: N_11  and  C_14
REMARK    4  A    between atoms: C_14  and  C_15
REMARK    5  A    between atoms: N_17  and  C_18
REMARK    6  A    between atoms: C_23  and  C_24
REMARK                            x       y       z     vdW  Elec       q    Type
REMARK                         _______ _______ _______ _____ _____    ______ ____
ROOT
ATOM      1  C   UNL     1       5.508  -2.794   4.881  0.00  0.00    +0.019 C 
ENDROOT
BRANCH   1   5
ATOM      2  N   UNL     1       4.145  -0.948   1.351  0.00  0.00    -0.302 NA
ATOM      3  C   UNL     1       3.244  -1.893   2.027  0.00  0.00    +0.066 C 
ATOM      4  C   UNL     1       3.700  -2.082   3.475  0.00  0.00    -0.063 C 
ATOM      5  N   UNL     1       5.077  -2.595   3.491  0.00  0.00    +0.387 N 
ATOM      6  C   UNL     1       5.968  -1.629   2.835  0.00  0.00    -0.063 C 
ATOM      7  C   UNL     1       5.531  -1.436   1.382  0.00  0.00    +0.066 C 
ATOM      8  H   UNL     1       5.114  -3.475   2.999  0.00  0.00    -0.081 HD
BRANCH   2   9
ATOM      9  C   UNL     1       3.705  -0.696  -0.028  0.00  0.00    +0.119 C 
BRANCH   9  13
ATOM     10  C   UNL     1      -0.041   1.357   0.022  0.00  0.00    +0.000 A 
ATOM     11  C   UNL     1       1.141   2.074   0.024  0.00  0.00    +0.000 A 
ATOM     12  C   UNL     1       2.353   1.410   0.008  0.00  0.00    +0.005 A 
ATOM     13  C   UNL     1       2.384   0.028  -0.009  0.00  0.00    -0.033 A 
ATOM     14  C   UNL     1       1.202  -0.690  -0.010  0.00  0.00    +0.005 A 
ATOM     15  C   UNL     1      -0.010  -0.025   0.004  0.00  0.00    +0.000 A 
ENDBRANCH   9  13
ENDBRANCH   2   9
ENDBRANCH   1   5
BRANCH   1  16
ATOM     16  C   UNL     1       6.873  -3.434   4.897  0.00  0.00    +0.201 C 
ATOM     17  O   UNL     1       7.430  -3.699   3.853  0.00  0.00    -0.278 OA
ATOM     18  N   UNL     1       7.473  -3.712   6.071  0.00  0.00    -0.286 N 
ATOM     19  H   UNL     1       7.064  -3.429   6.904  0.00  0.00    +0.155 HD
BRANCH  18  20
ATOM     20  C   UNL     1       8.680  -4.407   6.088  0.00  0.00    +0.045 A 
ATOM     21  C   UNL     1       9.014  -5.252   5.038  0.00  0.00    +0.024 A 
ATOM     22  C   UNL     1      10.210  -5.940   5.058  0.00  0.00    +0.002 A 
ATOM     23  C   UNL     1      11.086  -5.794   6.122  0.00  0.00    +0.001 A 
ATOM     24  C   UNL     1      10.771  -4.960   7.173  0.00  0.00    +0.015 A 
ATOM     25  C   UNL     1       9.566  -4.253   7.165  0.00  0.00    +0.058 A 
BRANCH  25  26
ATOM     26  C   UNL     1       9.226  -3.354   8.283  0.00  0.00    +0.243 C 
ATOM     27  O   UNL     1       8.137  -2.814   8.320  0.00  0.00    -0.270 OA
ATOM     28  N   UNL     1      10.122  -3.131   9.265  0.00  0.00    -0.325 N 
ATOM     29  H   UNL     1      10.991  -3.562   9.236  0.00  0.00    +0.145 HD
ATOM     30  H   UNL     1       9.898  -2.540  10.001  0.00  0.00    +0.145 HD
ENDBRANCH  25  26
ENDBRANCH  18  20
ENDBRANCH   1  16
TORSDOF 6
