REMARK  Name = ZINC08635714
REMARK  12 active torsions:
REMARK  status: ('A' for Active; 'I' for Inactive)
REMARK    1  A    between atoms: C_1  and  N_2
REMARK    2  A    between atoms: N_2  and  C_3
REMARK    3  A    between atoms: N_2  and  C_4
REMARK    4  A    between atoms: C_7  and  N_10
REMARK    5  A    between atoms: N_10  and  C_11
REMARK    6  A    between atoms: C_11  and  N_13
REMARK    7  A    between atoms: N_13  and  C_14
REMARK    8  A    between atoms: C_14  and  C_15
REMARK    9  A    between atoms: C_23  and  C_25
REMARK   10  A    between atoms: C_25  and  N_26
REMARK   11  A    between atoms: N_26  and  C_27
REMARK   12  A    between atoms: N_26  and  C_28
REMARK                            x       y       z     vdW  Elec       q    Type
REMARK                         _______ _______ _______ _____ _____    ______ ____
ROOT
ATOM      1  C   UNL     1       2.572   4.634  -2.319  0.00  0.00    -0.051 C 
ATOM      2  C   UNL     1       2.072   5.318  -1.043  0.00  0.00    -0.010 C 
ATOM      3  C   UNL     1       2.423   4.435   0.162  0.00  0.00    -0.011 C 
ATOM      4  C   UNL     1       3.944   4.241   0.199  0.00  0.00    -0.015 C 
ATOM      5  C   UNL     1       4.392   3.587  -1.111  0.00  0.00    -0.078 C 
ATOM      6  C   UNL     1       2.267   2.444  -1.329  0.00  0.00    -0.073 C 
ATOM      7  C   UNL     1       1.759   3.065  -0.025  0.00  0.00    -0.007 C 
ATOM      8  N   UNL     1       3.229   3.350  -1.993  0.00  0.00    +0.383 N 
ATOM      9  H   UNL     1       3.554   2.912  -2.863  0.00  0.00    -0.081 HD
ENDROOT
BRANCH   1  10
ATOM     10  C   UNL     1       1.389   4.365  -3.251  0.00  0.00    +0.088 C 
BRANCH  10  11
ATOM     11  N   UNL     1       1.843   3.581  -4.402  0.00  0.00    -0.328 N 
ATOM     12  H   UNL     1       2.759   3.263  -4.442  0.00  0.00    +0.148 HD
BRANCH  11  13
ATOM     13  C   UNL     1       0.988   3.300  -5.405  0.00  0.00    +0.134 C 
ATOM     14  S   UNL     1      -0.589   3.966  -5.398  0.00  0.00    -0.019 S 
BRANCH  13  15
ATOM     15  N   UNL     1       1.375   2.495  -6.415  0.00  0.00    -0.297 N 
ATOM     16  H   UNL     1       2.239   2.056  -6.381  0.00  0.00    +0.154 HD
BRANCH  15  20
ATOM     17  C   UNL     1      -1.145   1.890  -9.682  0.00  0.00    +0.029 A 
ATOM     18  C   UNL     1      -1.020   3.157  -9.127  0.00  0.00    +0.025 A 
ATOM     19  C   UNL     1      -0.185   3.357  -8.046  0.00  0.00    +0.025 A 
ATOM     20  C   UNL     1       0.528   2.292  -7.513  0.00  0.00    +0.033 A 
ATOM     21  C   UNL     1       0.407   1.026  -8.071  0.00  0.00    +0.025 A 
ATOM     22  C   UNL     1      -0.432   0.825  -9.149  0.00  0.00    +0.025 A 
BRANCH  17  24
ATOM     23  C   UNL     1      -2.744   2.811 -11.340  0.00  0.00    +0.129 C 
ATOM     24  N   UNL     1      -1.991   1.687 -10.778  0.00  0.00    -0.336 N 
ATOM     25  C   UNL     1      -2.124   0.351 -11.364  0.00  0.00    +0.129 C 
ENDBRANCH  17  24
ENDBRANCH  15  20
ENDBRANCH  13  15
ENDBRANCH  11  13
ENDBRANCH  10  11
ENDBRANCH   1  10
BRANCH   7  26
ATOM     26  C   UNL     1       0.241   3.237  -0.096  0.00  0.00    +0.106 C 
BRANCH  26  27
ATOM     27  N   UNL     1      -0.260   3.695   1.202  0.00  0.00    -0.333 N 
ATOM     28  C   UNL     1      -0.493   5.122   1.436  0.00  0.00    +0.129 C 
BRANCH  27  29
ATOM     29  C   UNL     1      -0.516   2.770   2.217  0.00  0.00    +0.029 A 
ATOM     30  C   UNL     1      -0.199   1.430   2.035  0.00  0.00    +0.023 A 
ATOM     31  C   UNL     1      -0.450   0.519   3.042  0.00  0.00    +0.002 A 
ATOM     32  C   UNL     1      -1.025   0.938   4.228  0.00  0.00    +0.000 A 
ATOM     33  C   UNL     1      -1.347   2.270   4.411  0.00  0.00    +0.002 A 
ATOM     34  C   UNL     1      -1.094   3.187   3.410  0.00  0.00    +0.023 A 
ENDBRANCH  27  29
ENDBRANCH  26  27
ENDBRANCH   7  26
TORSDOF 9
