REMARK  Name = ZINC08583951
REMARK  9 active torsions:
REMARK  status: ('A' for Active; 'I' for Inactive)
REMARK    1  A    between atoms: C_1  and  C_2
REMARK    2  A    between atoms: C_2  and  C_3
REMARK    3  A    between atoms: C_8  and  N_9
REMARK    4  A    between atoms: C_10  and  C_12
REMARK    5  A    between atoms: C_12  and  S_13
REMARK    6  A    between atoms: S_13  and  C_14
REMARK    7  A    between atoms: C_18  and  C_22
REMARK    8  A    between atoms: N_25  and  C_26
REMARK    9  A    between atoms: C_30  and  C_32
REMARK                            x       y       z     vdW  Elec       q    Type
REMARK                         _______ _______ _______ _____ _____    ______ ____
ROOT
ATOM      1  C   UNL     1       7.470  -0.218   2.412  0.00  0.00    +0.177 A 
ATOM      2  N   UNL     1       6.697   0.198   3.392  0.00  0.00    -0.201 NA
ATOM      3  C   UNL     1       7.266   0.499   4.596  0.00  0.00    +0.187 A 
ATOM      4  C   UNL     1       8.744   0.548   4.711  0.00  0.00    +0.082 A 
ATOM      5  C   UNL     1       9.034   0.873   5.993  0.00  0.00    +0.046 A 
ATOM      6  N   UNL     1       7.864   1.017   6.650  0.00  0.00    -0.279 N 
ATOM      7  N   UNL     1       6.794   0.781   5.772  0.00  0.00    -0.153 NA
ATOM      8  H   UNL     1       7.776   1.249   7.588  0.00  0.00    +0.189 HD
ATOM      9  C   UNL     1      10.411   1.042   6.580  0.00  0.00    +0.066 C 
ATOM     10  C   UNL     1       9.554   0.254   3.509  0.00  0.00    +0.124 A 
ATOM     11  N   UNL     1      10.810   0.588   3.380  0.00  0.00    -0.384 N 
ATOM     12  N   UNL     1       8.822  -0.430   2.525  0.00  0.00    -0.275 N 
ATOM     13  H   UNL     1      11.284   0.992   4.124  0.00  0.00    +0.157 HD
ATOM     14  H   UNL     1      11.270   0.433   2.540  0.00  0.00    +0.157 HD
ENDROOT
BRANCH  12  15
ATOM     15  C   UNL     1       9.467  -1.322   1.659  0.00  0.00    +0.051 A 
ATOM     16  C   UNL     1       9.177  -2.679   1.713  0.00  0.00    +0.026 A 
ATOM     17  C   UNL     1       9.815  -3.555   0.858  0.00  0.00    +0.002 A 
ATOM     18  C   UNL     1      10.742  -3.083  -0.053  0.00  0.00    +0.003 A 
ATOM     19  C   UNL     1      11.034  -1.732  -0.109  0.00  0.00    -0.048 A 
ATOM     20  C   UNL     1      10.395  -0.850   0.740  0.00  0.00    +0.029 A 
ATOM     21  C   UNL     1      12.046  -1.222  -1.103  0.00  0.00    +0.044 C 
ENDBRANCH  12  15
BRANCH   1  22
ATOM     22  S   UNL     1       6.718  -0.531   0.850  0.00  0.00    -0.078 S 
BRANCH  22  23
ATOM     23  C   UNL     1       4.968  -0.137   1.119  0.00  0.00    +0.173 C 
BRANCH  23  25
ATOM     24  N   UNL     1       2.872  -0.136  -0.196  0.00  0.00    -0.285 N 
ATOM     25  C   UNL     1       4.200  -0.365  -0.158  0.00  0.00    +0.227 C 
ATOM     26  O   UNL     1       4.776  -0.755  -1.151  0.00  0.00    -0.275 OA
ATOM     27  H   UNL     1       2.421   0.231   0.581  0.00  0.00    +0.155 HD
BRANCH  24  33
ATOM     28  C   UNL     1       0.840  -0.889  -1.260  0.00  0.00    -0.026 A 
ATOM     29  C   UNL     1       0.122  -1.170  -2.407  0.00  0.00    +0.005 A 
ATOM     30  C   UNL     1       0.705  -0.995  -3.648  0.00  0.00    +0.000 A 
ATOM     31  C   UNL     1       2.006  -0.538  -3.747  0.00  0.00    +0.002 A 
ATOM     32  C   UNL     1       2.729  -0.256  -2.604  0.00  0.00    +0.023 A 
ATOM     33  C   UNL     1       2.145  -0.426  -1.355  0.00  0.00    +0.037 A 
BRANCH  28  35
ATOM     34  C   UNL     1      -0.388   0.247   0.570  0.00  0.00    +0.009 C 
ATOM     35  C   UNL     1       0.204  -1.081   0.093  0.00  0.00    +0.033 C 
ENDBRANCH  28  35
ENDBRANCH  24  33
ENDBRANCH  23  25
ENDBRANCH  22  23
ENDBRANCH   1  22
TORSDOF 6
