REMARK  Name = ZINC23153635
REMARK  9 active torsions:
REMARK  status: ('A' for Active; 'I' for Inactive)
REMARK    1  A    between atoms: C_1  and  C_2
REMARK    2  A    between atoms: C_2  and  C_3
REMARK    3  A    between atoms: C_2  and  C_4
REMARK    4  A    between atoms: C_4  and  C_5
REMARK    5  A    between atoms: C_5  and  C_6
REMARK    6  A    between atoms: C_6  and  N_7
REMARK    7  A    between atoms: C_10  and  N_16
REMARK    8  A    between atoms: C_19  and  C_22
REMARK    9  A    between atoms: C_19  and  N_25
REMARK                            x       y       z     vdW  Elec       q    Type
REMARK                         _______ _______ _______ _____ _____    ______ ____
ROOT
ATOM      1  N   UNL     1      -5.648  -7.217  -1.704  0.00  0.00    +0.382 N 
ATOM      2  C   UNL     1      -5.668  -7.275  -3.170  0.00  0.00    -0.076 C 
ATOM      3  C   UNL     1      -6.990  -7.884  -3.643  0.00  0.00    +0.013 C 
ATOM      4  C   UNL     1      -7.126  -9.299  -3.073  0.00  0.00    +0.095 C 
ATOM      5  C   UNL     1      -7.029  -9.235  -1.546  0.00  0.00    +0.013 C 
ATOM      6  C   UNL     1      -5.706  -8.576  -1.151  0.00  0.00    -0.076 C 
ATOM      7  H   UNL     1      -6.444  -6.689  -1.379  0.00  0.00    -0.081 HD
ENDROOT
BRANCH   1  11
ATOM      8  N   UNL     1      -1.480  -5.598  -2.064  0.00  0.00    -0.302 N 
ATOM      9  C   UNL     1      -1.911  -6.773  -1.289  0.00  0.00    +0.106 C 
ATOM     10  C   UNL     1      -3.229  -7.287  -1.872  0.00  0.00    +0.004 C 
ATOM     11  C   UNL     1      -4.412  -6.561  -1.258  0.00  0.00    -0.067 C 
ATOM     12  C   UNL     1      -4.487  -5.090  -1.627  0.00  0.00    -0.006 C 
ATOM     13  C   UNL     1      -3.315  -4.318  -1.016  0.00  0.00    +0.094 C 
ATOM     14  C   UNL     1      -2.122  -4.436  -1.941  0.00  0.00    +0.215 C 
ATOM     15  O   UNL     1      -1.752  -3.471  -2.576  0.00  0.00    -0.276 OA
BRANCH   8  16
ATOM     16  C   UNL     1      -0.334  -5.705  -2.970  0.00  0.00    +0.108 C 
BRANCH  16  17
ATOM     17  C   UNL     1       0.950  -5.366  -2.211  0.00  0.00    +0.019 C 
BRANCH  17  18
ATOM     18  C   UNL     1       2.147  -5.477  -3.158  0.00  0.00    +0.004 C 
BRANCH  18  20
ATOM     19  C   UNL     1       4.638  -5.370  -3.310  0.00  0.00    +0.007 C 
ATOM     20  C   UNL     1       3.431  -5.138  -2.399  0.00  0.00    -0.017 C 
ATOM     21  C   UNL     1       3.395  -3.672  -1.963  0.00  0.00    +0.007 C 
ENDBRANCH  18  20
ENDBRANCH  17  18
ENDBRANCH  16  17
ENDBRANCH   8  16
ENDBRANCH   1  11
BRANCH   4  22
ATOM     22  N   UNL     1      -8.427  -9.861  -3.460  0.00  0.00    -0.289 NA
ATOM     23  C   UNL     1      -9.528  -9.007  -2.998  0.00  0.00    +0.085 C 
ATOM     24  C   UNL     1     -10.854  -9.543  -3.541  0.00  0.00    +0.015 C 
ATOM     25  C   UNL     1     -11.058 -10.979  -3.050  0.00  0.00    +0.002 C 
ATOM     26  C   UNL     1      -9.873 -11.838  -3.503  0.00  0.00    +0.015 C 
ATOM     27  C   UNL     1      -8.575 -11.235  -2.961  0.00  0.00    +0.085 C 
ENDBRANCH   4  22
BRANCH   4  28
ATOM     28  C   UNL     1      -6.019 -10.168  -3.612  0.00  0.00    +0.231 C 
ATOM     29  O   UNL     1      -5.037 -10.389  -2.936  0.00  0.00    -0.274 OA
ATOM     30  N   UNL     1      -6.120 -10.700  -4.847  0.00  0.00    -0.328 N 
ATOM     31  H   UNL     1      -6.938 -10.589  -5.357  0.00  0.00    +0.145 HD
ATOM     32  H   UNL     1      -5.376 -11.193  -5.225  0.00  0.00    +0.145 HD
ENDBRANCH   4  28
TORSDOF 7
