REMARK  Name = ZINC52905573
REMARK  5 active torsions:
REMARK  status: ('A' for Active; 'I' for Inactive)
REMARK    1  A    between atoms: C_3  and  N_11
REMARK    2  A    between atoms: C_4  and  C_8
REMARK    3  A    between atoms: N_11  and  C_12
REMARK    4  A    between atoms: N_11  and  C_18
REMARK    5  A    between atoms: C_12  and  C_13
REMARK                            x       y       z     vdW  Elec       q    Type
REMARK                         _______ _______ _______ _____ _____    ______ ____
ROOT
ATOM      1  C   UNL     1       1.267  -0.707  -0.145  0.00  0.00    +0.003 A 
ATOM      2  C   UNL     1       2.446   0.012  -0.179  0.00  0.00    +0.024 A 
ATOM      3  C   UNL     1       2.418   1.399  -0.112  0.00  0.00    +0.042 A 
ATOM      4  C   UNL     1       1.187   2.065  -0.010  0.00  0.00    +0.051 A 
ATOM      5  C   UNL     1       0.003   1.324   0.024  0.00  0.00    +0.053 A 
ATOM      6  C   UNL     1       0.050  -0.053  -0.044  0.00  0.00    +0.021 A 
ATOM      7 CL   UNL     1      -1.527   2.136   0.150  0.00  0.00    -0.083 Cl
ENDROOT
BRANCH   4   8
ATOM      8  C   UNL     1       1.144   3.538   0.062  0.00  0.00    +0.097 C 
ATOM      9  N   UNL     1       0.714   4.138   1.172  0.00  0.00    -0.387 N 
ATOM     10  N   UNL     1       1.536   4.268  -0.982  0.00  0.00    -0.344 N 
ATOM     11  H   UNL     1       0.429   3.607   1.932  0.00  0.00    +0.157 HD
ATOM     12  H   UNL     1       1.775   3.833  -1.816  0.00  0.00    +0.144 HD
ATOM     13  H   UNL     1       1.581   5.234  -0.909  0.00  0.00    +0.144 HD
ATOM     14  H   UNL     1       0.685   5.107   1.219  0.00  0.00    +0.157 HD
ENDBRANCH   4   8
BRANCH   3  15
ATOM     15  N   UNL     1       3.603   2.123  -0.146  0.00  0.00    -0.321 N 
BRANCH  15  16
ATOM     16  C   UNL     1       4.230   2.443  -1.431  0.00  0.00    +0.074 C 
ATOM     17  C   UNL     1       5.628   3.062  -1.401  0.00  0.00    +0.024 C 
ATOM     18  C   UNL     1       4.419   3.921  -1.776  0.00  0.00    +0.024 C 
ENDBRANCH  15  16
BRANCH  15  19
ATOM     19  C   UNL     1       4.226   2.567   1.103  0.00  0.00    +0.147 C 
BRANCH  19  20
ATOM     20  C   UNL     1       5.091   1.462   1.654  0.00  0.00    +0.007 A 
ATOM     21  C   UNL     1       6.422   1.261   1.498  0.00  0.00    +0.013 A 
ATOM     22  C   UNL     1       7.010   0.166   2.102  0.00  0.00    +0.008 A 
ATOM     23  C   UNL     1       6.239  -0.675   2.834  0.00  0.00    +0.045 A 
ATOM     24  S   UNL     1       4.628   0.081   2.687  0.00  0.00    -0.100 S 
ENDBRANCH  19  20
ENDBRANCH  15  19
ENDBRANCH   3  15
TORSDOF 5
