REMARK  Name = ZINC08533237
REMARK  12 active torsions:
REMARK  status: ('A' for Active; 'I' for Inactive)
REMARK    1  A    between atoms: C_1  and  C_2
REMARK    2  A    between atoms: C_5  and  C_8
REMARK    3  A    between atoms: C_8  and  N_9
REMARK    4  A    between atoms: N_9  and  C_10
REMARK    5  A    between atoms: N_9  and  C_11
REMARK    6  A    between atoms: C_11  and  C_13
REMARK    7  A    between atoms: C_11  and  C_14
REMARK    8  A    between atoms: N_16  and  C_17
REMARK    9  A    between atoms: C_17  and  C_18
REMARK   10  A    between atoms: C_18  and  C_19
REMARK   11  A    between atoms: C_22  and  S_25
REMARK   12  A    between atoms: S_25  and  N_28
REMARK                            x       y       z     vdW  Elec       q    Type
REMARK                         _______ _______ _______ _____ _____    ______ ____
ROOT
ATOM      1  C   UNL     1       0.745  -6.515   1.479  0.00  0.00    +0.199 C 
ATOM      2  O   UNL     1       0.172  -5.634   2.084  0.00  0.00    -0.278 OA
ATOM      3  N   UNL     1       0.727  -7.778   1.949  0.00  0.00    -0.316 N 
ATOM      4  H   UNL     1       1.185  -8.482   1.465  0.00  0.00    +0.149 HD
ENDROOT
BRANCH   1   5
ATOM      5  C   UNL     1       1.478  -6.197   0.201  0.00  0.00    +0.016 C 
ATOM      6  C   UNL     1       2.938  -5.870   0.518  0.00  0.00    -0.004 C 
BRANCH   5   7
ATOM      7  N   UNL     1       0.847  -5.042  -0.451  0.00  0.00    +0.388 N 
ATOM      8  C   UNL     1       1.516  -4.777  -1.732  0.00  0.00    -0.095 C 
ATOM      9  H   UNL     1       0.930  -4.232   0.146  0.00  0.00    -0.081 HD
BRANCH   7  10
ATOM     10  C   UNL     1      -0.573  -5.329  -0.690  0.00  0.00    -0.042 C 
BRANCH  10  15
ATOM     11  C   UNL     1      -3.187  -0.590  -2.717  0.00  0.00    +0.044 C 
ATOM     12  C   UNL     1      -2.505  -1.826  -2.188  0.00  0.00    -0.050 A 
ATOM     13  C   UNL     1      -1.935  -2.729  -3.066  0.00  0.00    +0.003 A 
ATOM     14  C   UNL     1      -1.309  -3.863  -2.581  0.00  0.00    +0.002 A 
ATOM     15  C   UNL     1      -1.254  -4.093  -1.219  0.00  0.00    -0.064 A 
ATOM     16  C   UNL     1      -1.824  -3.189  -0.342  0.00  0.00    +0.002 A 
ATOM     17  C   UNL     1      -2.445  -2.053  -0.826  0.00  0.00    +0.003 A 
ENDBRANCH  10  15
ENDBRANCH   7  10
ENDBRANCH   5   7
ENDBRANCH   1   5
BRANCH   3  18
ATOM     18  C   UNL     1       0.014  -8.087   3.191  0.00  0.00    +0.109 C 
BRANCH  18  19
ATOM     19  C   UNL     1       0.148  -9.579   3.499  0.00  0.00    +0.054 C 
BRANCH  19  20
ATOM     20  C   UNL     1      -0.584  -9.897   4.777  0.00  0.00    -0.046 A 
ATOM     21  C   UNL     1       0.075  -9.819   5.989  0.00  0.00    +0.005 A 
ATOM     22  C   UNL     1      -0.597 -10.110   7.161  0.00  0.00    +0.029 A 
ATOM     23  C   UNL     1      -1.929 -10.479   7.121  0.00  0.00    +0.105 A 
ATOM     24  C   UNL     1      -2.588 -10.557   5.909  0.00  0.00    +0.029 A 
ATOM     25  C   UNL     1      -1.917 -10.261   4.737  0.00  0.00    +0.005 A 
BRANCH  23  26
ATOM     26  S   UNL     1      -2.785 -10.852   8.615  0.00  0.00    +0.056 S 
ATOM     27  O   UNL     1      -3.870 -11.698   8.261  0.00  0.00    -0.153 OA
ATOM     28  O   UNL     1      -1.799 -11.234   9.564  0.00  0.00    -0.153 OA
BRANCH  26  29
ATOM     29  N   UNL     1      -3.448  -9.437   9.165  0.00  0.00    -0.204 NA
ATOM     30  H   UNL     1      -3.319  -8.615   8.667  0.00  0.00    +0.144 HD
ATOM     31  H   UNL     1      -3.966  -9.431   9.986  0.00  0.00    +0.144 HD
ENDBRANCH  26  29
ENDBRANCH  23  26
ENDBRANCH  19  20
ENDBRANCH  18  19
ENDBRANCH   3  18
TORSDOF 9
