REMARK  Name = ZINC36378770
REMARK  4 active torsions:
REMARK  status: ('A' for Active; 'I' for Inactive)
REMARK    1  A    between atoms: C_1  and  N_2
REMARK    2  A    between atoms: C_7  and  O_25
REMARK    3  A    between atoms: C_8  and  O_24
REMARK    4  A    between atoms: O_25  and  C_26
REMARK                            x       y       z     vdW  Elec       q    Type
REMARK                         _______ _______ _______ _____ _____    ______ ____
ROOT
ATOM      1  C   UNL     1      -0.018   1.465   0.010  0.00  0.00    +0.106 C 
ATOM      2  N   UNL     1       0.002  -0.004   0.002  0.00  0.00    -0.289 NA
ATOM      3  C   UNL     1       0.621  -0.516  -1.231  0.00  0.00    +0.090 C 
ATOM      4  C   UNL     1       1.987   0.148  -1.403  0.00  0.00    +0.051 C 
ATOM      5  C   UNL     1       2.786   0.024  -0.131  0.00  0.00    -0.037 A 
ATOM      6  C   UNL     1       4.157   0.227  -0.189  0.00  0.00    +0.053 A 
ATOM      7  C   UNL     1       4.928   0.127   0.956  0.00  0.00    +0.162 A 
ATOM      8  C   UNL     1       4.322  -0.179   2.171  0.00  0.00    +0.159 A 
ATOM      9  C   UNL     1       2.955  -0.382   2.223  0.00  0.00    +0.055 A 
ATOM     10  C   UNL     1       2.186  -0.283   1.072  0.00  0.00    -0.012 A 
ATOM     11  C   UNL     1       0.704  -0.526   1.177  0.00  0.00    +0.115 C 
ATOM     12  C   UNL     1       0.431  -2.027   1.328  0.00  0.00    +0.071 C 
ATOM     13  C   UNL     1      -0.250  -2.199   2.665  0.00  0.00    -0.031 A 
ATOM     14  C   UNL     1      -0.707  -3.337   3.298  0.00  0.00    +0.008 A 
ATOM     15  C   UNL     1      -1.311  -3.257   4.541  0.00  0.00    +0.050 A 
ATOM     16  C   UNL     1      -1.463  -2.031   5.166  0.00  0.00    +0.167 A 
ATOM     17  C   UNL     1      -1.006  -0.874   4.544  0.00  0.00    +0.177 A 
ATOM     18  C   UNL     1      -0.392  -0.952   3.280  0.00  0.00    +0.068 A 
ATOM     19  C   UNL     1       0.164   0.111   2.432  0.00  0.00    +0.192 C 
ATOM     20  O   UNL     1       0.185   1.294   2.696  0.00  0.00    -0.290 OA
ATOM     21  O   UNL     1      -1.268   0.191   5.351  0.00  0.00    -0.452 OA
ATOM     22  C   UNL     1      -2.255  -0.272   6.291  0.00  0.00    +0.466 C 
ATOM     23  O   UNL     1      -2.015  -1.690   6.368  0.00  0.00    -0.453 OA
ENDROOT
BRANCH   8  24
ATOM     24  O   UNL     1       5.071  -0.278   3.302  0.00  0.00    -0.503 OA
ATOM     25  H   UNL     1       5.165   0.555   3.785  0.00  0.00    +0.292 HD
ENDBRANCH   8  24
BRANCH   7  26
ATOM     26  O   UNL     1       6.272   0.326   0.893  0.00  0.00    -0.491 OA
ATOM     27  C   UNL     1       6.824   0.635  -0.388  0.00  0.00    +0.277 C 
ENDBRANCH   7  26
TORSDOF 2
