REMARK  Name = ZINC13134526
REMARK  15 active torsions:
REMARK  status: ('A' for Active; 'I' for Inactive)
REMARK    1  A    between atoms: C_1  and  C_2
REMARK    2  A    between atoms: C_6  and  C_38
REMARK    3  A    between atoms: C_7  and  N_8
REMARK    4  A    between atoms: C_9  and  C_11
REMARK    5  A    between atoms: C_11  and  N_71
REMARK    6  A    between atoms: C_12  and  C_13
REMARK    7  A    between atoms: C_12  and  N_71
REMARK    8  A    between atoms: N_15  and  C_16
REMARK    9  A    between atoms: C_17  and  C_23
REMARK   10  A    between atoms: C_21  and  C_22
REMARK   11  A    between atoms: C_24  and  C_26
REMARK   12  A    between atoms: C_24  and  C_27
REMARK   13  A    between atoms: C_24  and  N_71
REMARK   14  A    between atoms: N_29  and  C_30
REMARK   15  A    between atoms: C_35  and  C_36
REMARK                            x       y       z     vdW  Elec       q    Type
REMARK                         _______ _______ _______ _____ _____    ______ ____
ROOT
ATOM      1  N   UNL     1       8.224   4.035   4.436  0.00  0.00    +0.399 N 
ATOM      2  H   UNL     1       7.871   4.490   3.586  0.00  0.00    -0.079 HD
ENDROOT
BRANCH   1   3
ATOM      3  C   UNL     1       8.939   2.798   4.056  0.00  0.00    +0.018 C 
ATOM      4  C   UNL     1      10.185   3.169   3.249  0.00  0.00    -0.004 C 
BRANCH   3   5
ATOM      5  C   UNL     1       8.027   1.949   3.209  0.00  0.00    +0.203 C 
ATOM      6  O   UNL     1       7.029   2.433   2.719  0.00  0.00    -0.277 OA
ATOM      7  N   UNL     1       8.320   0.650   2.996  0.00  0.00    -0.286 N 
ATOM      8  H   UNL     1       9.150   0.279   3.333  0.00  0.00    +0.155 HD
BRANCH   7   9
ATOM      9  C   UNL     1       7.432  -0.157   2.287  0.00  0.00    +0.051 A 
ATOM     10  C   UNL     1       6.668   0.380   1.260  0.00  0.00    +0.024 A 
ATOM     11  C   UNL     1       5.794  -0.423   0.556  0.00  0.00    +0.002 A 
ATOM     12  C   UNL     1       5.662  -1.765   0.874  0.00  0.00    +0.001 A 
ATOM     13  C   UNL     1       6.408  -2.314   1.894  0.00  0.00    +0.021 A 
ATOM     14  C   UNL     1       7.302  -1.516   2.612  0.00  0.00    +0.073 A 
BRANCH  14  15
ATOM     15  C   UNL     1       8.079  -2.080   3.674  0.00  0.00    +0.101 C 
ATOM     16  N   UNL     1       8.696  -2.528   4.516  0.00  0.00    -0.191 NA
ENDBRANCH  14  15
ENDBRANCH   7   9
ENDBRANCH   3   5
ENDBRANCH   1   3
BRANCH   1  17
ATOM     17  C   UNL     1       7.082   3.708   5.316  0.00  0.00    +0.021 C 
BRANCH  17  19
ATOM     18  N   UNL     1       6.662   2.531   7.450  0.00  0.00    -0.287 N 
ATOM     19  C   UNL     1       7.556   2.990   6.552  0.00  0.00    +0.201 C 
ATOM     20  O   UNL     1       8.743   2.824   6.740  0.00  0.00    -0.278 OA
ATOM     21  H   UNL     1       5.712   2.620   7.277  0.00  0.00    +0.155 HD
BRANCH  18  28
ATOM     22  C   UNL     1       6.116  -0.235   7.830  0.00  0.00    +0.045 C 
ATOM     23  C   UNL     1       6.858   0.579   8.858  0.00  0.00    -0.029 A 
ATOM     24  C   UNL     1       7.300  -0.016  10.024  0.00  0.00    +0.005 A 
ATOM     25  C   UNL     1       7.977   0.732  10.970  0.00  0.00    +0.001 A 
ATOM     26  C   UNL     1       8.218   2.076  10.750  0.00  0.00    +0.005 A 
ATOM     27  C   UNL     1       7.783   2.675   9.584  0.00  0.00    -0.029 A 
ATOM     28  C   UNL     1       7.104   1.927   8.632  0.00  0.00    +0.039 A 
ATOM     29  C   UNL     1       8.047   4.139   9.345  0.00  0.00    +0.045 C 
ENDBRANCH  18  28
ENDBRANCH  17  19
ENDBRANCH   1  17
BRANCH   1  30
ATOM     30  C   UNL     1       9.147   4.959   5.128  0.00  0.00    +0.021 C 
BRANCH  30  31
ATOM     31  C   UNL     1       8.518   6.328   5.172  0.00  0.00    +0.201 C 
ATOM     32  O   UNL     1       7.417   6.505   4.693  0.00  0.00    -0.278 OA
ATOM     33  N   UNL     1       9.178   7.355   5.743  0.00  0.00    -0.287 N 
ATOM     34  H   UNL     1      10.032   7.202   6.176  0.00  0.00    +0.155 HD
BRANCH  33  35
ATOM     35  C   UNL     1       8.631   8.642   5.711  0.00  0.00    +0.039 A 
ATOM     36  C   UNL     1       8.194   9.183   4.509  0.00  0.00    -0.029 A 
ATOM     37  C   UNL     1       7.650  10.452   4.481  0.00  0.00    +0.005 A 
ATOM     38  C   UNL     1       7.549  11.188   5.647  0.00  0.00    +0.001 A 
ATOM     39  C   UNL     1       7.989  10.655   6.845  0.00  0.00    +0.005 A 
ATOM     40  C   UNL     1       8.529   9.384   6.880  0.00  0.00    -0.029 A 
ATOM     41  C   UNL     1       9.006   8.804   8.186  0.00  0.00    +0.045 C 
ATOM     42  C   UNL     1       8.308   8.383   3.236  0.00  0.00    +0.045 C 
ENDBRANCH  33  35
ENDBRANCH  30  31
ENDBRANCH   1  30
TORSDOF 10
