REMARK  Name = ZINC39855965
REMARK  12 active torsions:
REMARK  status: ('A' for Active; 'I' for Inactive)
REMARK    1  A    between atoms: C_1  and  C_2
REMARK    2  A    between atoms: C_6  and  C_7
REMARK    3  A    between atoms: N_9  and  C_10
REMARK    4  A    between atoms: C_12  and  C_20
REMARK    5  A    between atoms: C_14  and  C_16
REMARK    6  A    between atoms: C_16  and  O_18
REMARK    7  A    between atoms: O_18  and  C_19
REMARK    8  A    between atoms: C_20  and  O_22
REMARK    9  A    between atoms: O_22  and  C_23
REMARK   10  A    between atoms: C_25  and  C_33
REMARK   11  A    between atoms: C_25  and  C_34
REMARK   12  A    between atoms: N_28  and  N_29
REMARK                            x       y       z     vdW  Elec       q    Type
REMARK                         _______ _______ _______ _____ _____    ______ ____
ROOT
ATOM      1  C   UNL     1      -0.013   1.502   0.010  0.00  0.00    +0.048 C 
ATOM      2  C   UNL     1      -0.003  -0.005   0.002  0.00  0.00    +0.009 A 
ATOM      3  C   UNL     1      -0.007  -0.839  -1.122  0.00  0.00    +0.043 A 
ATOM      4  C   UNL     1       0.005  -2.138  -0.672  0.00  0.00    +0.116 A 
ATOM      5  O   UNL     1       0.019  -2.112   0.658  0.00  0.00    -0.454 OA
ATOM      6  C   UNL     1       0.018  -0.831   1.091  0.00  0.00    +0.193 A 
ATOM      7  C   UNL     1      -0.001  -3.327  -1.599  0.00  0.00    +0.081 C 
ATOM      8  C   UNL     1      -0.529  -2.900  -2.971  0.00  0.00    -0.023 C 
ATOM      9  C   UNL     1       0.248  -1.688  -3.496  0.00  0.00    +0.064 C 
ATOM     10  C   UNL     1      -0.019  -0.513  -2.566  0.00  0.00    +0.073 C 
ATOM     11  N   UNL     1      -0.241   0.686  -3.007  0.00  0.00    -0.175 NA
ATOM     12  C   UNL     1      -2.010  -2.537  -2.851  0.00  0.00    +0.011 C 
ATOM     13  C   UNL     1      -0.374  -4.062  -3.955  0.00  0.00    +0.011 C 
ENDROOT
BRANCH  11  14
ATOM     14  N   UNL     1      -0.240   0.938  -4.385  0.00  0.00    -0.248 N 
ATOM     15  C   UNL     1      -0.475   2.204  -4.850  0.00  0.00    +0.187 C 
ATOM     16  N   UNL     1      -0.475   2.443  -6.161  0.00  0.00    -0.370 N 
ATOM     17  N   UNL     1      -0.704   3.197  -3.992  0.00  0.00    -0.370 N 
ATOM     18  H   UNL     1      -0.074   0.215  -5.010  0.00  0.00    +0.192 HD
ATOM     19  H   UNL     1      -0.308   1.720  -6.786  0.00  0.00    +0.159 HD
ATOM     20  H   UNL     1      -0.705   3.023  -3.038  0.00  0.00    +0.159 HD
ATOM     21  H   UNL     1      -0.871   4.094  -4.322  0.00  0.00    +0.159 HD
ATOM     22  H   UNL     1      -0.641   3.340  -6.491  0.00  0.00    +0.159 HD
ENDBRANCH  11  14
BRANCH   6  23
ATOM     23  C   UNL     1       0.033  -0.400   2.493  0.00  0.00    +0.284 C 
ATOM     24  O   UNL     1       0.028   0.786   2.765  0.00  0.00    -0.266 OA
ATOM     25  N   UNL     1       0.053  -1.318   3.480  0.00  0.00    -0.279 N 
ATOM     26  H   UNL     1      -0.010  -2.262   3.266  0.00  0.00    +0.155 HD
BRANCH  25  27
ATOM     27  C   UNL     1       0.166  -0.909   4.813  0.00  0.00    +0.035 A 
ATOM     28  C   UNL     1      -0.444   0.265   5.231  0.00  0.00    +0.038 A 
ATOM     29  C   UNL     1      -0.335   0.676   6.561  0.00  0.00    +0.062 A 
ATOM     30  C   UNL     1       0.388  -0.095   7.469  0.00  0.00    +0.030 A 
ATOM     31  C   UNL     1       0.999  -1.274   7.046  0.00  0.00    +0.062 A 
ATOM     32  C   UNL     1       0.881  -1.681   5.716  0.00  0.00    +0.038 A 
BRANCH  31  33
ATOM     33  C   UNL     1       1.767  -2.094   8.006  0.00  0.00    +0.339 C 
ATOM     34  O   UNL     1       2.300  -3.122   7.637  0.00  0.00    -0.245 OA
BRANCH  33  35
ATOM     35  O   UNL     1       1.877  -1.703   9.290  0.00  0.00    -0.464 OA
ATOM     36  C   UNL     1       2.634  -2.544  10.163  0.00  0.00    +0.280 C 
ENDBRANCH  33  35
ENDBRANCH  31  33
BRANCH  29  37
ATOM     37  C   UNL     1      -0.984   1.927   7.004  0.00  0.00    +0.339 C 
ATOM     38  O   UNL     1      -1.614   2.598   6.212  0.00  0.00    -0.245 OA
BRANCH  37  39
ATOM     39  O   UNL     1      -0.878   2.322   8.288  0.00  0.00    -0.464 OA
ATOM     40  C   UNL     1      -1.531   3.542   8.647  0.00  0.00    +0.280 C 
ENDBRANCH  37  39
ENDBRANCH  29  37
ENDBRANCH  25  27
ENDBRANCH   6  23
TORSDOF 7
