REMARK  Name = ZINC63085072
REMARK  10 active torsions:
REMARK  status: ('A' for Active; 'I' for Inactive)
REMARK    1  A    between atoms: C_1  and  C_2
REMARK    2  A    between atoms: C_2  and  C_4
REMARK    3  A    between atoms: C_2  and  N_7
REMARK    4  A    between atoms: C_4  and  C_5
REMARK    5  A    between atoms: N_7  and  C_8
REMARK    6  A    between atoms: N_7  and  C_9
REMARK    7  A    between atoms: C_9  and  C_10
REMARK    8  A    between atoms: C_10  and  C_11
REMARK    9  A    between atoms: N_13  and  C_14
REMARK   10  A    between atoms: C_15  and  N_22
REMARK                            x       y       z     vdW  Elec       q    Type
REMARK                         _______ _______ _______ _____ _____    ______ ____
ROOT
ATOM      1  C   UNL     1       0.778  -4.247   2.588  0.00  0.00    +0.215 C 
ATOM      2  O   UNL     1      -0.120  -4.744   1.942  0.00  0.00    -0.276 OA
ATOM      3  N   UNL     1       1.747  -5.027   3.108  0.00  0.00    -0.283 N 
ATOM      4  H   UNL     1       2.506  -4.623   3.556  0.00  0.00    +0.155 HD
ENDROOT
BRANCH   3   5
ATOM      5  C   UNL     1       1.656  -6.422   3.001  0.00  0.00    +0.073 A 
ATOM      6  C   UNL     1       1.777  -7.220   4.138  0.00  0.00    +0.049 A 
ATOM      7  C   UNL     1       1.686  -8.600   4.026  0.00  0.00    +0.044 A 
ATOM      8  C   UNL     1       1.475  -9.181   2.788  0.00  0.00    +0.044 A 
ATOM      9  C   UNL     1       1.355  -8.389   1.660  0.00  0.00    +0.042 A 
ATOM     10  C   UNL     1       1.439  -7.012   1.764  0.00  0.00    +0.065 A 
ATOM     11 CL   UNL     1       1.280  -6.023   0.346  0.00  0.00    -0.082 Cl
ATOM     12 CL   UNL     1       1.362 -10.908   2.650  0.00  0.00    -0.083 Cl
BRANCH   6  13
ATOM     13  N   UNL     1       1.991  -6.631   5.388  0.00  0.00    -0.356 N 
ATOM     14  H   UNL     1       2.054  -5.666   5.465  0.00  0.00    +0.142 HD
ATOM     15  H   UNL     1       2.075  -7.187   6.179  0.00  0.00    +0.142 HD
ENDBRANCH   6  13
ENDBRANCH   3   5
BRANCH   1  16
ATOM     16  C   UNL     1       0.811  -2.756   2.809  0.00  0.00    +0.077 C 
BRANCH  16  17
ATOM     17  C   UNL     1      -0.392  -2.111   2.120  0.00  0.00    -0.070 C 
BRANCH  17  18
ATOM     18  N   UNL     1      -0.360  -0.659   2.335  0.00  0.00    +0.381 N 
ATOM     19  C   UNL     1      -0.560  -0.371   3.762  0.00  0.00    -0.096 C 
ATOM     20  H   UNL     1       0.534  -0.295   2.041  0.00  0.00    -0.082 HD
BRANCH  18  22
ATOM     21  C   UNL     1      -2.789  -0.464   2.097  0.00  0.00    -0.012 C 
ATOM     22  C   UNL     1      -1.429  -0.024   1.553  0.00  0.00    -0.058 C 
BRANCH  22  23
ATOM     23  C   UNL     1      -1.305   1.498   1.661  0.00  0.00    +0.103 C 
BRANCH  23  24
ATOM     24  C   UNL     1      -0.028   1.929   1.069  0.00  0.00    +0.061 C 
ATOM     25  N   UNL     1       0.957   2.262   0.612  0.00  0.00    -0.197 NA
ENDBRANCH  23  24
ENDBRANCH  22  23
ENDBRANCH  18  22
ENDBRANCH  17  18
ENDBRANCH  16  17
ENDBRANCH   1  16
TORSDOF 8
