REMARK  Name = ZINC09331327
REMARK  9 active torsions:
REMARK  status: ('A' for Active; 'I' for Inactive)
REMARK    1  A    between atoms: C_1  and  C_2
REMARK    2  A    between atoms: C_5  and  C_32
REMARK    3  A    between atoms: C_6  and  N_8
REMARK    4  A    between atoms: C_9  and  C_11
REMARK    5  A    between atoms: C_11  and  S_12
REMARK    6  A    between atoms: S_12  and  C_13
REMARK    7  A    between atoms: C_16  and  C_25
REMARK    8  A    between atoms: N_17  and  C_18
REMARK    9  A    between atoms: C_18  and  C_19
REMARK                            x       y       z     vdW  Elec       q    Type
REMARK                         _______ _______ _______ _____ _____    ______ ____
ROOT
ATOM      1  C   UNL     1      -3.369   1.418   2.589  0.00  0.00    +0.193 A 
ATOM      2  N   UNL     1      -3.666   0.627   3.596  0.00  0.00    -0.122 NA
ATOM      3  N   UNL     1      -2.948  -0.437   3.548  0.00  0.00    -0.128 NA
ATOM      4  C   UNL     1      -2.152  -0.394   2.505  0.00  0.00    +0.168 A 
ATOM      5  N   UNL     1      -2.393   0.798   1.862  0.00  0.00    -0.298 N 
ENDROOT
BRANCH   4   6
ATOM      6  C   UNL     1      -1.178  -1.430   2.100  0.00  0.00    +0.054 A 
ATOM      7  C   UNL     1      -1.134  -1.871   0.777  0.00  0.00    +0.014 A 
ATOM      8  C   UNL     1      -0.223  -2.838   0.405  0.00  0.00    +0.001 A 
ATOM      9  C   UNL     1       0.648  -3.370   1.339  0.00  0.00    +0.003 A 
ATOM     10  C   UNL     1       0.611  -2.939   2.653  0.00  0.00    +0.039 A 
ATOM     11  C   UNL     1      -0.293  -1.967   3.039  0.00  0.00    +0.134 A 
ATOM     12  F   UNL     1      -0.325  -1.542   4.321  0.00  0.00    -0.205 F 
ENDBRANCH   4   6
BRANCH   1  13
ATOM     13  S   UNL     1      -4.094   2.986   2.243  0.00  0.00    -0.077 S 
BRANCH  13  14
ATOM     14  C   UNL     1      -5.264   3.103   3.618  0.00  0.00    +0.173 C 
BRANCH  14  16
ATOM     15  N   UNL     1      -6.952   4.708   4.451  0.00  0.00    -0.285 N 
ATOM     16  C   UNL     1      -6.021   4.403   3.526  0.00  0.00    +0.227 C 
ATOM     17  O   UNL     1      -5.791   5.175   2.619  0.00  0.00    -0.275 OA
ATOM     18  H   UNL     1      -7.091   4.122   5.211  0.00  0.00    +0.155 HD
BRANCH  15  24
ATOM     19  C   UNL     1      -7.400   9.312   2.787  0.00  0.00    +0.044 C 
ATOM     20  C   UNL     1      -7.962   8.117   3.512  0.00  0.00    -0.049 A 
ATOM     21  C   UNL     1      -9.237   8.167   4.044  0.00  0.00    +0.004 A 
ATOM     22  C   UNL     1      -9.756   7.072   4.710  0.00  0.00    +0.005 A 
ATOM     23  C   UNL     1      -9.001   5.924   4.847  0.00  0.00    -0.029 A 
ATOM     24  C   UNL     1      -7.720   5.870   4.314  0.00  0.00    +0.037 A 
ATOM     25  C   UNL     1      -7.200   6.973   3.650  0.00  0.00    +0.027 A 
ATOM     26  C   UNL     1      -9.567   4.731   5.573  0.00  0.00    +0.045 C 
ENDBRANCH  15  24
ENDBRANCH  14  16
ENDBRANCH  13  14
ENDBRANCH   1  13
BRANCH   5  27
ATOM     27  C   UNL     1      -1.744   1.295   0.647  0.00  0.00    +0.161 C 
BRANCH  27  28
ATOM     28  C   UNL     1      -0.527   2.102   1.022  0.00  0.00    -0.028 A 
ATOM     29  C   UNL     1       0.692   1.474   1.196  0.00  0.00    +0.005 A 
ATOM     30  C   UNL     1       1.809   2.215   1.534  0.00  0.00    +0.000 A 
ATOM     31  C   UNL     1       1.706   3.583   1.703  0.00  0.00    +0.000 A 
ATOM     32  C   UNL     1       0.485   4.210   1.534  0.00  0.00    +0.000 A 
ATOM     33  C   UNL     1      -0.631   3.469   1.196  0.00  0.00    +0.005 A 
ENDBRANCH  27  28
ENDBRANCH   5  27
TORSDOF 7
