REMARK  Name = ZINC37161730
REMARK  10 active torsions:
REMARK  status: ('A' for Active; 'I' for Inactive)
REMARK    1  A    between atoms: C_1  and  C_2
REMARK    2  A    between atoms: C_2  and  C_4
REMARK    3  A    between atoms: C_2  and  N_13
REMARK    4  A    between atoms: N_13  and  C_14
REMARK    5  A    between atoms: C_14  and  C_16
REMARK    6  A    between atoms: C_14  and  C_20
REMARK    7  A    between atoms: C_16  and  C_17
REMARK    8  A    between atoms: C_17  and  C_18
REMARK    9  A    between atoms: C_17  and  C_19
REMARK   10  A    between atoms: N_22  and  C_23
REMARK                            x       y       z     vdW  Elec       q    Type
REMARK                         _______ _______ _______ _____ _____    ______ ____
ROOT
ATOM      1  N   UNL     1       0.053  -1.229  -1.131  0.00  0.00    +0.391 N 
ATOM      2  H   UNL     1      -0.014  -0.692  -0.279  0.00  0.00    -0.084 HD
ATOM      3  H   UNL     1       1.020  -1.459  -1.307  0.00  0.00    -0.084 HD
ENDROOT
BRANCH   1   5
ATOM      4  C   UNL     1      -2.145  -2.124  -0.528  0.00  0.00    -0.009 C 
ATOM      5  C   UNL     1      -0.728  -2.465  -0.994  0.00  0.00    -0.040 C 
BRANCH   5   6
ATOM      6  C   UNL     1      -0.070  -3.366   0.020  0.00  0.00    -0.022 A 
ATOM      7  C   UNL     1       0.264  -2.874   1.269  0.00  0.00    +0.044 A 
ATOM      8  C   UNL     1       0.868  -3.700   2.200  0.00  0.00    +0.023 A 
ATOM      9  C   UNL     1       1.138  -5.018   1.883  0.00  0.00    +0.041 A 
ATOM     10  C   UNL     1       0.804  -5.512   0.634  0.00  0.00    +0.142 A 
ATOM     11  C   UNL     1       0.194  -4.685  -0.297  0.00  0.00    +0.079 A 
ATOM     12 CL   UNL     1      -0.232  -5.305  -1.862  0.00  0.00    -0.080 Cl
ATOM     13  F   UNL     1       1.068  -6.800   0.324  0.00  0.00    -0.204 F 
ATOM     14 CL   UNL     1      -0.074  -1.218   1.668  0.00  0.00    -0.083 Cl
ENDBRANCH   5   6
ENDBRANCH   1   5
BRANCH   1  15
ATOM     15  C   UNL     1      -0.474  -0.438  -2.250  0.00  0.00    +0.017 C 
BRANCH  15  16
ATOM     16  C   UNL     1      -0.279  -1.197  -3.537  0.00  0.00    +0.199 C 
ATOM     17  O   UNL     1       0.587  -2.042  -3.618  0.00  0.00    -0.278 OA
ATOM     18  N   UNL     1      -1.067  -0.936  -4.599  0.00  0.00    -0.320 N 
ATOM     19  C   UNL     1      -0.951  -1.747  -5.814  0.00  0.00    +0.128 C 
ATOM     20  H   UNL     1      -1.711  -0.212  -4.560  0.00  0.00    +0.148 HD
ENDBRANCH  15  16
BRANCH  15  21
ATOM     21  C   UNL     1       0.271   0.897  -2.328  0.00  0.00    -0.004 C 
BRANCH  21  22
ATOM     22  C   UNL     1      -0.283   1.724  -3.490  0.00  0.00    -0.018 C 
ATOM     23  C   UNL     1      -1.737   2.100  -3.200  0.00  0.00    +0.007 C 
ATOM     24  C   UNL     1       0.551   2.996  -3.653  0.00  0.00    +0.007 C 
ENDBRANCH  21  22
ENDBRANCH  15  21
ENDBRANCH   1  15
TORSDOF 6
