REMARK  Name = ZINC20235767
REMARK  8 active torsions:
REMARK  status: ('A' for Active; 'I' for Inactive)
REMARK    1  A    between atoms: C_2  and  C_8
REMARK    2  A    between atoms: C_8  and  N_9
REMARK    3  A    between atoms: N_9  and  C_10
REMARK    4  A    between atoms: N_9  and  C_18
REMARK    5  A    between atoms: C_10  and  C_11
REMARK    6  A    between atoms: C_11  and  N_12
REMARK    7  A    between atoms: C_18  and  C_19
REMARK    8  A    between atoms: N_24  and  C_26
REMARK                            x       y       z     vdW  Elec       q    Type
REMARK                         _______ _______ _______ _____ _____    ______ ____
ROOT
ATOM      1  N   UNL     1      -1.747   4.182  -2.192  0.00  0.00    -0.300 NA
ENDROOT
BRANCH   1   2
ATOM      2  C   UNL     1      -0.890   3.831  -3.332  0.00  0.00    +0.122 C 
BRANCH   2   4
ATOM      3  C   UNL     1       1.483   3.692  -2.509  0.00  0.00    +0.120 A 
ATOM      4  C   UNL     1       0.481   4.423  -3.130  0.00  0.00    +0.003 A 
ATOM      5  C   UNL     1       0.770   5.707  -3.565  0.00  0.00    +0.120 A 
ATOM      6  N   UNL     1       1.982   6.198  -3.367  0.00  0.00    -0.223 NA
ATOM      7  C   UNL     1       2.917   5.473  -2.770  0.00  0.00    +0.212 A 
ATOM      8  N   UNL     1       2.676   4.241  -2.347  0.00  0.00    -0.223 NA
ATOM      9  N   UNL     1       4.177   6.017  -2.584  0.00  0.00    -0.327 N 
ATOM     10  H   UNL     1       4.963   5.427  -2.090  0.00  0.00    +0.145 HD
ATOM     11  H   UNL     1       4.391   7.039  -2.930  0.00  0.00    +0.145 HD
ENDBRANCH   2   4
ENDBRANCH   1   2
BRANCH   1  12
ATOM     12  C   UNL     1      -1.240   3.587  -0.948  0.00  0.00    +0.066 C 
BRANCH  12  13
ATOM     13  C   UNL     1      -1.417   2.068  -1.001  0.00  0.00    -0.063 C 
BRANCH  13  14
ATOM     14  N   UNL     1      -1.039   1.486   0.294  0.00  0.00    +0.381 N 
ATOM     15  C   UNL     1       0.395   1.667   0.553  0.00  0.00    -0.079 C 
ATOM     16  C   UNL     1       0.725   1.182   1.967  0.00  0.00    -0.019 C 
ATOM     17  C   UNL     1       0.347  -0.297   2.094  0.00  0.00    -0.004 C 
ATOM     18  C   UNL     1      -1.141  -0.465   1.772  0.00  0.00    -0.019 C 
ATOM     19  C   UNL     1      -1.416   0.069   0.364  0.00  0.00    -0.079 C 
ATOM     20  H   UNL     1      -1.592   2.020   1.081  0.00  0.00    -0.082 HD
ENDBRANCH  13  14
ENDBRANCH  12  13
ENDBRANCH   1  12
BRANCH   1  21
ATOM     21  C   UNL     1      -1.880   5.639  -2.062  0.00  0.00    +0.086 C 
BRANCH  21  22
ATOM     22  C   UNL     1      -2.638   6.192  -3.271  0.00  0.00    -0.014 C 
ATOM     23  C   UNL     1      -4.071   5.655  -3.266  0.00  0.00    +0.001 C 
ATOM     24  C   UNL     1      -4.839   6.261  -4.444  0.00  0.00    -0.018 C 
ATOM     25  C   UNL     1      -4.808   7.787  -4.338  0.00  0.00    -0.078 C 
ATOM     26  N   UNL     1      -3.414   8.251  -4.348  0.00  0.00    +0.382 N 
ATOM     27  C   UNL     1      -2.670   7.721  -3.199  0.00  0.00    -0.074 C 
ATOM     28  H   UNL     1      -2.940   7.865  -5.262  0.00  0.00    -0.081 HD
BRANCH  26  29
ATOM     29  C   UNL     1      -3.348   9.718  -4.387  0.00  0.00    -0.069 C 
ATOM     30  C   UNL     1      -4.020  10.310  -3.131  0.00  0.00    -0.015 C 
ATOM     31  C   UNL     1      -4.731  11.586  -3.647  0.00  0.00    -0.002 C 
ATOM     32  C   UNL     1      -5.257  11.146  -5.035  0.00  0.00    -0.002 C 
ATOM     33  C   UNL     1      -4.135  10.249  -5.598  0.00  0.00    -0.015 C 
ENDBRANCH  26  29
ENDBRANCH  21  22
ENDBRANCH   1  21
TORSDOF 8
