REMARK  Name = ZINC25158586
REMARK  12 active torsions:
REMARK  status: ('A' for Active; 'I' for Inactive)
REMARK    1  A    between atoms: C_1  and  C_2
REMARK    2  A    between atoms: C_2  and  N_3
REMARK    3  A    between atoms: N_3  and  C_4
REMARK    4  A    between atoms: C_4  and  C_5
REMARK    5  A    between atoms: C_6  and  O_8
REMARK    6  A    between atoms: O_8  and  C_9
REMARK    7  A    between atoms: C_14  and  N_15
REMARK    8  A    between atoms: C_16  and  C_18
REMARK    9  A    between atoms: N_31  and  C_32
REMARK   10  A    between atoms: C_32  and  C_33
REMARK   11  A    between atoms: C_35  and  C_40
REMARK   12  A    between atoms: C_37  and  C_39
REMARK                            x       y       z     vdW  Elec       q    Type
REMARK                         _______ _______ _______ _____ _____    ______ ____
ROOT
ATOM      1  C   UNL     1      -3.686   0.039   3.506  0.00  0.00    +0.155 A 
ATOM      2  C   UNL     1      -3.210  -0.703   2.431  0.00  0.00    +0.050 A 
ATOM      3  C   UNL     1      -2.414  -0.118   1.471  0.00  0.00    +0.030 A 
ATOM      4  C   UNL     1      -2.082   1.230   1.565  0.00  0.00    +0.051 A 
ATOM      5  C   UNL     1      -2.555   1.986   2.652  0.00  0.00    +0.025 A 
ATOM      6  C   UNL     1      -3.364   1.383   3.624  0.00  0.00    +0.086 A 
ATOM      7  C   UNL     1      -2.031   3.341   2.463  0.00  0.00    +0.029 A 
ATOM      8  C   UNL     1      -1.304   3.327   1.335  0.00  0.00    +0.087 A 
ATOM      9  N   UNL     1      -1.319   2.073   0.785  0.00  0.00    -0.342 N 
ENDROOT
BRANCH   6  10
ATOM     10  N   UNL     1      -3.842   2.131   4.706  0.00  0.00    -0.279 N 
ATOM     11  C   UNL     1      -5.085   1.911   5.180  0.00  0.00    +0.261 C 
ATOM     12  O   UNL     1      -5.802   1.092   4.646  0.00  0.00    -0.271 OA
ATOM     13  H   UNL     1      -3.205   2.898   5.169  0.00  0.00    +0.155 HD
BRANCH  11  14
ATOM     14  C   UNL     1      -5.583   2.684   6.374  0.00  0.00    +0.296 C 
ATOM     15  C   UNL     1      -5.703   4.171   6.015  0.00  0.00    +0.283 C 
ATOM     16  O   UNL     1      -6.191   4.872   7.165  0.00  0.00    -0.484 OA
ATOM     17  C   UNL     1      -7.249   4.317   7.816  0.00  0.00    +0.162 A 
ATOM     18  C   UNL     1      -7.992   5.093   8.694  0.00  0.00    +0.049 A 
ATOM     19  C   UNL     1      -9.067   4.542   9.365  0.00  0.00    +0.004 A 
ATOM     20  C   UNL     1      -9.406   3.217   9.163  0.00  0.00    +0.004 A 
ATOM     21  C   UNL     1      -8.671   2.439   8.289  0.00  0.00    +0.049 A 
ATOM     22  C   UNL     1      -7.591   2.985   7.612  0.00  0.00    +0.163 A 
ATOM     23  O   UNL     1      -6.879   2.207   6.751  0.00  0.00    -0.473 OA
ENDBRANCH  11  14
ENDBRANCH   6  10
BRANCH   1  24
ATOM     24  O   UNL     1      -4.471  -0.554   4.446  0.00  0.00    -0.409 OA
BRANCH  24  26
ATOM     25  N   UNL     1      -4.565  -1.655   6.501  0.00  0.00    -0.268 N 
ATOM     26  C   UNL     1      -3.865  -0.973   5.573  0.00  0.00    +0.408 C 
ATOM     27  O   UNL     1      -2.687  -0.736   5.753  0.00  0.00    -0.226 OA
BRANCH  25  29
ATOM     28  C   UNL     1      -6.132  -3.280   5.560  0.00  0.00    +0.024 C 
ATOM     29  C   UNL     1      -5.986  -1.940   6.284  0.00  0.00    +0.108 C 
ENDBRANCH  25  29
BRANCH  25  30
ATOM     30  C   UNL     1      -3.906  -2.110   7.728  0.00  0.00    +0.108 C 
ATOM     31  C   UNL     1      -4.025  -1.028   8.803  0.00  0.00    +0.024 C 
ENDBRANCH  25  30
ENDBRANCH  24  26
ENDBRANCH   1  24
BRANCH   9  32
ATOM     32  C   UNL     1      -0.634   1.687  -0.450  0.00  0.00    +0.157 C 
BRANCH  32  33
ATOM     33  C   UNL     1      -1.594   1.781  -1.608  0.00  0.00    -0.027 A 
ATOM     34  C   UNL     1      -2.354   0.684  -1.966  0.00  0.00    +0.008 A 
ATOM     35  C   UNL     1      -3.239   0.772  -3.025  0.00  0.00    -0.050 A 
ATOM     36  C   UNL     1      -3.355   1.954  -3.732  0.00  0.00    +0.006 A 
ATOM     37  C   UNL     1      -2.591   3.050  -3.377  0.00  0.00    -0.050 A 
ATOM     38  C   UNL     1      -1.710   2.963  -2.315  0.00  0.00    +0.008 A 
ATOM     39  C   UNL     1      -2.717   4.338  -4.148  0.00  0.00    +0.044 C 
ATOM     40  C   UNL     1      -4.072  -0.423  -3.412  0.00  0.00    +0.044 C 
ENDBRANCH  32  33
ENDBRANCH   9  32
TORSDOF 8
