REMARK  Name = ZINC60090408
REMARK  8 active torsions:
REMARK  status: ('A' for Active; 'I' for Inactive)
REMARK    1  A    between atoms: C_1  and  C_2
REMARK    2  A    between atoms: C_2  and  C_3
REMARK    3  A    between atoms: C_3  and  N_4
REMARK    4  A    between atoms: N_4  and  C_5
REMARK    5  A    between atoms: N_4  and  C_18
REMARK    6  A    between atoms: C_5  and  C_6
REMARK    7  A    between atoms: N_8  and  C_9
REMARK    8  A    between atoms: C_14  and  C_15
REMARK                            x       y       z     vdW  Elec       q    Type
REMARK                         _______ _______ _______ _____ _____    ______ ____
ROOT
ATOM      1  C   UNL     1      -1.164  -2.330  -1.633  0.00  0.00    +0.019 C 
ENDROOT
BRANCH   1   2
ATOM      2  C   UNL     1      -1.916  -1.637  -0.525  0.00  0.00    +0.201 C 
ATOM      3  O   UNL     1      -1.459  -0.636  -0.017  0.00  0.00    -0.278 OA
ATOM      4  N   UNL     1      -3.095  -2.131  -0.100  0.00  0.00    -0.286 N 
ATOM      5  H   UNL     1      -3.432  -2.964  -0.465  0.00  0.00    +0.155 HD
BRANCH   4   6
ATOM      6  C   UNL     1      -3.831  -1.445   0.863  0.00  0.00    +0.045 A 
ATOM      7  C   UNL     1      -3.190  -0.873   1.954  0.00  0.00    +0.024 A 
ATOM      8  C   UNL     1      -3.920  -0.194   2.908  0.00  0.00    +0.002 A 
ATOM      9  C   UNL     1      -5.295  -0.076   2.786  0.00  0.00    +0.001 A 
ATOM     10  C   UNL     1      -5.949  -0.637   1.709  0.00  0.00    +0.015 A 
ATOM     11  C   UNL     1      -5.222  -1.322   0.733  0.00  0.00    +0.058 A 
BRANCH  11  12
ATOM     12  C   UNL     1      -5.914  -1.919  -0.424  0.00  0.00    +0.243 C 
ATOM     13  O   UNL     1      -5.288  -2.573  -1.237  0.00  0.00    -0.270 OA
ATOM     14  N   UNL     1      -7.241  -1.740  -0.582  0.00  0.00    -0.325 N 
ATOM     15  H   UNL     1      -7.740  -1.219   0.066  0.00  0.00    +0.145 HD
ATOM     16  H   UNL     1      -7.696  -2.133  -1.343  0.00  0.00    +0.145 HD
ENDBRANCH  11  12
ENDBRANCH   4   6
ENDBRANCH   1   2
BRANCH   1  17
ATOM     17  N   UNL     1      -0.008  -1.514  -2.026  0.00  0.00    +0.388 N 
ATOM     18  H   UNL     1       0.555  -1.314  -1.212  0.00  0.00    -0.081 HD
BRANCH  17  19
ATOM     19  C   UNL     1       0.798  -2.248  -3.010  0.00  0.00    -0.063 C 
ATOM     20  C   UNL     1       1.987  -1.385  -3.451  0.00  0.00    -0.010 C 
ATOM     21  C   UNL     1       2.663  -2.067  -4.638  0.00  0.00    +0.034 C 
ATOM     22  C   UNL     1       2.960  -3.510  -4.321  0.00  0.00    -0.044 A 
ATOM     23  C   UNL     1       3.893  -4.167  -5.113  0.00  0.00    +0.004 A 
ATOM     24  C   UNL     1       4.204  -5.490  -4.878  0.00  0.00    +0.000 A 
ATOM     25  C   UNL     1       3.583  -6.168  -3.845  0.00  0.00    +0.000 A 
ATOM     26  C   UNL     1       2.659  -5.516  -3.056  0.00  0.00    +0.004 A 
ATOM     27  C   UNL     1       2.346  -4.183  -3.289  0.00  0.00    -0.046 A 
ATOM     28  C   UNL     1       1.339  -3.529  -2.380  0.00  0.00    +0.020 C 
ENDBRANCH  17  19
BRANCH  17  29
ATOM     29  C   UNL     1      -0.477  -0.254  -2.618  0.00  0.00    -0.078 C 
BRANCH  29  31
ATOM     30  C   UNL     1      -1.747   0.759  -4.516  0.00  0.00    +0.002 C 
ATOM     31  C   UNL     1      -1.218  -0.549  -3.923  0.00  0.00    -0.022 C 
ENDBRANCH  29  31
ENDBRANCH  17  29
ENDBRANCH   1  17
TORSDOF 7
