REMARK  Name = ZINC66246311
REMARK  6 active torsions:
REMARK  status: ('A' for Active; 'I' for Inactive)
REMARK    1  A    between atoms: C_4  and  C_7
REMARK    2  A    between atoms: C_7  and  N_8
REMARK    3  A    between atoms: N_11  and  C_12
REMARK    4  A    between atoms: C_12  and  C_13
REMARK    5  A    between atoms: C_17  and  S_19
REMARK    6  A    between atoms: S_19  and  N_22
REMARK                            x       y       z     vdW  Elec       q    Type
REMARK                         _______ _______ _______ _____ _____    ______ ____
ROOT
ATOM      1  C   UNL     1       7.007  -2.548   3.115  0.00  0.00    +0.151 C 
ENDROOT
BRANCH   1   5
ATOM      2  N   UNL     1       4.152  -0.952   1.338  0.00  0.00    -0.354 N 
ATOM      3  C   UNL     1       5.334  -1.613   1.573  0.00  0.00    +0.169 C 
ATOM      4  N   UNL     1       6.063  -2.022   0.573  0.00  0.00    -0.371 N 
ATOM      5  N   UNL     1       5.747  -1.844   2.864  0.00  0.00    -0.354 N 
ATOM      6  H   UNL     1       3.610  -0.648   2.082  0.00  0.00    +0.163 HD
ATOM      7  H   UNL     1       6.897  -2.488   0.739  0.00  0.00    +0.159 HD
ATOM      8  H   UNL     1       5.205  -1.540   3.609  0.00  0.00    +0.163 HD
ATOM      9  H   UNL     1       5.771  -1.860  -0.338  0.00  0.00    +0.159 HD
BRANCH   2  10
ATOM     10  C   UNL     1       3.711  -0.707  -0.038  0.00  0.00    +0.151 C 
BRANCH  10  14
ATOM     11  C   UNL     1      -0.017   1.378   0.010  0.00  0.00    +0.000 A 
ATOM     12  C   UNL     1       1.171   2.086   0.002  0.00  0.00    +0.000 A 
ATOM     13  C   UNL     1       2.377   1.411  -0.013  0.00  0.00    +0.005 A 
ATOM     14  C   UNL     1       2.396   0.029  -0.020  0.00  0.00    -0.028 A 
ATOM     15  C   UNL     1       1.208  -0.679  -0.012  0.00  0.00    +0.005 A 
ATOM     16  C   UNL     1       0.002  -0.004   0.002  0.00  0.00    +0.000 A 
ENDBRANCH  10  14
ENDBRANCH   2  10
ENDBRANCH   1   5
BRANCH   1  17
ATOM     17  C   UNL     1       7.227  -2.670   4.601  0.00  0.00    -0.026 A 
ATOM     18  C   UNL     1       7.908  -1.678   5.283  0.00  0.00    +0.005 A 
ATOM     19  C   UNL     1       8.110  -1.790   6.646  0.00  0.00    +0.002 A 
ATOM     20  C   UNL     1       7.631  -2.893   7.327  0.00  0.00    +0.028 A 
ATOM     21  C   UNL     1       6.949  -3.884   6.646  0.00  0.00    +0.106 A 
ATOM     22  C   UNL     1       6.744  -3.770   5.283  0.00  0.00    +0.034 A 
BRANCH  21  23
ATOM     23  S   UNL     1       6.339  -5.291   7.514  0.00  0.00    +0.061 S 
ATOM     24  O   UNL     1       6.214  -6.335   6.559  0.00  0.00    -0.153 OA
ATOM     25  O   UNL     1       7.134  -5.421   8.686  0.00  0.00    -0.153 OA
BRANCH  23  26
ATOM     26  N   UNL     1       4.806  -4.926   8.021  0.00  0.00    -0.177 NA
ATOM     27  C   UNL     1       4.579  -4.291   9.326  0.00  0.00    +0.109 C 
ATOM     28  C   UNL     1       3.742  -3.025   9.121  0.00  0.00    +0.017 C 
ATOM     29  C   UNL     1       2.460  -3.383   8.366  0.00  0.00    +0.003 C 
ATOM     30  C   UNL     1       2.818  -3.954   6.992  0.00  0.00    +0.017 C 
ATOM     31  C   UNL     1       3.645  -5.225   7.170  0.00  0.00    +0.109 C 
ENDBRANCH  23  26
ENDBRANCH  21  23
ENDBRANCH   1  17
TORSDOF 6
