REMARK  Name = ZINC14647580
REMARK  11 active torsions:
REMARK  status: ('A' for Active; 'I' for Inactive)
REMARK    1  A    between atoms: C_1  and  C_2
REMARK    2  A    between atoms: C_2  and  C_3
REMARK    3  A    between atoms: C_3  and  O_4
REMARK    4  A    between atoms: O_4  and  C_5
REMARK    5  A    between atoms: C_8  and  C_12
REMARK    6  A    between atoms: N_14  and  C_15
REMARK    7  A    between atoms: C_15  and  N_17
REMARK    8  A    between atoms: N_17  and  C_18
REMARK    9  A    between atoms: C_19  and  C_25
REMARK   10  A    between atoms: C_20  and  C_24
REMARK   11  A    between atoms: C_21  and  C_23
REMARK                            x       y       z     vdW  Elec       q    Type
REMARK                         _______ _______ _______ _____ _____    ______ ____
ROOT
ATOM      1  C   UNL     1      -0.935   3.568   0.026  0.00  0.00    +0.141 C 
ATOM      2  S   UNL     1       0.648   4.219   0.022  0.00  0.00    -0.018 S 
ENDROOT
BRANCH   1   5
ATOM      3  C   UNL     1      -1.824   5.726   0.042  0.00  0.00    +0.250 C 
ATOM      4  O   UNL     1      -0.700   6.189   0.039  0.00  0.00    -0.270 OA
ATOM      5  N   UNL     1      -2.003   4.391   0.036  0.00  0.00    -0.264 N 
ATOM      6  H   UNL     1      -2.900   4.021   0.038  0.00  0.00    +0.157 HD
BRANCH   3  10
ATOM      7  C   UNL     1      -5.188   8.318   0.073  0.00  0.00    +0.134 A 
ATOM      8  C   UNL     1      -5.374   6.941   0.067  0.00  0.00    +0.047 A 
ATOM      9  C   UNL     1      -4.286   6.097   0.051  0.00  0.00    +0.017 A 
ATOM     10  C   UNL     1      -2.992   6.627   0.053  0.00  0.00    +0.038 A 
ATOM     11  C   UNL     1      -2.809   8.012   0.060  0.00  0.00    +0.032 A 
ATOM     12  C   UNL     1      -3.903   8.850   0.070  0.00  0.00    +0.060 A 
ATOM     13 BR   UNL     1      -3.657  10.725   0.079  0.00  0.00    -0.046 Br
BRANCH   7  14
ATOM     14  O   UNL     1      -6.263   9.146   0.083  0.00  0.00    -0.491 OA
BRANCH  14  15
ATOM     15  C   UNL     1      -7.554   8.533   0.086  0.00  0.00    +0.229 C 
BRANCH  15  17
ATOM     16  C   UNL     1     -10.015   8.961   0.101  0.00  0.00    +0.007 C 
ATOM     17  C   UNL     1      -8.633   9.617   0.098  0.00  0.00    +0.038 C 
ENDBRANCH  15  17
ENDBRANCH  14  15
ENDBRANCH   7  14
ENDBRANCH   3  10
ENDBRANCH   1   5
BRANCH   1  18
ATOM     18  N   UNL     1      -1.114   2.232   0.020  0.00  0.00    -0.291 N 
ATOM     19  H   UNL     1      -2.011   1.863   0.022  0.00  0.00    +0.154 HD
BRANCH  18  20
ATOM     20  C   UNL     1      -0.017   1.386   0.010  0.00  0.00    +0.084 A 
ATOM     21  C   UNL     1       0.002  -0.004   0.002  0.00  0.00    +0.068 A 
ATOM     22  C   UNL     1       1.300  -0.635  -0.014  0.00  0.00    -0.027 A 
ATOM     23  C   UNL     1       2.376   0.172  -0.020  0.00  0.00    -0.008 A 
ATOM     24  S   UNL     1       1.663   1.804  -0.004  0.00  0.00    -0.078 S 
ATOM     25  C   UNL     1       3.833  -0.212  -0.036  0.00  0.00    +0.052 C 
ATOM     26  C   UNL     1       1.444  -2.135  -0.023  0.00  0.00    +0.045 C 
BRANCH  21  27
ATOM     27  C   UNL     1      -1.235  -0.790   0.010  0.00  0.00    +0.244 C 
ATOM     28  O   UNL     1      -1.759  -1.111  -1.041  0.00  0.00    -0.270 OA
ATOM     29  N   UNL     1      -1.793  -1.157   1.181  0.00  0.00    -0.325 N 
ATOM     30  H   UNL     1      -1.375  -0.901   2.018  0.00  0.00    +0.145 HD
ATOM     31  H   UNL     1      -2.611  -1.677   1.186  0.00  0.00    +0.145 HD
ENDBRANCH  21  27
ENDBRANCH  18  20
ENDBRANCH   1  18
TORSDOF 8
