REMARK  Name = ZINC45356130
REMARK  9 active torsions:
REMARK  status: ('A' for Active; 'I' for Inactive)
REMARK    1  A    between atoms: C_1  and  C_2
REMARK    2  A    between atoms: C_2  and  C_4
REMARK    3  A    between atoms: C_2  and  N_14
REMARK    4  A    between atoms: C_7  and  S_10
REMARK    5  A    between atoms: S_10  and  N_13
REMARK    6  A    between atoms: N_14  and  C_15
REMARK    7  A    between atoms: N_14  and  C_16
REMARK    8  A    between atoms: C_16  and  C_17
REMARK    9  A    between atoms: N_19  and  C_20
REMARK                            x       y       z     vdW  Elec       q    Type
REMARK                         _______ _______ _______ _____ _____    ______ ____
ROOT
ATOM      1  N   UNL     1       0.710  -0.477  -1.194  0.00  0.00    +0.388 N 
ATOM      2  C   UNL     1      -0.008   0.014  -2.379  0.00  0.00    -0.095 C 
ATOM      3  H   UNL     1       1.657  -0.131  -1.208  0.00  0.00    -0.081 HD
ENDROOT
BRANCH   1   5
ATOM      4  C   UNL     1       0.016   1.527   0.031  0.00  0.00    -0.008 C 
ATOM      5  C   UNL     1       0.032  -0.003   0.020  0.00  0.00    -0.041 C 
BRANCH   5   6
ATOM      6  C   UNL     1       0.768  -0.506   1.235  0.00  0.00    -0.061 A 
ATOM      7  C   UNL     1       2.150  -0.521   1.248  0.00  0.00    +0.004 A 
ATOM      8  C   UNL     1       2.825  -0.983   2.363  0.00  0.00    +0.029 A 
ATOM      9  C   UNL     1       2.118  -1.430   3.464  0.00  0.00    +0.105 A 
ATOM     10  C   UNL     1       0.736  -1.414   3.450  0.00  0.00    +0.029 A 
ATOM     11  C   UNL     1       0.061  -0.948   2.337  0.00  0.00    +0.004 A 
BRANCH   9  12
ATOM     12  S   UNL     1       2.979  -2.019   4.884  0.00  0.00    +0.056 S 
ATOM     13  O   UNL     1       2.087  -2.889   5.567  0.00  0.00    -0.153 OA
ATOM     14  O   UNL     1       4.260  -2.441   4.436  0.00  0.00    -0.153 OA
BRANCH  12  15
ATOM     15  N   UNL     1       3.229  -0.720   5.879  0.00  0.00    -0.204 NA
ATOM     16  H   UNL     1       2.912   0.159   5.618  0.00  0.00    +0.144 HD
ATOM     17  H   UNL     1       3.693  -0.838   6.723  0.00  0.00    +0.144 HD
ENDBRANCH  12  15
ENDBRANCH   9  12
ENDBRANCH   5   6
ENDBRANCH   1   5
BRANCH   1  18
ATOM     18  C   UNL     1       0.725  -1.946  -1.205  0.00  0.00    +0.019 C 
BRANCH  18  19
ATOM     19  C   UNL     1       1.526  -2.431  -2.386  0.00  0.00    +0.201 C 
ATOM     20  O   UNL     1       2.034  -1.633  -3.144  0.00  0.00    -0.278 OA
ATOM     21  N   UNL     1       1.677  -3.753  -2.599  0.00  0.00    -0.286 N 
ATOM     22  H   UNL     1       1.327  -4.392  -1.958  0.00  0.00    +0.155 HD
BRANCH  21  23
ATOM     23  C   UNL     1       2.341  -4.206  -3.747  0.00  0.00    +0.052 A 
ATOM     24  C   UNL     1       3.406  -3.482  -4.265  0.00  0.00    +0.027 A 
ATOM     25  C   UNL     1       4.060  -3.930  -5.396  0.00  0.00    +0.040 A 
ATOM     26  C   UNL     1       3.653  -5.100  -6.015  0.00  0.00    +0.125 A 
ATOM     27  C   UNL     1       2.590  -5.824  -5.501  0.00  0.00    +0.060 A 
ATOM     28  C   UNL     1       1.938  -5.383  -4.365  0.00  0.00    +0.065 A 
ATOM     29 CL   UNL     1       0.611  -6.295  -3.716  0.00  0.00    -0.082 Cl
ATOM     30  F   UNL     1       4.293  -5.536  -7.122  0.00  0.00    -0.205 F 
ENDBRANCH  21  23
ENDBRANCH  18  19
ENDBRANCH   1  18
TORSDOF 7
