REMARK  Name = ZINC03405752
REMARK  15 active torsions:
REMARK  status: ('A' for Active; 'I' for Inactive)
REMARK    1  A    between atoms: C_1  and  C_2
REMARK    2  A    between atoms: C_2  and  C_3
REMARK    3  A    between atoms: C_6  and  C_9
REMARK    4  A    between atoms: C_9  and  O_11
REMARK    5  A    between atoms: O_11  and  C_12
REMARK    6  A    between atoms: C_12  and  C_13
REMARK    7  A    between atoms: N_15  and  C_16
REMARK    8  A    between atoms: C_17  and  C_28
REMARK    9  A    between atoms: C_21  and  C_26
REMARK   10  A    between atoms: C_21  and  C_27
REMARK   11  A    between atoms: C_22  and  C_24
REMARK   12  A    between atoms: C_22  and  C_25
REMARK   13  A    between atoms: C_28  and  O_30
REMARK   14  A    between atoms: O_30  and  C_31
REMARK   15  A    between atoms: C_31  and  C_32
REMARK                            x       y       z     vdW  Elec       q    Type
REMARK                         _______ _______ _______ _____ _____    ______ ____
ROOT
ATOM      1  C   UNL     1       5.894   2.421  -0.041  0.00  0.00    +0.086 A 
ATOM      2  C   UNL     1       7.247   2.099  -0.056  0.00  0.00    +0.091 A 
ATOM      3  C   UNL     1       8.190   3.197  -0.064  0.00  0.00    -0.024 A 
ATOM      4  C   UNL     1       7.645   4.435  -0.046  0.00  0.00    -0.016 A 
ATOM      5  S   UNL     1       5.898   4.154  -0.030  0.00  0.00    -0.079 S 
ATOM      6  C   UNL     1       8.385   5.733  -0.034  0.00  0.00    -0.041 C 
ATOM      7  C   UNL     1      10.254   4.292  -0.849  0.00  0.00    -0.069 C 
ATOM      8  C   UNL     1       9.707   3.071  -0.099  0.00  0.00    +0.024 C 
ATOM      9  C   UNL     1       9.834   4.212  -2.319  0.00  0.00    -0.010 C 
ATOM     10  C   UNL     1      11.792   4.232  -0.792  0.00  0.00    -0.010 C 
ATOM     11  C   UNL     1       7.805   6.661  -1.111  0.00  0.00    -0.005 C 
ATOM     12  C   UNL     1       8.167   6.402   1.337  0.00  0.00    -0.005 C 
ATOM     13  N   UNL     1       9.855   5.583  -0.231  0.00  0.00    +0.389 N 
ATOM     14  H   UNL     1      10.313   5.657   0.686  0.00  0.00    -0.084 HD
ATOM     15  H   UNL     1      10.180   6.345  -0.837  0.00  0.00    -0.084 HD
ENDROOT
BRANCH   1  18
ATOM     16  C   UNL     1       3.554   2.060  -0.021  0.00  0.00    +0.255 C 
ATOM     17  O   UNL     1       3.379   3.260  -0.013  0.00  0.00    -0.272 OA
ATOM     18  N   UNL     1       4.806   1.562  -0.035  0.00  0.00    -0.277 N 
ATOM     19  H   UNL     1       4.946   0.602  -0.042  0.00  0.00    +0.155 HD
BRANCH  16  20
ATOM     20  C   UNL     1       2.371   1.126  -0.015  0.00  0.00    +0.328 C 
BRANCH  20  21
ATOM     21  O   UNL     1       1.143   1.900   0.001  0.00  0.00    -0.452 OA
BRANCH  21  22
ATOM     22  C   UNL     1      -0.014   1.210   0.009  0.00  0.00    +0.340 C 
ATOM     23  O   UNL     1       0.002  -0.004   0.002  0.00  0.00    -0.245 OA
BRANCH  22  27
ATOM     24  C   UNL     1      -3.720   3.284   0.037  0.00  0.00    -0.048 A 
ATOM     25  C   UNL     1      -3.705   1.900   0.030  0.00  0.00    +0.004 A 
ATOM     26  C   UNL     1      -2.505   1.220   0.021  0.00  0.00    +0.015 A 
ATOM     27  C   UNL     1      -1.304   1.932   0.019  0.00  0.00    +0.059 A 
ATOM     28  C   UNL     1      -1.326   3.328   0.032  0.00  0.00    +0.015 A 
ATOM     29  C   UNL     1      -2.534   3.995   0.036  0.00  0.00    +0.004 A 
BRANCH  24  31
ATOM     30  C   UNL     1      -5.474   4.261   1.493  0.00  0.00    +0.009 C 
ATOM     31  C   UNL     1      -5.036   4.019   0.047  0.00  0.00    +0.032 C 
ENDBRANCH  24  31
ENDBRANCH  22  27
ENDBRANCH  21  22
ENDBRANCH  20  21
ENDBRANCH  16  20
ENDBRANCH   1  18
BRANCH   2  32
ATOM     32  C   UNL     1       7.687   0.702  -0.059  0.00  0.00    +0.342 C 
ATOM     33  O   UNL     1       7.858   0.120  -1.113  0.00  0.00    -0.245 OA
BRANCH  32  34
ATOM     34  O   UNL     1       7.902   0.060   1.108  0.00  0.00    -0.461 OA
BRANCH  34  35
ATOM     35  C   UNL     1       8.336  -1.323   1.030  0.00  0.00    +0.229 C 
ATOM     36  C   UNL     1       8.526  -1.879   2.442  0.00  0.00    +0.048 C 
ENDBRANCH  34  35
ENDBRANCH  32  34
ENDBRANCH   2  32
TORSDOF 9
