REMARK  Name = ZINC34684004
REMARK  12 active torsions:
REMARK  status: ('A' for Active; 'I' for Inactive)
REMARK    1  A    between atoms: C_1  and  C_2
REMARK    2  A    between atoms: C_5  and  S_8
REMARK    3  A    between atoms: S_8  and  N_11
REMARK    4  A    between atoms: N_11  and  C_12
REMARK    5  A    between atoms: N_11  and  C_20
REMARK    6  A    between atoms: C_16  and  O_18
REMARK    7  A    between atoms: O_18  and  C_19
REMARK    8  A    between atoms: N_23  and  C_26
REMARK    9  A    between atoms: C_26  and  C_27
REMARK   10  A    between atoms: C_31  and  O_34
REMARK   11  A    between atoms: C_32  and  O_33
REMARK   12  A    between atoms: O_34  and  C_35
REMARK                            x       y       z     vdW  Elec       q    Type
REMARK                         _______ _______ _______ _____ _____    ______ ____
ROOT
ATOM      1  N   UNL     1       1.651  -4.999  -0.034  0.00  0.00    -0.200 N 
ENDROOT
BRANCH   1   2
ATOM      2  C   UNL     1       2.003  -5.892  -1.141  0.00  0.00    +0.095 C 
ATOM      3  C   UNL     1       1.709  -7.341  -0.744  0.00  0.00    +0.006 C 
ATOM      4  C   UNL     1       2.153  -8.274  -1.872  0.00  0.00    -0.077 C 
ATOM      5  N   UNL     1       3.593  -8.113  -2.107  0.00  0.00    +0.383 N 
ATOM      6  C   UNL     1       3.873  -6.745  -2.558  0.00  0.00    -0.077 C 
ATOM      7  C   UNL     1       3.496  -5.753  -1.456  0.00  0.00    +0.006 C 
ATOM      8  H   UNL     1       4.095  -8.293  -1.251  0.00  0.00    -0.081 HD
BRANCH   5   9
ATOM      9  C   UNL     1       4.029  -9.065  -3.137  0.00  0.00    -0.039 C 
BRANCH   9  10
ATOM     10  C   UNL     1       5.526  -8.986  -3.293  0.00  0.00    -0.019 A 
ATOM     11  C   UNL     1       6.076  -8.260  -4.333  0.00  0.00    +0.005 A 
ATOM     12  C   UNL     1       7.449  -8.185  -4.478  0.00  0.00    +0.004 A 
ATOM     13  C   UNL     1       8.278  -8.838  -3.584  0.00  0.00    +0.049 A 
ATOM     14  C   UNL     1       7.734  -9.568  -2.540  0.00  0.00    +0.161 A 
ATOM     15  C   UNL     1       6.351  -9.637  -2.390  0.00  0.00    +0.160 A 
BRANCH  15  16
ATOM     16  O   UNL     1       5.812 -10.348  -1.364  0.00  0.00    -0.503 OA
ATOM     17  H   UNL     1       5.642 -11.276  -1.575  0.00  0.00    +0.292 HD
ENDBRANCH  15  16
BRANCH  14  18
ATOM     18  O   UNL     1       8.548 -10.210  -1.660  0.00  0.00    -0.491 OA
ATOM     19  C   UNL     1       9.956 -10.089  -1.873  0.00  0.00    +0.277 C 
ENDBRANCH  14  18
ENDBRANCH   9  10
ENDBRANCH   5   9
ENDBRANCH   1   2
BRANCH   1  20
ATOM     20  C   UNL     1       2.311  -5.112   1.191  0.00  0.00    +0.055 A 
ATOM     21  C   UNL     1       3.458  -4.366   1.435  0.00  0.00    +0.025 A 
ATOM     22  C   UNL     1       4.111  -4.477   2.647  0.00  0.00    +0.005 A 
ATOM     23  C   UNL     1       3.626  -5.330   3.620  0.00  0.00    +0.046 A 
ATOM     24  C   UNL     1       2.481  -6.077   3.383  0.00  0.00    +0.122 A 
ATOM     25  C   UNL     1       1.820  -5.965   2.170  0.00  0.00    +0.070 A 
BRANCH  24  26
ATOM     26  O   UNL     1       2.005  -6.915   4.341  0.00  0.00    -0.495 OA
ATOM     27  C   UNL     1       2.734  -6.977   5.569  0.00  0.00    +0.277 C 
ENDBRANCH  24  26
ENDBRANCH   1  20
BRANCH   1  28
ATOM     28  S   UNL     1       0.469  -3.857  -0.236  0.00  0.00    +0.075 S 
ATOM     29  O   UNL     1      -0.099  -3.629   1.046  0.00  0.00    -0.150 OA
ATOM     30  O   UNL     1      -0.308  -4.270  -1.351  0.00  0.00    -0.150 OA
BRANCH  28  35
ATOM     31  C   UNL     1       3.203   1.275  -1.848  0.00  0.00    +0.044 C 
ATOM     32  C   UNL     1       2.521  -0.007  -1.445  0.00  0.00    -0.050 A 
ATOM     33  C   UNL     1       2.107  -0.903  -2.413  0.00  0.00    +0.005 A 
ATOM     34  C   UNL     1       1.481  -2.079  -2.044  0.00  0.00    +0.029 A 
ATOM     35  C   UNL     1       1.268  -2.359  -0.707  0.00  0.00    +0.109 A 
ATOM     36  C   UNL     1       1.683  -1.463   0.261  0.00  0.00    +0.029 A 
ATOM     37  C   UNL     1       2.312  -0.289  -0.108  0.00  0.00    +0.005 A 
ENDBRANCH  28  35
ENDBRANCH   1  28
TORSDOF 9
