REMARK  Name = ZINC12040970
REMARK  8 active torsions:
REMARK  status: ('A' for Active; 'I' for Inactive)
REMARK    1  A    between atoms: C_1  and  C_2
REMARK    2  A    between atoms: N_4  and  C_5
REMARK    3  A    between atoms: C_7  and  C_18
REMARK    4  A    between atoms: C_9  and  C_11
REMARK    5  A    between atoms: C_18  and  N_51
REMARK    6  A    between atoms: C_19  and  C_20
REMARK    7  A    between atoms: C_19  and  N_51
REMARK    8  A    between atoms: C_25  and  O_26
REMARK                            x       y       z     vdW  Elec       q    Type
REMARK                         _______ _______ _______ _____ _____    ______ ____
ROOT
ATOM      1  C   UNL     1       4.883   1.374  -5.379  0.00  0.00    +0.034 A 
ATOM      2  C   UNL     1       3.573   0.961  -5.163  0.00  0.00    +0.025 A 
ATOM      3  C   UNL     1       2.702   1.757  -4.445  0.00  0.00    -0.062 A 
ATOM      4  C   UNL     1       3.124   2.971  -3.942  0.00  0.00    +0.015 A 
ATOM      5  C   UNL     1       4.438   3.393  -4.150  0.00  0.00    +0.039 A 
ATOM      6  C   UNL     1       5.318   2.589  -4.875  0.00  0.00    +0.036 A 
ENDROOT
BRANCH   5   7
ATOM      7  C   UNL     1       4.895   4.691  -3.608  0.00  0.00    +0.247 C 
ATOM      8  O   UNL     1       4.173   5.329  -2.867  0.00  0.00    -0.270 OA
ATOM      9  N   UNL     1       6.112   5.168  -3.937  0.00  0.00    -0.298 N 
ATOM     10  C   UNL     1       7.131   4.451  -4.717  0.00  0.00    +0.108 C 
ATOM     11  C   UNL     1       8.363   5.375  -4.820  0.00  0.00    +0.020 C 
ATOM     12  C   UNL     1       8.184   6.326  -3.607  0.00  0.00    +0.020 C 
ATOM     13  C   UNL     1       6.645   6.492  -3.567  0.00  0.00    +0.108 C 
ENDBRANCH   5   7
BRANCH   1  17
ATOM     14  C   UNL     1       6.692  -1.648  -6.707  0.00  0.00    +0.109 C 
ATOM     15  C   UNL     1       5.682  -0.778  -6.005  0.00  0.00    +0.214 C 
ATOM     16  O   UNL     1       4.798  -1.285  -5.347  0.00  0.00    -0.276 OA
ATOM     17  N   UNL     1       5.761   0.564  -6.107  0.00  0.00    -0.286 N 
ATOM     18  H   UNL     1       6.427   0.968  -6.686  0.00  0.00    +0.155 HD
ENDBRANCH   1  17
BRANCH   3  19
ATOM     19  C   UNL     1       1.284   1.302  -4.215  0.00  0.00    -0.046 C 
BRANCH  19  20
ATOM     20  N   UNL     1       1.223   0.524  -2.963  0.00  0.00    +0.384 N 
ATOM     21  H   UNL     1       1.530   1.115  -2.182  0.00  0.00    -0.085 HD
ATOM     22  H   UNL     1       1.843  -0.291  -3.040  0.00  0.00    -0.085 HD
BRANCH  20  23
ATOM     23  C   UNL     1      -0.157   0.065  -2.713  0.00  0.00    -0.043 C 
BRANCH  23  24
ATOM     24  C   UNL     1      -0.189  -0.726  -1.430  0.00  0.00    -0.022 A 
ATOM     25  C   UNL     1      -0.182  -2.107  -1.469  0.00  0.00    +0.025 A 
ATOM     26  C   UNL     1      -0.218  -2.833  -0.291  0.00  0.00    +0.041 A 
ATOM     27  C   UNL     1      -0.253  -2.177   0.927  0.00  0.00    +0.023 A 
ATOM     28  C   UNL     1      -0.254  -0.796   0.970  0.00  0.00    +0.047 A 
ATOM     29  C   UNL     1      -0.219  -0.067  -0.210  0.00  0.00    +0.118 A 
ATOM     30 CL   UNL     1      -0.217  -4.568  -0.343  0.00  0.00    -0.084 Cl
BRANCH  29  31
ATOM     31  O   UNL     1      -0.220   1.292  -0.170  0.00  0.00    -0.507 OA
ATOM     32  H   UNL     1       0.663   1.685  -0.132  0.00  0.00    +0.292 HD
ENDBRANCH  29  31
ENDBRANCH  23  24
ENDBRANCH  20  23
ENDBRANCH  19  20
ENDBRANCH   3  19
TORSDOF 7
