REMARK  Name = ZINC58215430
REMARK  10 active torsions:
REMARK  status: ('A' for Active; 'I' for Inactive)
REMARK    1  A    between atoms: C_1  and  C_2
REMARK    2  A    between atoms: C_7  and  N_8
REMARK    3  A    between atoms: C_9  and  C_11
REMARK    4  A    between atoms: C_11  and  C_13
REMARK    5  A    between atoms: C_11  and  N_14
REMARK    6  A    between atoms: C_18  and  C_21
REMARK    7  A    between atoms: C_21  and  N_22
REMARK    8  A    between atoms: C_23  and  C_25
REMARK    9  A    between atoms: C_25  and  C_26
REMARK   10  A    between atoms: C_25  and  C_27
REMARK                            x       y       z     vdW  Elec       q    Type
REMARK                         _______ _______ _______ _____ _____    ______ ____
ROOT
ATOM      1  N   UNL     1      -0.121  -0.900   5.998  0.00  0.00    +0.387 N 
ATOM      2  C   UNL     1      -0.118  -0.164   7.269  0.00  0.00    -0.078 C 
ATOM      3  C   UNL     1      -0.151  -1.153   8.436  0.00  0.00    -0.018 C 
ATOM      4  C   UNL     1       1.082  -2.059   8.365  0.00  0.00    +0.001 C 
ATOM      5  C   UNL     1       1.108  -2.765   7.007  0.00  0.00    -0.011 C 
ATOM      6  C   UNL     1       1.095  -1.716   5.893  0.00  0.00    -0.073 C 
ATOM      7  H   UNL     1      -0.932  -1.499   5.961  0.00  0.00    -0.081 HD
ENDROOT
BRANCH   1   8
ATOM      8  C   UNL     1      -0.168   0.054   4.882  0.00  0.00    +0.016 C 
ATOM      9  C   UNL     1      -1.360   0.995   5.065  0.00  0.00    -0.004 C 
BRANCH   8  11
ATOM     10  N   UNL     1      -0.116  -0.065   2.412  0.00  0.00    -0.287 N 
ATOM     11  C   UNL     1      -0.316  -0.698   3.585  0.00  0.00    +0.203 C 
ATOM     12  O   UNL     1      -0.615  -1.874   3.596  0.00  0.00    -0.277 OA
ATOM     13  H   UNL     1       0.197   0.853   2.404  0.00  0.00    +0.155 HD
BRANCH  10  20
ATOM     14  C   UNL     1      -1.119   1.446   0.220  0.00  0.00    +0.045 C 
ATOM     15  C   UNL     1      -0.849  -0.033   0.111  0.00  0.00    -0.029 A 
ATOM     16  C   UNL     1      -1.083  -0.693  -1.080  0.00  0.00    +0.006 A 
ATOM     17  C   UNL     1      -0.835  -2.049  -1.181  0.00  0.00    +0.020 A 
ATOM     18  C   UNL     1      -0.352  -2.750  -0.090  0.00  0.00    +0.043 A 
ATOM     19  C   UNL     1      -0.116  -2.096   1.104  0.00  0.00    +0.043 A 
ATOM     20  C   UNL     1      -0.359  -0.732   1.206  0.00  0.00    +0.038 A 
ATOM     21 CL   UNL     1      -0.042  -4.454  -0.221  0.00  0.00    -0.083 Cl
ENDBRANCH  10  20
ENDBRANCH   8  11
ENDBRANCH   1   8
BRANCH   5  22
ATOM     22  C   UNL     1       2.377  -3.613   6.896  0.00  0.00    +0.106 C 
BRANCH  22  23
ATOM     23  N   UNL     1       2.333  -4.688   7.890  0.00  0.00    -0.315 N 
ATOM     24  C   UNL     1       3.352  -5.566   7.977  0.00  0.00    +0.216 C 
ATOM     25  O   UNL     1       4.305  -5.466   7.233  0.00  0.00    -0.276 OA
ATOM     26  H   UNL     1       1.572  -4.768   8.485  0.00  0.00    +0.149 HD
BRANCH  24  27
ATOM     27  C   UNL     1       3.308  -6.672   9.000  0.00  0.00    +0.069 C 
ATOM     28  C   UNL     1       4.577  -7.520   8.889  0.00  0.00    +0.017 C 
ATOM     29  C   UNL     1       3.220  -6.067  10.402  0.00  0.00    +0.017 C 
ENDBRANCH  24  27
ENDBRANCH  22  23
ENDBRANCH   5  22
TORSDOF 6
