REMARK  Name = ZINC39442490
REMARK  9 active torsions:
REMARK  status: ('A' for Active; 'I' for Inactive)
REMARK    1  A    between atoms: C_1  and  O_2
REMARK    2  A    between atoms: O_2  and  C_3
REMARK    3  A    between atoms: C_7  and  C_9
REMARK    4  A    between atoms: C_12  and  C_16
REMARK    5  A    between atoms: C_16  and  C_17
REMARK    6  A    between atoms: C_17  and  O_35
REMARK    7  A    between atoms: N_20  and  C_23
REMARK    8  A    between atoms: C_23  and  C_24
REMARK    9  A    between atoms: C_27  and  C_29
REMARK                            x       y       z     vdW  Elec       q    Type
REMARK                         _______ _______ _______ _____ _____    ______ ____
ROOT
ATOM      1  C   UNL     1       1.197  -7.299   5.920  0.00  0.00    +0.065 C 
ATOM      2  C   UNL     1       1.083  -8.498   4.975  0.00  0.00    +0.016 C 
ATOM      3  C   UNL     1       1.708  -9.727   5.640  0.00  0.00    -0.075 C 
ATOM      4  N   UNL     1       1.003 -10.021   6.894  0.00  0.00    +0.385 N 
ATOM      5  C   UNL     1       1.169  -8.904   7.832  0.00  0.00    -0.075 C 
ATOM      6  C   UNL     1       0.523  -7.644   7.251  0.00  0.00    +0.016 C 
ATOM      7  H   UNL     1       0.021 -10.155   6.703  0.00  0.00    -0.081 HD
ENDROOT
BRANCH   1   8
ATOM      8  O   UNL     1       2.575  -6.997   6.147  0.00  0.00    -0.389 OA
ATOM      9  H   UNL     1       3.077  -7.723   6.543  0.00  0.00    +0.210 HD
ENDBRANCH   1   8
BRANCH   1  10
ATOM     10  C   UNL     1       0.504  -6.087   5.295  0.00  0.00    +0.068 C 
BRANCH  10  13
ATOM     11  C   UNL     1       1.389  -4.130   2.211  0.00  0.00    +0.114 C 
ATOM     12  C   UNL     1       0.330  -4.676   3.197  0.00  0.00    +0.059 C 
ATOM     13  C   UNL     1       1.095  -5.819   3.910  0.00  0.00    +0.146 C 
ATOM     14  O   UNL     1       2.436  -5.287   4.014  0.00  0.00    -0.296 OA
ATOM     15  N   UNL     1       2.691  -4.564   2.757  0.00  0.00    -0.193 NA
ATOM     16  H   UNL     1       3.184  -5.146   2.097  0.00  0.00    +0.154 HD
BRANCH  11  21
ATOM     17  C   UNL     1       0.626  -0.618   1.042  0.00  0.00    +0.120 A 
ATOM     18  C   UNL     1       1.202   0.139   2.051  0.00  0.00    +0.045 A 
ATOM     19  C   UNL     1       1.835  -0.488   3.107  0.00  0.00    +0.004 A 
ATOM     20  C   UNL     1       1.895  -1.869   3.158  0.00  0.00    +0.005 A 
ATOM     21  C   UNL     1       1.321  -2.625   2.153  0.00  0.00    -0.025 A 
ATOM     22  C   UNL     1       0.682  -2.003   1.097  0.00  0.00    +0.051 A 
BRANCH  17  24
ATOM     23  C   UNL     1      -0.017   1.425   0.010  0.00  0.00    +0.277 C 
ATOM     24  O   UNL     1       0.002  -0.004   0.002  0.00  0.00    -0.495 OA
ENDBRANCH  17  24
ENDBRANCH  11  21
ENDBRANCH  10  13
ENDBRANCH   1  10
BRANCH   4  25
ATOM     25  C   UNL     1       1.555 -11.245   7.489  0.00  0.00    -0.003 C 
BRANCH  25  26
ATOM     26  C   UNL     1       0.753 -11.616   8.710  0.00  0.00    +0.089 A 
ATOM     27  C   UNL     1      -0.328 -12.416   8.727  0.00  0.00    +0.043 A 
ATOM     28  C   UNL     1      -0.761 -12.491  10.071  0.00  0.00    +0.047 A 
ATOM     29  C   UNL     1       0.082 -11.731  10.794  0.00  0.00    +0.135 A 
ATOM     30  O   UNL     1       1.000 -11.209   9.965  0.00  0.00    -0.464 OA
BRANCH  29  31
ATOM     31  C   UNL     1       0.011 -11.509  12.283  0.00  0.00    +0.218 C 
ATOM     32  C   UNL     1      -0.587 -10.149  12.595  0.00  0.00    +0.030 C 
ATOM     33  C   UNL     1       0.390  -9.511  13.245  0.00  0.00    +0.133 C 
ATOM     34  N   UNL     1       1.482 -10.298  13.363  0.00  0.00    -0.162 NA
ATOM     35  N   UNL     1       1.362 -11.423  12.862  0.00  0.00    -0.172 NA
ENDBRANCH  29  31
ENDBRANCH  25  26
ENDBRANCH   4  25
TORSDOF 8
