REMARK  Name = ZINC32579237
REMARK  9 active torsions:
REMARK  status: ('A' for Active; 'I' for Inactive)
REMARK    1  A    between atoms: C_1  and  C_2
REMARK    2  A    between atoms: C_4  and  O_5
REMARK    3  A    between atoms: N_13  and  C_14
REMARK    4  A    between atoms: C_14  and  N_16
REMARK    5  A    between atoms: N_16  and  N_17
REMARK    6  A    between atoms: C_18  and  C_20
REMARK    7  A    between atoms: C_20  and  C_22
REMARK    8  A    between atoms: C_20  and  O_23
REMARK    9  A    between atoms: O_23  and  C_24
REMARK                            x       y       z     vdW  Elec       q    Type
REMARK                         _______ _______ _______ _____ _____    ______ ____
ROOT
ATOM      1  C   UNL     1      -3.015  -4.893   1.792  0.00  0.00    +0.151 C 
ATOM      2  S   UNL     1      -2.814  -6.524   2.271  0.00  0.00    -0.017 S 
ENDROOT
BRANCH   1  14
ATOM      3  C   UNL     1      -8.877  -8.909   2.570  0.00  0.00    +0.045 C 
ATOM      4  C   UNL     1      -8.744  -7.478   3.024  0.00  0.00    -0.033 A 
ATOM      5  C   UNL     1      -9.711  -6.892   3.778  0.00  0.00    +0.091 A 
ATOM      6  C   UNL     1      -9.563  -5.552   4.190  0.00  0.00    +0.285 A 
ATOM      7  O   UNL     1      -8.484  -4.827   3.857  0.00  0.00    -0.425 OA
ATOM      8  C   UNL     1      -7.487  -5.348   3.110  0.00  0.00    +0.141 A 
ATOM      9  C   UNL     1      -7.570  -6.681   2.664  0.00  0.00    +0.021 A 
ATOM     10  C   UNL     1      -6.539  -7.227   1.891  0.00  0.00    +0.013 A 
ATOM     11  C   UNL     1      -5.457  -6.461   1.564  0.00  0.00    +0.024 A 
ATOM     12  C   UNL     1      -5.367  -5.142   2.007  0.00  0.00    +0.036 A 
ATOM     13  C   UNL     1      -6.379  -4.586   2.775  0.00  0.00    +0.070 A 
ATOM     14  N   UNL     1      -4.253  -4.374   1.670  0.00  0.00    -0.296 N 
ATOM     15  H   UNL     1      -4.384  -3.345   1.305  0.00  0.00    +0.154 HD
BRANCH   6  16
ATOM     16  O   UNL     1     -10.437  -5.039   4.866  0.00  0.00    -0.480 OA
ATOM     17  H   UNL     1     -10.336  -3.994   5.195  0.00  0.00    +0.295 HD
ENDBRANCH   6  16
ENDBRANCH   1  14
BRANCH   1  18
ATOM     18  N   UNL     1      -1.935  -4.128   1.537  0.00  0.00    -0.246 N 
ATOM     19  H   UNL     1      -0.925  -4.551   1.637  0.00  0.00    +0.172 HD
BRANCH  18  20
ATOM     20  N   UNL     1      -2.099  -2.792   1.146  0.00  0.00    -0.232 N 
ATOM     21  C   UNL     1      -1.020  -2.027   0.891  0.00  0.00    +0.270 C 
ATOM     22  O   UNL     1       0.094  -2.494   1.001  0.00  0.00    -0.270 OA
ATOM     23  H   UNL     1      -3.110  -2.369   1.046  0.00  0.00    +0.173 HD
BRANCH  21  24
ATOM     24  C   UNL     1      -1.197  -0.591   0.470  0.00  0.00    +0.257 C 
ATOM     25  C   UNL     1      -2.003  -0.536  -0.829  0.00  0.00    +0.062 C 
BRANCH  24  26
ATOM     26  O   UNL     1       0.085   0.005   0.260  0.00  0.00    -0.480 OA
BRANCH  26  27
ATOM     27  C   UNL     1       0.173   1.352   0.420  0.00  0.00    +0.122 A 
ATOM     28  C   UNL     1       1.412   1.976   0.392  0.00  0.00    +0.045 A 
ATOM     29  C   UNL     1       1.498   3.345   0.550  0.00  0.00    +0.004 A 
ATOM     30  C   UNL     1       0.352   4.093   0.748  0.00  0.00    +0.000 A 
ATOM     31  C   UNL     1      -0.884   3.473   0.782  0.00  0.00    +0.004 A 
ATOM     32  C   UNL     1      -0.976   2.104   0.619  0.00  0.00    +0.045 A 
ENDBRANCH  26  27
ENDBRANCH  24  26
ENDBRANCH  21  24
ENDBRANCH  18  20
ENDBRANCH   1  18
TORSDOF 7
