REMARK  Name = ZINC17853659
REMARK  8 active torsions:
REMARK  status: ('A' for Active; 'I' for Inactive)
REMARK    1  A    between atoms: C_1  and  C_2
REMARK    2  A    between atoms: C_2  and  C_4
REMARK    3  A    between atoms: C_2  and  N_14
REMARK    4  A    between atoms: C_7  and  S_10
REMARK    5  A    between atoms: S_10  and  N_13
REMARK    6  A    between atoms: C_15  and  C_17
REMARK    7  A    between atoms: C_17  and  S_18
REMARK    8  A    between atoms: S_18  and  C_19
REMARK                            x       y       z     vdW  Elec       q    Type
REMARK                         _______ _______ _______ _____ _____    ______ ____
ROOT
ATOM      1  N   UNL     1       4.168  10.236   0.013  0.00  0.00    -0.308 N 
ATOM      2  C   UNL     1       2.947   9.665   0.022  0.00  0.00    +0.224 C 
ATOM      3  O   UNL     1       1.953  10.359   0.035  0.00  0.00    -0.275 OA
ATOM      4  H   UNL     1       4.963   9.681   0.002  0.00  0.00    +0.149 HD
ENDROOT
BRANCH   1   6
ATOM      5  C   UNL     1       4.226  12.208   1.459  0.00  0.00    +0.033 C 
ATOM      6  C   UNL     1       4.293  11.696   0.019  0.00  0.00    +0.100 C 
BRANCH   6   7
ATOM      7  C   UNL     1       5.614  12.089  -0.593  0.00  0.00    -0.027 A 
ATOM      8  C   UNL     1       6.752  11.357  -0.310  0.00  0.00    +0.007 A 
ATOM      9  C   UNL     1       7.962  11.714  -0.875  0.00  0.00    +0.029 A 
ATOM     10  C   UNL     1       8.036  12.810  -1.714  0.00  0.00    +0.105 A 
ATOM     11  C   UNL     1       6.899  13.546  -1.992  0.00  0.00    +0.029 A 
ATOM     12  C   UNL     1       5.688  13.185  -1.431  0.00  0.00    +0.007 A 
BRANCH  10  13
ATOM     13  S   UNL     1       9.579  13.271  -2.428  0.00  0.00    +0.056 S 
ATOM     14  O   UNL     1      10.384  12.100  -2.444  0.00  0.00    -0.153 OA
ATOM     15  O   UNL     1       9.279  14.005  -3.606  0.00  0.00    -0.153 OA
BRANCH  13  16
ATOM     16  N   UNL     1      10.306  14.330  -1.382  0.00  0.00    -0.204 NA
ATOM     17  H   UNL     1      11.274  14.373  -1.331  0.00  0.00    +0.144 HD
ATOM     18  H   UNL     1       9.764  14.906  -0.821  0.00  0.00    +0.144 HD
ENDBRANCH  13  16
ENDBRANCH  10  13
ENDBRANCH   6   7
ENDBRANCH   1   6
BRANCH   2  19
ATOM     19  C   UNL     1       2.818   8.164   0.015  0.00  0.00    +0.170 C 
BRANCH  19  20
ATOM     20  S   UNL     1       1.062   7.708   0.030  0.00  0.00    -0.116 S 
BRANCH  20  21
ATOM     21  C   UNL     1       1.079   5.946   0.021  0.00  0.00    +0.009 A 
ATOM     22  C   UNL     1       2.303   5.264   0.006  0.00  0.00    +0.015 A 
ATOM     23  C   UNL     1       2.345   3.906  -0.000  0.00  0.00    +0.009 A 
ATOM     24  C   UNL     1       1.149   3.167   0.008  0.00  0.00    -0.018 A 
ATOM     25  C   UNL     1       1.163   1.762   0.000  0.00  0.00    +0.008 A 
ATOM     26  C   UNL     1      -0.013   1.076   0.008  0.00  0.00    +0.001 A 
ATOM     27  C   UNL     1      -1.235   1.746   0.017  0.00  0.00    +0.001 A 
ATOM     28  C   UNL     1      -1.288   3.105   0.030  0.00  0.00    +0.008 A 
ATOM     29  C   UNL     1      -0.094   3.848   0.023  0.00  0.00    -0.017 A 
ATOM     30  C   UNL     1      -0.112   5.252   0.029  0.00  0.00    +0.023 A 
ENDBRANCH  20  21
ENDBRANCH  19  20
ENDBRANCH   2  19
TORSDOF 7
