REMARK  Name = ZINC08789108
REMARK  10 active torsions:
REMARK  status: ('A' for Active; 'I' for Inactive)
REMARK    1  A    between atoms: C_1  and  C_2
REMARK    2  A    between atoms: C_2  and  C_3
REMARK    3  A    between atoms: C_9  and  C_10
REMARK    4  A    between atoms: C_9  and  N_62
REMARK    5  A    between atoms: C_11  and  O_35
REMARK    6  A    between atoms: C_17  and  C_31
REMARK    7  A    between atoms: C_18  and  O_21
REMARK    8  A    between atoms: O_21  and  C_22
REMARK    9  A    between atoms: C_24  and  C_30
REMARK   10  A    between atoms: C_26  and  C_28
REMARK                            x       y       z     vdW  Elec       q    Type
REMARK                         _______ _______ _______ _____ _____    ______ ____
ROOT
ATOM      1  C   UNL     1       1.617   2.335  -2.171  0.00  0.00    +0.020 A 
ATOM      2  C   UNL     1       2.868   2.012  -1.674  0.00  0.00    +0.122 A 
ATOM      3  C   UNL     1       4.012   2.230  -2.439  0.00  0.00    +0.046 A 
ATOM      4  C   UNL     1       3.914   2.768  -3.691  0.00  0.00    +0.019 A 
ATOM      5  C   UNL     1       2.660   3.099  -4.205  0.00  0.00    +0.068 A 
ATOM      6  C   UNL     1       1.500   2.877  -3.443  0.00  0.00    +0.144 A 
ATOM      7  O   UNL     1       0.294   3.207  -3.948  0.00  0.00    -0.447 OA
ATOM      8  C   UNL     1       0.147   3.736  -5.169  0.00  0.00    +0.254 A 
ATOM      9  C   UNL     1       1.190   3.986  -5.986  0.00  0.00    +0.222 A 
ATOM     10  C   UNL     1       2.512   3.681  -5.550  0.00  0.00    +0.235 A 
ATOM     11  O   UNL     1       3.480   3.893  -6.261  0.00  0.00    -0.283 OA
ENDROOT
BRANCH   8  12
ATOM     12  C   UNL     1      -1.242   4.067  -5.651  0.00  0.00    +0.454 C 
ATOM     13  F   UNL     1      -1.573   3.233  -6.725  0.00  0.00    -0.163 F 
ATOM     14  F   UNL     1      -2.155   3.871  -4.610  0.00  0.00    -0.163 F 
ATOM     15  F   UNL     1      -1.286   5.402  -6.066  0.00  0.00    -0.163 F 
ENDBRANCH   8  12
BRANCH   2  16
ATOM     16  O   UNL     1       2.982   1.477  -0.432  0.00  0.00    -0.506 OA
ATOM     17  H   UNL     1       2.941   0.511  -0.414  0.00  0.00    +0.292 HD
ENDBRANCH   2  16
BRANCH   1  18
ATOM     18  C   UNL     1       0.386   2.093  -1.335  0.00  0.00    -0.035 C 
BRANCH  18  24
ATOM     19  C   UNL     1      -0.967   2.992   0.460  0.00  0.00    -0.068 C 
ATOM     20  C   UNL     1      -1.055   4.114   1.496  0.00  0.00    -0.015 C 
ATOM     21  C   UNL     1      -1.198   5.458   0.775  0.00  0.00    -0.003 C 
ATOM     22  C   UNL     1      -0.007   5.651  -0.167  0.00  0.00    -0.019 C 
ATOM     23  C   UNL     1       0.051   4.484  -1.155  0.00  0.00    -0.078 C 
ATOM     24  N   UNL     1       0.213   3.224  -0.400  0.00  0.00    +0.384 N 
ATOM     25  H   UNL     1       1.048   3.296   0.194  0.00  0.00    -0.081 HD
BRANCH  19  27
ATOM     26  C   UNL     1      -2.049   1.365   2.018  0.00  0.00    +0.002 C 
ATOM     27  C   UNL     1      -0.804   1.649   1.176  0.00  0.00    -0.019 C 
ENDBRANCH  19  27
ENDBRANCH  18  24
ENDBRANCH   1  18
BRANCH   9  28
ATOM     28  O   UNL     1       0.982   4.525  -7.218  0.00  0.00    -0.448 OA
BRANCH  28  29
ATOM     29  C   UNL     1       0.784   3.676  -8.261  0.00  0.00    +0.129 A 
ATOM     30  C   UNL     1       0.803   2.304  -8.053  0.00  0.00    +0.051 A 
ATOM     31  C   UNL     1       0.596   1.443  -9.113  0.00  0.00    -0.028 A 
ATOM     32  C   UNL     1       0.380   1.948 -10.383  0.00  0.00    +0.047 A 
ATOM     33  C   UNL     1       0.367   3.315 -10.594  0.00  0.00    -0.028 A 
ATOM     34  C   UNL     1       0.568   4.180  -9.535  0.00  0.00    +0.051 A 
ATOM     35  C   UNL     1       0.132   3.862 -11.978  0.00  0.00    +0.045 C 
ATOM     36 CL   UNL     1       0.128   0.864 -11.715  0.00  0.00    -0.083 Cl
ATOM     37  C   UNL     1       0.610  -0.047  -8.887  0.00  0.00    +0.045 C 
ENDBRANCH  28  29
ENDBRANCH   9  28
TORSDOF 7
