REMARK  Name = ZINC13065203
REMARK  13 active torsions:
REMARK  status: ('A' for Active; 'I' for Inactive)
REMARK    1  A    between atoms: C_1  and  C_2
REMARK    2  A    between atoms: C_2  and  C_3
REMARK    3  A    between atoms: C_3  and  C_5
REMARK    4  A    between atoms: C_3  and  N_76
REMARK    5  A    between atoms: N_9  and  C_10
REMARK    6  A    between atoms: C_16  and  C_17
REMARK    7  A    between atoms: C_16  and  N_76
REMARK    8  A    between atoms: C_20  and  O_23
REMARK    9  A    between atoms: O_23  and  C_24
REMARK   10  A    between atoms: C_25  and  C_26
REMARK   11  A    between atoms: C_25  and  N_76
REMARK   12  A    between atoms: C_29  and  C_39
REMARK   13  A    between atoms: C_32  and  C_38
REMARK                            x       y       z     vdW  Elec       q    Type
REMARK                         _______ _______ _______ _____ _____    ______ ____
ROOT
ATOM      1  N   UNL     1       0.001  -0.353   1.109  0.00  0.00    +0.392 N 
ATOM      2  H   UNL     1      -0.819   0.052   1.574  0.00  0.00    -0.080 HD
ENDROOT
BRANCH   1   3
ATOM      3  C   UNL     1       1.224   0.133   1.783  0.00  0.00    +0.003 C 
BRANCH   3   4
ATOM      4  C   UNL     1       0.936   1.486   2.380  0.00  0.00    +0.138 A 
ATOM      5  N   UNL     1       0.109   2.388   1.912  0.00  0.00    -0.115 NA
ATOM      6  N   UNL     1       0.139   3.405   2.703  0.00  0.00    -0.023 NA
ATOM      7  N   UNL     1       0.971   3.178   3.659  0.00  0.00    -0.044 NA
ATOM      8  N   UNL     1       1.482   2.005   3.496  0.00  0.00    -0.228 N 
BRANCH   8   9
ATOM      9  C   UNL     1       2.471   1.359   4.362  0.00  0.00    +0.111 C 
ATOM     10  C   UNL     1       1.855   1.105   5.739  0.00  0.00    +0.027 C 
ATOM     11  C   UNL     1       2.889   0.430   6.643  0.00  0.00    +0.002 C 
ATOM     12  C   UNL     1       4.110   1.340   6.790  0.00  0.00    +0.000 C 
ATOM     13  C   UNL     1       4.726   1.594   5.413  0.00  0.00    +0.002 C 
ATOM     14  C   UNL     1       3.692   2.269   4.509  0.00  0.00    +0.027 C 
ENDBRANCH   8   9
ENDBRANCH   3   4
BRANCH   3  16
ATOM     15  C   UNL     1       2.702  -1.131   0.214  0.00  0.00    +0.002 C 
ATOM     16  C   UNL     1       2.373   0.252   0.779  0.00  0.00    -0.011 C 
ENDBRANCH   3  16
ENDBRANCH   1   3
BRANCH   1  17
ATOM     17  C   UNL     1       0.005   0.065  -0.309  0.00  0.00    -0.042 C 
BRANCH  17  18
ATOM     18  C   UNL     1      -0.229   1.552  -0.376  0.00  0.00    -0.064 A 
ATOM     19  C   UNL     1      -1.461   2.073  -0.027  0.00  0.00    +0.005 A 
ATOM     20  C   UNL     1      -1.676   3.437  -0.082  0.00  0.00    +0.046 A 
ATOM     21  C   UNL     1      -0.658   4.282  -0.500  0.00  0.00    +0.120 A 
ATOM     22  C   UNL     1       0.575   3.756  -0.856  0.00  0.00    +0.046 A 
ATOM     23  C   UNL     1       0.787   2.392  -0.793  0.00  0.00    +0.005 A 
BRANCH  21  24
ATOM     24  O   UNL     1      -0.869   5.623  -0.561  0.00  0.00    -0.495 OA
ATOM     25  C   UNL     1      -2.163   6.094  -0.180  0.00  0.00    +0.277 C 
ENDBRANCH  21  24
ENDBRANCH  17  18
ENDBRANCH   1  17
BRANCH   1  26
ATOM     26  C   UNL     1      -0.074  -1.827   1.201  0.00  0.00    -0.036 C 
BRANCH  26  27
ATOM     27  C   UNL     1      -0.496  -2.203   2.598  0.00  0.00    +0.001 A 
ATOM     28  C   UNL     1      -1.811  -2.371   2.884  0.00  0.00    +0.017 A 
ATOM     29  C   UNL     1      -2.188  -2.741   4.250  0.00  0.00    +0.002 A 
ATOM     30  C   UNL     1      -3.527  -2.933   4.604  0.00  0.00    -0.041 A 
ATOM     31  C   UNL     1      -3.846  -3.274   5.888  0.00  0.00    +0.004 A 
ATOM     32  C   UNL     1      -2.852  -3.431   6.845  0.00  0.00    +0.005 A 
ATOM     33  C   UNL     1      -1.526  -3.245   6.519  0.00  0.00    -0.026 A 
ATOM     34  C   UNL     1      -1.177  -2.899   5.217  0.00  0.00    +0.052 A 
ATOM     35  N   UNL     1       0.141  -2.708   4.863  0.00  0.00    -0.322 N 
ATOM     36  H   UNL     1       0.836  -2.818   5.531  0.00  0.00    +0.169 HD
ATOM     37  C   UNL     1       0.478  -2.373   3.605  0.00  0.00    +0.251 A 
ATOM     38  O   UNL     1       1.654  -2.212   3.328  0.00  0.00    -0.268 OA
ATOM     39  C   UNL     1      -0.458  -3.419   7.567  0.00  0.00    +0.046 C 
ATOM     40  C   UNL     1      -4.614  -2.767   3.574  0.00  0.00    +0.044 C 
ENDBRANCH  26  27
ENDBRANCH   1  26
TORSDOF 9
