REMARK  Name = ZINC09480135
REMARK  5 active torsions:
REMARK  status: ('A' for Active; 'I' for Inactive)
REMARK    1  A    between atoms: C_1  and  O_2
REMARK    2  A    between atoms: O_2  and  C_3
REMARK    3  A    between atoms: C_6  and  N_9
REMARK    4  A    between atoms: C_10  and  C_12
REMARK    5  A    between atoms: N_30  and  C_33
REMARK                            x       y       z     vdW  Elec       q    Type
REMARK                         _______ _______ _______ _____ _____    ______ ____
ROOT
ATOM      1  C   UNL     1      -3.040  -0.642  -1.639  0.00  0.00    +0.156 C 
ATOM      2  C   UNL     1      -2.103  -1.775  -2.105  0.00  0.00    +0.118 C 
ATOM      3  C   UNL     1      -1.187  -2.026  -0.872  0.00  0.00    +0.113 C 
ATOM      4  C   UNL     1      -1.277  -0.747  -0.038  0.00  0.00    +0.100 C 
ATOM      5  C   UNL     1      -2.441   1.461  -0.327  0.00  0.00    +0.054 C 
ATOM      6  C   UNL     1      -1.310   2.126  -0.018  0.00  0.00    +0.022 C 
ATOM      7  C   UNL     1      -0.017   1.415  -0.059  0.00  0.00    -0.019 A 
ATOM      8  C   UNL     1       0.022   0.015  -0.061  0.00  0.00    -0.021 A 
ATOM      9  C   UNL     1       1.230  -0.643  -0.086  0.00  0.00    +0.006 A 
ATOM     10  C   UNL     1       2.412   0.079  -0.114  0.00  0.00    +0.000 A 
ATOM     11  C   UNL     1       2.384   1.462  -0.116  0.00  0.00    +0.001 A 
ATOM     12  C   UNL     1       1.179   2.134  -0.089  0.00  0.00    +0.008 A 
ATOM     13  C   UNL     1      -1.907  -3.156  -0.163  0.00  0.00    +0.232 C 
ATOM     14  O   UNL     1      -1.734  -3.492   0.989  0.00  0.00    -0.274 OA
ATOM     15  N   UNL     1      -2.767  -3.721  -1.022  0.00  0.00    -0.210 N 
ATOM     16  C   UNL     1      -2.880  -3.075  -2.192  0.00  0.00    +0.232 C 
ATOM     17  O   UNL     1      -3.500  -3.464  -3.158  0.00  0.00    -0.274 OA
ATOM     18  N   UNL     1      -2.489  -0.056  -0.401  0.00  0.00    -0.383 NA
ATOM     19  H   UNL     1      -3.162  -0.314   0.331  0.00  0.00    +0.127 HD
ENDROOT
BRANCH  15  20
ATOM     20  C   UNL     1      -3.487  -4.887  -0.724  0.00  0.00    +0.045 A 
ATOM     21  C   UNL     1      -3.255  -6.051  -1.444  0.00  0.00    +0.027 A 
ATOM     22  C   UNL     1      -3.965  -7.199  -1.149  0.00  0.00    +0.041 A 
ATOM     23  C   UNL     1      -4.907  -7.189  -0.135  0.00  0.00    +0.142 A 
ATOM     24  C   UNL     1      -5.141  -6.029   0.585  0.00  0.00    +0.078 A 
ATOM     25  C   UNL     1      -4.428  -4.880   0.296  0.00  0.00    +0.046 A 
ATOM     26 CL   UNL     1      -6.324  -6.020   1.856  0.00  0.00    -0.081 Cl
ATOM     27  F   UNL     1      -5.601  -8.313   0.152  0.00  0.00    -0.204 F 
ENDBRANCH  15  20
BRANCH   1  29
ATOM     28  N   UNL     1      -5.282  -1.680  -1.763  0.00  0.00    -0.284 N 
ATOM     29  C   UNL     1      -4.274  -1.220  -0.996  0.00  0.00    +0.237 C 
ATOM     30  O   UNL     1      -4.361  -1.271   0.213  0.00  0.00    -0.273 OA
ATOM     31  H   UNL     1      -5.242  -1.579  -2.727  0.00  0.00    +0.155 HD
BRANCH  28  35
ATOM     32  C   UNL     1      -8.571  -3.534   0.004  0.00  0.00    +0.120 A 
ATOM     33  C   UNL     1      -7.940  -2.481   0.649  0.00  0.00    +0.047 A 
ATOM     34  C   UNL     1      -6.851  -1.866   0.064  0.00  0.00    +0.027 A 
ATOM     35  C   UNL     1      -6.387  -2.303  -1.169  0.00  0.00    +0.034 A 
ATOM     36  C   UNL     1      -7.022  -3.355  -1.816  0.00  0.00    +0.027 A 
ATOM     37  C   UNL     1      -8.108  -3.972  -1.228  0.00  0.00    +0.047 A 
BRANCH  32  39
ATOM     38  C   UNL     1     -10.245  -5.218  -0.139  0.00  0.00    +0.277 C 
ATOM     39  O   UNL     1      -9.645  -4.139   0.581  0.00  0.00    -0.495 OA
ENDBRANCH  32  39
ENDBRANCH  28  35
ENDBRANCH   1  29
TORSDOF 4
