REMARK  Name = ZINC09240131
REMARK  7 active torsions:
REMARK  status: ('A' for Active; 'I' for Inactive)
REMARK    1  A    between atoms: C_4  and  C_7
REMARK    2  A    between atoms: C_7  and  C_8
REMARK    3  A    between atoms: C_8  and  N_56
REMARK    4  A    between atoms: C_14  and  C_16
REMARK    5  A    between atoms: N_21  and  C_22
REMARK    6  A    between atoms: C_25  and  O_28
REMARK    7  A    between atoms: O_28  and  C_29
REMARK                            x       y       z     vdW  Elec       q    Type
REMARK                         _______ _______ _______ _____ _____    ______ ____
ROOT
ATOM      1  C   UNL     1      -0.885  -0.754  -2.026  0.00  0.00    +0.135 A 
ATOM      2  C   UNL     1      -0.964  -1.523  -3.161  0.00  0.00    +0.081 A 
ATOM      3  S   UNL     1      -0.057  -2.974  -2.645  0.00  0.00    -0.060 S 
ATOM      4  C   UNL     1       0.326  -2.426  -0.988  0.00  0.00    +0.163 A 
ATOM      5  N   UNL     1      -0.238  -1.236  -0.963  0.00  0.00    -0.220 NA
ATOM      6  N   UNL     1       1.031  -3.082   0.009  0.00  0.00    -0.294 N 
ATOM      7  H   UNL     1       1.246  -2.620   0.835  0.00  0.00    +0.154 HD
ENDROOT
BRANCH   1  13
ATOM      8  C   UNL     1      -2.328   0.837   1.462  0.00  0.00    -0.060 C 
ATOM      9  C   UNL     1      -1.199   0.610   0.452  0.00  0.00    +0.089 C 
ATOM     10  N   UNL     1      -1.566   1.256  -0.818  0.00  0.00    -0.300 N 
ATOM     11  C   UNL     1      -1.997   2.662  -0.784  0.00  0.00    +0.089 C 
ATOM     12  C   UNL     1      -3.098   2.808   0.272  0.00  0.00    -0.060 C 
ATOM     13  C   UNL     1      -1.509   0.577  -1.981  0.00  0.00    +0.265 C 
ATOM     14  O   UNL     1      -1.974   1.066  -2.994  0.00  0.00    -0.268 OA
ATOM     15  N   UNL     1      -2.591   2.290   1.562  0.00  0.00    +0.382 N 
ATOM     16  H   UNL     1      -1.714   2.772   1.792  0.00  0.00    -0.082 HD
BRANCH  15  17
ATOM     17  C   UNL     1      -3.576   2.552   2.631  0.00  0.00    -0.074 C 
BRANCH  17  18
ATOM     18  C   UNL     1      -2.939   2.210   3.980  0.00  0.00    +0.016 C 
BRANCH  18  22
ATOM     19  C   UNL     1      -5.726   3.014   7.116  0.00  0.00    +0.000 A 
ATOM     20  C   UNL     1      -5.694   1.766   6.523  0.00  0.00    +0.000 A 
ATOM     21  C   UNL     1      -4.792   1.506   5.508  0.00  0.00    +0.003 A 
ATOM     22  C   UNL     1      -3.922   2.494   5.086  0.00  0.00    -0.049 A 
ATOM     23  C   UNL     1      -3.950   3.740   5.683  0.00  0.00    +0.003 A 
ATOM     24  C   UNL     1      -4.856   4.002   6.694  0.00  0.00    +0.000 A 
ENDBRANCH  18  22
ENDBRANCH  17  18
ENDBRANCH  15  17
ENDBRANCH   1  13
BRANCH   6  25
ATOM     25  C   UNL     1       1.433  -4.410  -0.176  0.00  0.00    +0.033 A 
ATOM     26  C   UNL     1       0.636  -5.282  -0.906  0.00  0.00    +0.027 A 
ATOM     27  C   UNL     1       1.036  -6.591  -1.092  0.00  0.00    +0.048 A 
ATOM     28  C   UNL     1       2.228  -7.037  -0.540  0.00  0.00    +0.130 A 
ATOM     29  C   UNL     1       3.021  -6.168   0.194  0.00  0.00    +0.048 A 
ATOM     30  C   UNL     1       2.626  -4.858   0.376  0.00  0.00    +0.027 A 
BRANCH  28  31
ATOM     31  O   UNL     1       2.618  -8.328  -0.719  0.00  0.00    -0.406 OA
BRANCH  31  32
ATOM     32  C   UNL     1       1.752  -9.167  -1.486  0.00  0.00    +0.575 C 
ATOM     33  F   UNL     1       1.607  -8.636  -2.772  0.00  0.00    -0.133 F 
ATOM     34  F   UNL     1       2.301 -10.451  -1.570  0.00  0.00    -0.133 F 
ATOM     35  F   UNL     1       0.499  -9.235  -0.866  0.00  0.00    -0.133 F 
ENDBRANCH  31  32
ENDBRANCH  28  31
ENDBRANCH   6  25
TORSDOF 7
