REMARK  Name = ZINC39631382
REMARK  11 active torsions:
REMARK  status: ('A' for Active; 'I' for Inactive)
REMARK    1  A    between atoms: C_1  and  C_2
REMARK    2  A    between atoms: C_2  and  C_4
REMARK    3  A    between atoms: C_2  and  N_11
REMARK    4  A    between atoms: C_4  and  C_5
REMARK    5  A    between atoms: C_5  and  C_6
REMARK    6  A    between atoms: C_6  and  C_7
REMARK    7  A    between atoms: C_7  and  C_8
REMARK    8  A    between atoms: C_7  and  C_9
REMARK    9  A    between atoms: C_7  and  O_10
REMARK   10  A    between atoms: C_12  and  C_14
REMARK   11  A    between atoms: C_25  and  C_27
REMARK                            x       y       z     vdW  Elec       q    Type
REMARK                         _______ _______ _______ _____ _____    ______ ____
ROOT
ATOM      1  C   UNL     1      -3.330  -0.544   1.293  0.00  0.00    +0.100 C 
ATOM      2  C   UNL     1      -4.435   0.198   0.508  0.00  0.00    +0.121 C 
ATOM      3  N   UNL     1      -5.653   0.043   1.338  0.00  0.00    -0.296 N 
ATOM      4  C   UNL     1      -5.170   0.192   2.732  0.00  0.00    +0.115 C 
ATOM      5  C   UNL     1      -3.816  -0.545   2.752  0.00  0.00    -0.004 C 
ATOM      6  C   UNL     1      -2.824   0.201   3.640  0.00  0.00    -0.010 C 
ATOM      7  C   UNL     1      -3.298   0.136   5.095  0.00  0.00    -0.082 C 
ATOM      8  N   UNL     1      -3.404  -1.266   5.515  0.00  0.00    +0.379 N 
ATOM      9  C   UNL     1      -4.428  -1.952   4.717  0.00  0.00    -0.082 C 
ATOM     10  C   UNL     1      -4.001  -1.976   3.247  0.00  0.00    -0.010 C 
ATOM     11  C   UNL     1      -6.914  -0.183   0.920  0.00  0.00    +0.247 C 
ATOM     12  O   UNL     1      -7.136  -0.392  -0.256  0.00  0.00    -0.270 OA
ATOM     13  H   UNL     1      -2.514  -1.724   5.383  0.00  0.00    -0.086 HD
ATOM     14  H   UNL     1      -3.658  -1.305   6.491  0.00  0.00    -0.086 HD
ENDROOT
BRANCH  11  15
ATOM     15  C   UNL     1      -8.027  -0.175   1.893  0.00  0.00    +0.042 A 
ATOM     16  C   UNL     1      -7.885   0.483   3.115  0.00  0.00    +0.051 A 
ATOM     17  C   UNL     1      -8.929   0.487   4.021  0.00  0.00    +0.127 A 
ATOM     18  C   UNL     1     -10.115  -0.161   3.717  0.00  0.00    +0.076 A 
ATOM     19  C   UNL     1     -10.262  -0.817   2.506  0.00  0.00    +0.127 A 
ATOM     20  C   UNL     1      -9.226  -0.822   1.590  0.00  0.00    +0.051 A 
ATOM     21  F   UNL     1     -11.421  -1.447   2.216  0.00  0.00    -0.205 F 
ATOM     22  F   UNL     1      -8.793   1.124   5.205  0.00  0.00    -0.205 F 
ENDBRANCH  11  15
BRANCH   1  24
ATOM     23  N   UNL     1      -0.858  -0.488   1.243  0.00  0.00    -0.312 N 
ATOM     24  C   UNL     1      -2.020   0.191   1.177  0.00  0.00    +0.218 C 
ATOM     25  O   UNL     1      -2.011   1.394   1.023  0.00  0.00    -0.275 OA
ATOM     26  H   UNL     1      -0.865  -1.450   1.366  0.00  0.00    +0.149 HD
BRANCH  23  28
ATOM     27  C   UNL     1       0.772   0.403  -0.348  0.00  0.00    +0.028 C 
ATOM     28  C   UNL     1       0.416   0.227   1.130  0.00  0.00    +0.070 C 
BRANCH  28  29
ATOM     29  C   UNL     1       1.515  -0.576   1.828  0.00  0.00    +0.022 C 
BRANCH  29  30
ATOM     30  C   UNL     1       1.222  -0.646   3.328  0.00  0.00    +0.005 C 
BRANCH  30  31
ATOM     31  C   UNL     1       2.322  -1.449   4.026  0.00  0.00    +0.034 C 
BRANCH  31  32
ATOM     32  C   UNL     1       2.029  -1.519   5.526  0.00  0.00    +0.061 C 
ATOM     33  C   UNL     1       3.189  -2.213   6.240  0.00  0.00    +0.041 C 
ATOM     34  C   UNL     1       1.863  -0.102   6.079  0.00  0.00    +0.041 C 
BRANCH  32  35
ATOM     35  O   UNL     1       0.825  -2.258   5.742  0.00  0.00    -0.389 OA
ATOM     36  H   UNL     1       0.858  -3.167   5.415  0.00  0.00    +0.210 HD
ENDBRANCH  32  35
ENDBRANCH  31  32
ENDBRANCH  30  31
ENDBRANCH  29  30
ENDBRANCH  28  29
ENDBRANCH  23  28
ENDBRANCH   1  24
TORSDOF 8
