REMARK  Name = ZINC36158688
REMARK  14 active torsions:
REMARK  status: ('A' for Active; 'I' for Inactive)
REMARK    1  A    between atoms: C_1  and  C_2
REMARK    2  A    between atoms: C_2  and  C_3
REMARK    3  A    between atoms: C_2  and  C_4
REMARK    4  A    between atoms: C_4  and  C_5
REMARK    5  A    between atoms: C_5  and  N_6
REMARK    6  A    between atoms: N_6  and  C_7
REMARK    7  A    between atoms: N_6  and  C_23
REMARK    8  A    between atoms: C_7  and  C_8
REMARK    9  A    between atoms: C_23  and  C_24
REMARK   10  A    between atoms: C_24  and  C_26
REMARK   11  A    between atoms: C_24  and  O_35
REMARK   12  A    between atoms: C_26  and  O_27
REMARK   13  A    between atoms: O_27  and  C_28
REMARK   14  A    between atoms: C_28  and  C_29
REMARK                            x       y       z     vdW  Elec       q    Type
REMARK                         _______ _______ _______ _____ _____    ______ ____
ROOT
ATOM      1  N   UNL     1      -2.713  -2.494   0.016  0.00  0.00    +0.386 N 
ATOM      2  H   UNL     1      -2.988  -2.157   0.927  0.00  0.00    -0.081 HD
ENDROOT
BRANCH   1   3
ATOM      3  C   UNL     1      -1.358  -2.018  -0.293  0.00  0.00    -0.078 C 
BRANCH   3   4
ATOM      4  C   UNL     1      -0.888  -2.639  -1.610  0.00  0.00    -0.016 C 
BRANCH   4   6
ATOM      5  C   UNL     1       1.003  -2.767  -3.238  0.00  0.00    +0.007 C 
ATOM      6  C   UNL     1       0.476  -2.057  -1.990  0.00  0.00    -0.019 C 
ATOM      7  C   UNL     1       0.330  -0.562  -2.277  0.00  0.00    +0.007 C 
ENDBRANCH   4   6
ENDBRANCH   3   4
ENDBRANCH   1   3
BRANCH   1   8
ATOM      8  C   UNL     1      -3.652  -1.991  -0.996  0.00  0.00    -0.003 C 
BRANCH   8   9
ATOM      9  C   UNL     1      -3.749  -0.491  -0.889  0.00  0.00    +0.094 A 
ATOM     10  N   UNL     1      -4.471   0.198  -1.811  0.00  0.00    -0.312 N 
ATOM     11  H   UNL     1      -4.914  -0.286  -2.525  0.00  0.00    +0.170 HD
ATOM     12  C   UNL     1      -4.584   1.538  -1.753  0.00  0.00    +0.260 A 
ATOM     13  O   UNL     1      -5.236   2.141  -2.587  0.00  0.00    -0.267 OA
ATOM     14  C   UNL     1      -3.925   2.244  -0.693  0.00  0.00    +0.075 A 
ATOM     15  C   UNL     1      -3.908   3.683  -0.433  0.00  0.00    -0.023 A 
ATOM     16  C   UNL     1      -3.207   4.102   0.642  0.00  0.00    -0.004 A 
ATOM     17  S   UNL     1      -2.540   2.625   1.360  0.00  0.00    -0.073 S 
ATOM     18  C   UNL     1      -3.204   1.447   0.211  0.00  0.00    +0.116 A 
ATOM     19  N   UNL     1      -3.143   0.124   0.091  0.00  0.00    -0.229 NA
ATOM     20  C   UNL     1      -3.034   5.512   1.118  0.00  0.00    +0.043 C 
ATOM     21  C   UNL     1      -3.465   6.460  -0.009  0.00  0.00    +0.005 C 
ATOM     22  C   UNL     1      -4.817   5.992  -0.554  0.00  0.00    +0.005 C 
ATOM     23  C   UNL     1      -4.641   4.682  -1.323  0.00  0.00    +0.037 C 
ENDBRANCH   8   9
ENDBRANCH   1   8
BRANCH   1  24
ATOM     24  C   UNL     1      -2.729  -3.962   0.012  0.00  0.00    -0.044 C 
BRANCH  24  25
ATOM     25  C   UNL     1      -1.887  -4.485   1.178  0.00  0.00    +0.124 C 
BRANCH  25  26
ATOM     26  O   UNL     1      -0.514  -4.157   0.958  0.00  0.00    -0.391 OA
ATOM     27  H   UNL     1      -0.144  -4.535   0.148  0.00  0.00    +0.210 HD
ENDBRANCH  25  26
BRANCH  25  28
ATOM     28  C   UNL     1      -2.040  -6.004   1.276  0.00  0.00    +0.189 C 
BRANCH  28  29
ATOM     29  O   UNL     1      -1.348  -6.478   2.434  0.00  0.00    -0.373 OA
BRANCH  29  30
ATOM     30  C   UNL     1      -1.429  -7.893   2.620  0.00  0.00    +0.195 C 
BRANCH  30  31
ATOM     31  C   UNL     1      -0.668  -8.280   3.862  0.00  0.00    -0.022 A 
ATOM     32  C   UNL     1       0.675  -8.594   3.781  0.00  0.00    +0.006 A 
ATOM     33  C   UNL     1       1.372  -8.949   4.921  0.00  0.00    +0.000 A 
ATOM     34  C   UNL     1       0.726  -8.989   6.142  0.00  0.00    +0.000 A 
ATOM     35  C   UNL     1      -0.618  -8.674   6.223  0.00  0.00    +0.000 A 
ATOM     36  C   UNL     1      -1.314  -8.315   5.084  0.00  0.00    +0.006 A 
ENDBRANCH  30  31
ENDBRANCH  29  30
ENDBRANCH  28  29
ENDBRANCH  25  28
ENDBRANCH  24  25
ENDBRANCH   1  24
TORSDOF 12
