REMARK  Name = ZINC16629131
REMARK  11 active torsions:
REMARK  status: ('A' for Active; 'I' for Inactive)
REMARK    1  A    between atoms: C_1  and  C_2
REMARK    2  A    between atoms: C_2  and  O_3
REMARK    3  A    between atoms: O_3  and  C_4
REMARK    4  A    between atoms: C_7  and  N_10
REMARK    5  A    between atoms: C_11  and  C_13
REMARK    6  A    between atoms: C_16  and  N_19
REMARK    7  A    between atoms: C_20  and  C_22
REMARK    8  A    between atoms: C_22  and  N_64
REMARK    9  A    between atoms: C_23  and  N_64
REMARK   10  A    between atoms: C_24  and  C_25
REMARK   11  A    between atoms: C_24  and  N_64
REMARK                            x       y       z     vdW  Elec       q    Type
REMARK                         _______ _______ _______ _____ _____    ______ ____
ROOT
ATOM      1  C   UNL     1      -8.484  -0.979   3.800  0.00  0.00    +0.037 A 
ATOM      2  C   UNL     1      -8.045  -0.353   4.970  0.00  0.00    +0.015 A 
ATOM      3  C   UNL     1      -6.819   0.273   4.995  0.00  0.00    +0.024 A 
ATOM      4  C   UNL     1      -6.018   0.282   3.857  0.00  0.00    +0.033 A 
ATOM      5  C   UNL     1      -6.454  -0.335   2.690  0.00  0.00    +0.024 A 
ATOM      6  C   UNL     1      -7.677  -0.968   2.660  0.00  0.00    +0.015 A 
ENDROOT
BRANCH   1   8
ATOM      7  N   UNL     1     -10.220  -2.255   2.642  0.00  0.00    -0.281 N 
ATOM      8  C   UNL     1      -9.797  -1.652   3.770  0.00  0.00    +0.248 C 
ATOM      9  O   UNL     1     -10.499  -1.661   4.764  0.00  0.00    -0.270 OA
ATOM     10  H   UNL     1      -9.631  -2.313   1.873  0.00  0.00    +0.155 HD
BRANCH   7  14
ATOM     11  C   UNL     1     -14.057  -3.873   2.453  0.00  0.00    +0.121 A 
ATOM     12  C   UNL     1     -13.821  -2.736   3.212  0.00  0.00    +0.047 A 
ATOM     13  C   UNL     1     -12.550  -2.200   3.275  0.00  0.00    +0.027 A 
ATOM     14  C   UNL     1     -11.509  -2.799   2.579  0.00  0.00    +0.034 A 
ATOM     15  C   UNL     1     -11.747  -3.934   1.815  0.00  0.00    +0.027 A 
ATOM     16  C   UNL     1     -13.018  -4.472   1.758  0.00  0.00    +0.047 A 
BRANCH  11  17
ATOM     17  O   UNL     1     -15.309  -4.402   2.392  0.00  0.00    -0.492 OA
BRANCH  17  19
ATOM     18  C   UNL     1     -16.944  -6.017   1.645  0.00  0.00    +0.048 C 
ATOM     19  C   UNL     1     -15.480  -5.573   1.592  0.00  0.00    +0.225 C 
ENDBRANCH  17  19
ENDBRANCH  11  17
ENDBRANCH   7  14
ENDBRANCH   1   8
BRANCH   4  20
ATOM     20  N   UNL     1      -4.777   0.918   3.886  0.00  0.00    -0.287 N 
ATOM     21  C   UNL     1      -3.754   0.431   3.156  0.00  0.00    +0.201 C 
ATOM     22  O   UNL     1      -3.884  -0.610   2.547  0.00  0.00    -0.278 OA
ATOM     23  H   UNL     1      -4.650   1.710   4.432  0.00  0.00    +0.155 HD
BRANCH  21  24
ATOM     24  C   UNL     1      -2.448   1.181   3.095  0.00  0.00    +0.019 C 
BRANCH  24  26
ATOM     25  C   UNL     1      -1.960   0.431   0.845  0.00  0.00    -0.095 C 
ATOM     26  N   UNL     1      -1.501   0.422   2.250  0.00  0.00    +0.386 N 
ATOM     27  H   UNL     1      -1.462  -0.548   2.582  0.00  0.00    -0.081 HD
BRANCH  26  28
ATOM     28  C   UNL     1      -0.151   1.017   2.345  0.00  0.00    -0.030 C 
BRANCH  28  29
ATOM     29  C   UNL     1       0.846   0.090   1.647  0.00  0.00    +0.194 C 
ATOM     30  C   UNL     1       2.264   0.663   1.779  0.00  0.00    +0.271 C 
ATOM     31  O   UNL     1       3.171  -0.234   1.128  0.00  0.00    -0.485 OA
ATOM     32  C   UNL     1       3.023  -1.559   1.402  0.00  0.00    +0.162 A 
ATOM     33  C   UNL     1       4.058  -2.434   1.108  0.00  0.00    +0.049 A 
ATOM     34  C   UNL     1       3.921  -3.783   1.375  0.00  0.00    +0.004 A 
ATOM     35  C   UNL     1       2.752  -4.264   1.936  0.00  0.00    +0.004 A 
ATOM     36  C   UNL     1       1.718  -3.397   2.233  0.00  0.00    +0.049 A 
ATOM     37  C   UNL     1       1.850  -2.041   1.969  0.00  0.00    +0.162 A 
ATOM     38  O   UNL     1       0.824  -1.199   2.269  0.00  0.00    -0.484 OA
ENDBRANCH  28  29
ENDBRANCH  26  28
ENDBRANCH  24  26
ENDBRANCH  21  24
ENDBRANCH   4  20
TORSDOF 9
