REMARK  Name = ZINC09510155
REMARK  16 active torsions:
REMARK  status: ('A' for Active; 'I' for Inactive)
REMARK    1  A    between atoms: C_1  and  C_2
REMARK    2  A    between atoms: C_2  and  O_3
REMARK    3  A    between atoms: O_3  and  C_4
REMARK    4  A    between atoms: C_4  and  C_6
REMARK    5  A    between atoms: N_9  and  C_12
REMARK    6  A    between atoms: C_12  and  C_13
REMARK    7  A    between atoms: N_15  and  C_16
REMARK    8  A    between atoms: N_15  and  C_20
REMARK    9  A    between atoms: C_16  and  C_17
REMARK   10  A    between atoms: C_17  and  C_18
REMARK   11  A    between atoms: C_17  and  C_19
REMARK   12  A    between atoms: C_21  and  N_33
REMARK   13  A    between atoms: N_22  and  C_29
REMARK   14  A    between atoms: C_29  and  C_30
REMARK   15  A    between atoms: C_30  and  C_31
REMARK   16  A    between atoms: C_30  and  C_32
REMARK                            x       y       z     vdW  Elec       q    Type
REMARK                         _______ _______ _______ _____ _____    ______ ____
ROOT
ATOM      1  C   UNL     1       4.467  -5.965   4.647  0.00  0.00    +0.203 C 
ATOM      2  O   UNL     1       3.583  -6.364   3.917  0.00  0.00    -0.277 OA
ATOM      3  N   UNL     1       5.257  -6.848   5.293  0.00  0.00    -0.266 N 
ENDROOT
BRANCH   3   4
ATOM      4  C   UNL     1       5.123  -8.230   5.043  0.00  0.00    +0.140 A 
ATOM      5  C   UNL     1       4.743  -9.092   6.051  0.00  0.00    +0.127 A 
ATOM      6  N   UNL     1       4.620 -10.434   5.777  0.00  0.00    -0.280 N 
ATOM      7  C   UNL     1       4.868 -10.901   4.540  0.00  0.00    +0.331 A 
ATOM      8  O   UNL     1       4.753 -12.091   4.317  0.00  0.00    -0.246 OA
ATOM      9  N   UNL     1       5.239 -10.076   3.545  0.00  0.00    -0.273 N 
ATOM     10  H   UNL     1       5.411 -10.438   2.661  0.00  0.00    +0.173 HD
ATOM     11  C   UNL     1       5.369  -8.752   3.759  0.00  0.00    +0.277 A 
ATOM     12  O   UNL     1       5.702  -8.013   2.849  0.00  0.00    -0.266 OA
BRANCH   5  13
ATOM     13  N   UNL     1       4.490  -8.614   7.315  0.00  0.00    -0.343 N 
ATOM     14  H   UNL     1       4.479  -7.659   7.479  0.00  0.00    +0.144 HD
ATOM     15  H   UNL     1       4.323  -9.233   8.043  0.00  0.00    +0.144 HD
ENDBRANCH   5  13
BRANCH   6  16
ATOM     16  C   UNL     1       4.218 -11.360   6.838  0.00  0.00    +0.131 C 
BRANCH  16  17
ATOM     17  C   UNL     1       2.693 -11.484   6.856  0.00  0.00    +0.003 C 
ATOM     18  C   UNL     1       2.279 -12.544   7.879  0.00  0.00    +0.009 C 
ATOM     19  C   UNL     1       2.076 -10.137   7.239  0.00  0.00    +0.009 C 
ENDBRANCH  16  17
ENDBRANCH   6  16
ENDBRANCH   3   4
BRANCH   1  20
ATOM     20  C   UNL     1       4.681  -4.485   4.832  0.00  0.00    +0.019 C 
BRANCH  20  24
ATOM     21  C   UNL     1       1.551  -1.806   3.744  0.00  0.00    +0.094 C 
ATOM     22  C   UNL     1       2.977  -1.536   3.257  0.00  0.00    -0.004 C 
ATOM     23  C   UNL     1       3.965  -2.306   4.135  0.00  0.00    -0.077 C 
ATOM     24  N   UNL     1       3.683  -3.744   4.050  0.00  0.00    +0.385 N 
ATOM     25  C   UNL     1       2.343  -4.021   4.582  0.00  0.00    -0.077 C 
ATOM     26  C   UNL     1       1.292  -3.316   3.721  0.00  0.00    -0.004 C 
ATOM     27  H   UNL     1       3.728  -4.038   3.086  0.00  0.00    -0.081 HD
BRANCH  21  28
ATOM     28  C   UNL     1       0.568  -1.113   2.836  0.00  0.00    +0.310 C 
ATOM     29  O   UNL     1      -0.255  -1.759   2.231  0.00  0.00    -0.251 OA
BRANCH  28  30
ATOM     30  O   UNL     1       0.608   0.222   2.698  0.00  0.00    -0.465 OA
BRANCH  30  32
ATOM     31  C   UNL     1      -0.154   2.329   1.793  0.00  0.00    +0.048 C 
ATOM     32  C   UNL     1      -0.353   0.812   1.821  0.00  0.00    +0.229 C 
ENDBRANCH  30  32
ENDBRANCH  28  30
ENDBRANCH  21  28
ENDBRANCH  20  24
ENDBRANCH   1  20
BRANCH   3  33
ATOM     33  C   UNL     1       6.255  -6.370   6.253  0.00  0.00    +0.117 C 
BRANCH  33  34
ATOM     34  C   UNL     1       7.532  -5.977   5.509  0.00  0.00    +0.001 C 
ATOM     35  C   UNL     1       8.510  -5.321   6.486  0.00  0.00    +0.009 C 
ATOM     36  C   UNL     1       8.176  -7.226   4.904  0.00  0.00    +0.009 C 
ENDBRANCH  33  34
ENDBRANCH   3  33
TORSDOF 11
