REMARK  Name = ZINC12090180
REMARK  12 active torsions:
REMARK  status: ('A' for Active; 'I' for Inactive)
REMARK    1  A    between atoms: C_1  and  O_2
REMARK    2  A    between atoms: O_2  and  C_3
REMARK    3  A    between atoms: C_3  and  C_4
REMARK    4  A    between atoms: C_4  and  N_69
REMARK    5  A    between atoms: C_5  and  C_6
REMARK    6  A    between atoms: C_5  and  N_69
REMARK    7  A    between atoms: C_7  and  C_8
REMARK    8  A    between atoms: C_11  and  O_14
REMARK    9  A    between atoms: O_14  and  C_15
REMARK   10  A    between atoms: C_16  and  C_17
REMARK   11  A    between atoms: C_16  and  N_69
REMARK   12  A    between atoms: C_23  and  N_71
REMARK                            x       y       z     vdW  Elec       q    Type
REMARK                         _______ _______ _______ _____ _____    ______ ____
ROOT
ATOM      1  C   UNL     1      -1.462  -1.878   0.041  0.00  0.00    -0.077 C 
ENDROOT
BRANCH   1   2
ATOM      2  C   UNL     1      -1.583  -0.353   0.025  0.00  0.00    -0.044 C 
ATOM      3  C   UNL     1      -0.193   0.272   0.170  0.00  0.00    -0.002 C 
ATOM      4  C   UNL     1      -0.328   1.796   0.214  0.00  0.00    -0.018 C 
ATOM      5  C   UNL     1      -1.248   2.189   1.373  0.00  0.00    -0.078 C 
ATOM      6  C   UNL     1      -2.466   0.102   1.189  0.00  0.00    -0.077 C 
ATOM      7  N   UNL     1      -2.576   1.576   1.161  0.00  0.00    +0.382 N 
ATOM      8  H   UNL     1      -2.933   1.865   0.242  0.00  0.00    -0.081 HD
BRANCH   7   9
ATOM      9  C   UNL     1      -3.515   2.032   2.206  0.00  0.00    -0.060 C 
ATOM     10  C   UNL     1      -4.955   1.605   1.850  0.00  0.00    +0.020 C 
ATOM     11  C   UNL     1      -5.834   2.745   2.316  0.00  0.00    -0.046 A 
ATOM     12  C   UNL     1      -7.199   2.790   2.546  0.00  0.00    +0.004 A 
ATOM     13  C   UNL     1      -7.793   3.960   2.976  0.00  0.00    +0.000 A 
ATOM     14  C   UNL     1      -7.024   5.091   3.177  0.00  0.00    +0.000 A 
ATOM     15  C   UNL     1      -5.662   5.048   2.948  0.00  0.00    +0.004 A 
ATOM     16  C   UNL     1      -5.064   3.876   2.518  0.00  0.00    -0.046 A 
ATOM     17  C   UNL     1      -3.616   3.572   2.200  0.00  0.00    +0.020 C 
ENDBRANCH   7   9
ENDBRANCH   1   2
BRANCH   1  18
ATOM     18  N   UNL     1      -0.636  -2.304  -1.108  0.00  0.00    +0.384 N 
ATOM     19  H   UNL     1       0.271  -1.826  -1.062  0.00  0.00    -0.081 HD
BRANCH  18  20
ATOM     20  C   UNL     1      -0.412  -3.764  -1.055  0.00  0.00    -0.050 C 
BRANCH  20  21
ATOM     21  C   UNL     1       0.626  -4.062   0.029  0.00  0.00    +0.141 C 
BRANCH  21  23
ATOM     22  C   UNL     1       0.993  -3.922   2.394  0.00  0.00    +0.193 C 
ATOM     23  O   UNL     1       0.067  -3.783   1.314  0.00  0.00    -0.385 OA
ENDBRANCH  21  23
ENDBRANCH  20  21
ENDBRANCH  18  20
BRANCH  18  24
ATOM     24  C   UNL     1      -1.306  -1.942  -2.374  0.00  0.00    -0.051 C 
BRANCH  24  25
ATOM     25  C   UNL     1      -0.353  -2.185  -3.516  0.00  0.00    -0.045 C 
ATOM     26  C   UNL     1      -0.719  -2.951  -4.534  0.00  0.00    +0.002 C 
BRANCH  26  27
ATOM     27  C   UNL     1       0.216  -3.189  -5.653  0.00  0.00    -0.025 A 
ATOM     28  C   UNL     1       1.483  -2.604  -5.643  0.00  0.00    +0.011 A 
ATOM     29  C   UNL     1       2.355  -2.832  -6.687  0.00  0.00    +0.046 A 
ATOM     30  C   UNL     1       1.969  -3.635  -7.752  0.00  0.00    +0.120 A 
ATOM     31  C   UNL     1       0.708  -4.215  -7.769  0.00  0.00    +0.046 A 
ATOM     32  C   UNL     1      -0.167  -3.995  -6.726  0.00  0.00    +0.011 A 
BRANCH  30  33
ATOM     33  O   UNL     1       2.829  -3.853  -8.782  0.00  0.00    -0.495 OA
ATOM     34  C   UNL     1       4.110  -3.226  -8.701  0.00  0.00    +0.277 C 
ENDBRANCH  30  33
ENDBRANCH  26  27
ENDBRANCH  24  25
ENDBRANCH  18  24
ENDBRANCH   1  18
TORSDOF 10
