REMARK  Name = ZINC19354153
REMARK  5 active torsions:
REMARK  status: ('A' for Active; 'I' for Inactive)
REMARK    1  A    between atoms: C_1  and  C_2
REMARK    2  A    between atoms: C_4  and  C_7
REMARK    3  A    between atoms: C_7  and  O_8
REMARK    4  A    between atoms: O_8  and  C_9
REMARK    5  A    between atoms: C_12  and  C_15
REMARK                            x       y       z     vdW  Elec       q    Type
REMARK                         _______ _______ _______ _____ _____    ______ ____
ROOT
ATOM      1  C   UNL     1       0.002  -0.004   0.002  0.00  0.00    +0.217 C 
ATOM      2  N   UNL     1      -1.061  -0.518  -0.881  0.00  0.00    -0.337 N 
ATOM      3  C   UNL     1      -2.345  -0.623  -0.415  0.00  0.00    +0.159 C 
ATOM      4  N   UNL     1      -2.598  -0.846   0.863  0.00  0.00    -0.259 N 
ATOM      5  C   UNL     1      -1.555  -0.907   1.725  0.00  0.00    +0.205 A 
ATOM      6  N   UNL     1      -0.284  -0.518   1.346  0.00  0.00    -0.286 N 
ATOM      7  C   UNL     1       0.550  -0.706   2.423  0.00  0.00    +0.076 A 
ATOM      8  C   UNL     1       1.908  -0.515   2.643  0.00  0.00    +0.077 A 
ATOM      9  C   UNL     1       2.452  -0.807   3.880  0.00  0.00    +0.164 A 
ATOM     10  C   UNL     1       1.649  -1.291   4.908  0.00  0.00    +0.164 A 
ATOM     11  C   UNL     1       0.299  -1.487   4.707  0.00  0.00    +0.079 A 
ATOM     12  C   UNL     1      -0.265  -1.197   3.460  0.00  0.00    +0.095 A 
ATOM     13  N   UNL     1      -1.534  -1.287   2.975  0.00  0.00    -0.214 NA
ATOM     14  O   UNL     1       2.207  -1.573   6.122  0.00  0.00    -0.488 OA
ATOM     15  C   UNL     1       2.672  -0.450   6.873  0.00  0.00    +0.232 C 
ATOM     16  C   UNL     1       4.078  -0.060   6.445  0.00  0.00    +0.082 C 
ATOM     17  C   UNL     1       4.130   0.430   5.007  0.00  0.00    +0.232 C 
ATOM     18  O   UNL     1       3.788  -0.620   4.100  0.00  0.00    -0.488 OA
ATOM     19  N   UNL     1      -3.388  -0.494  -1.292  0.00  0.00    -0.332 N 
ATOM     20  H   UNL     1      -4.423  -0.576  -0.931  0.00  0.00    +0.145 HD
ATOM     21  H   UNL     1      -3.636  -0.977   1.203  0.00  0.00    +0.158 HD
ATOM     22  H   UNL     1      -3.190  -0.308  -2.358  0.00  0.00    +0.145 HD
ATOM     23  H   UNL     1      -0.824  -0.818  -1.913  0.00  0.00    +0.164 HD
ENDROOT
BRANCH   1  27
ATOM     24  C   UNL     1      -0.056   4.269   0.025  0.00  0.00    +0.121 A 
ATOM     25  C   UNL     1       1.154   3.591   0.010  0.00  0.00    +0.046 A 
ATOM     26  C   UNL     1       1.170   2.209   0.003  0.00  0.00    +0.011 A 
ATOM     27  C   UNL     1      -0.018   1.503   0.010  0.00  0.00    -0.004 A 
ATOM     28  C   UNL     1      -1.226   2.177   0.020  0.00  0.00    +0.011 A 
ATOM     29  C   UNL     1      -1.247   3.558   0.033  0.00  0.00    +0.046 A 
BRANCH  24  30
ATOM     30  O   UNL     1      -0.074   5.628   0.032  0.00  0.00    -0.486 OA
BRANCH  30  31
ATOM     31  C   UNL     1      -1.356   6.259   0.047  0.00  0.00    +0.285 C 
BRANCH  31  35
ATOM     32  C   UNL     1      -3.148  10.930   0.087  0.00  0.00    +0.073 C 
ATOM     33  C   UNL     1      -2.083   9.864   0.072  0.00  0.00    +0.076 A 
ATOM     34  N   UNL     1      -2.223   8.558   0.061  0.00  0.00    -0.246 NA
ATOM     35  C   UNL     1      -1.179   7.756   0.053  0.00  0.00    +0.086 A 
ATOM     36  C   UNL     1       0.060   8.309   0.043  0.00  0.00    +0.073 A 
ATOM     37  S   UNL     1      -0.356  10.047   0.055  0.00  0.00    -0.080 S 
ENDBRANCH  31  35
ENDBRANCH  30  31
ENDBRANCH  24  30
ENDBRANCH   1  27
TORSDOF 4
