REMARK  Name = ZINC39637126
REMARK  9 active torsions:
REMARK  status: ('A' for Active; 'I' for Inactive)
REMARK    1  A    between atoms: C_1  and  C_2
REMARK    2  A    between atoms: C_2  and  C_3
REMARK    3  A    between atoms: C_3  and  C_4
REMARK    4  A    between atoms: C_4  and  C_6
REMARK    5  A    between atoms: C_4  and  C_7
REMARK    6  A    between atoms: C_11  and  C_20
REMARK    7  A    between atoms: N_22  and  C_23
REMARK    8  A    between atoms: C_28  and  C_33
REMARK    9  A    between atoms: C_30  and  C_32
REMARK                            x       y       z     vdW  Elec       q    Type
REMARK                         _______ _______ _______ _____ _____    ______ ____
ROOT
ATOM      1  C   UNL     1       1.425  -2.530  -2.683  0.00  0.00    +0.218 C 
ATOM      2  O   UNL     1       1.757  -1.755  -3.554  0.00  0.00    -0.275 OA
ATOM      3  N   UNL     1       1.502  -3.859  -2.897  0.00  0.00    -0.300 N 
ATOM      4  C   UNL     1       1.138  -4.952  -1.965  0.00  0.00    +0.121 C 
ATOM      5  C   UNL     1       0.462  -6.017  -2.857  0.00  0.00    +0.100 C 
ATOM      6  C   UNL     1       1.012  -5.753  -4.269  0.00  0.00    -0.004 C 
ATOM      7  C   UNL     1       1.962  -4.556  -4.121  0.00  0.00    +0.115 C 
ATOM      8  C   UNL     1      -0.126  -5.402  -5.222  0.00  0.00    -0.010 C 
ATOM      9  C   UNL     1       0.439  -5.200  -6.631  0.00  0.00    -0.082 C 
ATOM     10  N   UNL     1       1.111  -6.429  -7.071  0.00  0.00    +0.379 N 
ATOM     11  C   UNL     1       2.261  -6.709  -6.203  0.00  0.00    -0.082 C 
ATOM     12  C   UNL     1       1.773  -6.974  -4.776  0.00  0.00    -0.010 C 
ATOM     13  H   UNL     1       0.462  -7.200  -7.027  0.00  0.00    -0.086 HD
ATOM     14  H   UNL     1       1.429  -6.314  -8.022  0.00  0.00    -0.086 HD
ENDROOT
BRANCH   5  15
ATOM     15  C   UNL     1       0.836  -7.402  -2.395  0.00  0.00    +0.218 C 
ATOM     16  O   UNL     1       1.917  -7.599  -1.883  0.00  0.00    -0.275 OA
ATOM     17  N   UNL     1      -0.032  -8.421  -2.552  0.00  0.00    -0.312 N 
ATOM     18  H   UNL     1      -0.896  -8.264  -2.962  0.00  0.00    +0.149 HD
BRANCH  17  19
ATOM     19  C   UNL     1       0.332  -9.768  -2.104  0.00  0.00    +0.076 C 
ATOM     20  C   UNL     1       1.132 -10.473  -3.202  0.00  0.00    +0.022 C 
ATOM     21  C   UNL     1       1.512 -11.879  -2.733  0.00  0.00    +0.002 C 
ATOM     22  C   UNL     1       0.241 -12.678  -2.435  0.00  0.00    +0.003 C 
ATOM     23  C   UNL     1      -0.559 -11.973  -1.338  0.00  0.00    -0.009 C 
ATOM     24  C   UNL     1      -0.939 -10.567  -1.806  0.00  0.00    +0.009 C 
ATOM     25  C   UNL     1      -1.789 -10.664  -3.074  0.00  0.00    +0.009 C 
ATOM     26  C   UNL     1      -1.829 -12.772  -1.040  0.00  0.00    +0.008 C 
ENDBRANCH  17  19
ENDBRANCH   5  15
BRANCH   1  27
ATOM     27  C   UNL     1       0.926  -2.008  -1.360  0.00  0.00    +0.072 C 
ATOM     28  C   UNL     1       1.836  -2.512  -0.237  0.00  0.00    +0.017 C 
BRANCH  27  29
ATOM     29  C   UNL     1       0.939  -0.478  -1.378  0.00  0.00    +0.012 C 
BRANCH  29  31
ATOM     30  C   UNL     1       0.329   1.582  -0.103  0.00  0.00    +0.004 C 
ATOM     31  C   UNL     1       0.317   0.052  -0.085  0.00  0.00    -0.003 C 
ENDBRANCH  29  31
ENDBRANCH  27  29
ENDBRANCH   1  27
TORSDOF 5
