REMARK  Name = ZINC25445085
REMARK  7 active torsions:
REMARK  status: ('A' for Active; 'I' for Inactive)
REMARK    1  A    between atoms: C_1  and  C_2
REMARK    2  A    between atoms: C_9  and  N_15
REMARK    3  A    between atoms: C_10  and  C_11
REMARK    4  A    between atoms: C_11  and  O_13
REMARK    5  A    between atoms: O_13  and  C_14
REMARK    6  A    between atoms: C_16  and  C_18
REMARK    7  A    between atoms: C_18  and  N_19
REMARK                            x       y       z     vdW  Elec       q    Type
REMARK                         _______ _______ _______ _____ _____    ______ ____
ROOT
ATOM      1  C   UNL     1      -3.864   0.243  -2.670  0.00  0.00    +0.214 C 
ENDROOT
BRANCH   1   2
ATOM      2  N   UNL     1      -2.502   0.621  -2.288  0.00  0.00    -0.215 N 
ATOM      3  C   UNL     1      -2.202   1.380  -1.207  0.00  0.00    +0.251 C 
ATOM      4  O   UNL     1      -3.009   1.780  -0.395  0.00  0.00    -0.272 OA
ATOM      5  C   UNL     1      -0.716   1.583  -1.251  0.00  0.00    +0.138 C 
ATOM      6  C   UNL     1      -0.013   1.091   0.008  0.00  0.00    +0.040 C 
ATOM      7  C   UNL     1      -0.690   1.568   1.276  0.00  0.00    +0.003 C 
ATOM      8  C   UNL     1      -0.524   3.050   1.552  0.00  0.00    +0.005 C 
ATOM      9  C   UNL     1      -1.382   3.881   0.600  0.00  0.00    +0.035 C 
ATOM     10  C   UNL     1      -0.641   4.058  -0.709  0.00  0.00    -0.042 A 
ATOM     11  C   UNL     1      -0.345   3.019  -1.542  0.00  0.00    -0.012 A 
ATOM     12  C   UNL     1       0.336   3.266  -2.732  0.00  0.00    +0.006 A 
ATOM     13  C   UNL     1       0.712   4.550  -3.068  0.00  0.00    +0.000 A 
ATOM     14  C   UNL     1       0.411   5.600  -2.222  0.00  0.00    +0.000 A 
ATOM     15  C   UNL     1      -0.265   5.354  -1.044  0.00  0.00    +0.004 A 
ATOM     16  N   UNL     1      -0.282   0.748  -2.391  0.00  0.00    -0.281 N 
ATOM     17  C   UNL     1      -1.401   0.264  -2.957  0.00  0.00    +0.310 C 
ATOM     18  O   UNL     1      -1.412  -0.420  -3.962  0.00  0.00    -0.252 OA
ATOM     19  H   UNL     1       0.789   0.636  -2.614  0.00  0.00    +0.152 HD
ENDBRANCH   1   2
BRANCH   1  21
ATOM     20  N   UNL     1      -5.684   1.147  -4.080  0.00  0.00    -0.278 N 
ATOM     21  C   UNL     1      -4.434   1.286  -3.597  0.00  0.00    +0.236 C 
ATOM     22  O   UNL     1      -3.768   2.251  -3.907  0.00  0.00    -0.274 OA
ATOM     23  H   UNL     1      -6.289   0.272  -3.799  0.00  0.00    +0.155 HD
BRANCH  20  31
ATOM     24  C   UNL     1      -8.300   6.828  -8.778  0.00  0.00    +0.008 C 
ATOM     25  C   UNL     1      -8.262   5.738  -7.705  0.00  0.00    -0.009 C 
ATOM     26  C   UNL     1      -8.906   4.458  -8.247  0.00  0.00    +0.008 C 
ATOM     27  C   UNL     1      -9.096   3.451  -7.112  0.00  0.00    +0.037 C 
ATOM     28  C   UNL     1      -7.767   3.270  -6.388  0.00  0.00    -0.021 A 
ATOM     29  C   UNL     1      -6.777   4.180  -6.515  0.00  0.00    -0.004 A 
ATOM     30  S   UNL     1      -5.458   3.556  -5.514  0.00  0.00    -0.077 S 
ATOM     31  C   UNL     1      -6.208   2.106  -4.932  0.00  0.00    +0.086 A 
ATOM     32  C   UNL     1      -7.461   2.137  -5.532  0.00  0.00    +0.091 A 
ATOM     33  C   UNL     1      -6.805   5.437  -7.328  0.00  0.00    +0.046 C 
BRANCH  32  34
ATOM     34  C   UNL     1      -8.437   1.069  -5.307  0.00  0.00    +0.342 C 
ATOM     35  O   UNL     1      -9.226   1.151  -4.386  0.00  0.00    -0.245 OA
BRANCH  34  36
ATOM     36  O   UNL     1      -8.460  -0.006  -6.122  0.00  0.00    -0.464 OA
ATOM     37  C   UNL     1      -9.454  -1.026  -5.839  0.00  0.00    +0.280 C 
ENDBRANCH  34  36
ENDBRANCH  32  34
ENDBRANCH  20  31
ENDBRANCH   1  21
TORSDOF 5
