REMARK  Name = ZINC36312923
REMARK  10 active torsions:
REMARK  status: ('A' for Active; 'I' for Inactive)
REMARK    1  A    between atoms: C_1  and  C_2
REMARK    2  A    between atoms: C_5  and  S_8
REMARK    3  A    between atoms: S_8  and  N_11
REMARK    4  A    between atoms: N_11  and  C_12
REMARK    5  A    between atoms: N_11  and  C_32
REMARK    6  A    between atoms: C_12  and  C_13
REMARK    7  A    between atoms: C_14  and  C_25
REMARK    8  A    between atoms: C_17  and  N_18
REMARK    9  A    between atoms: N_21  and  C_24
REMARK   10  A    between atoms: C_32  and  C_33
REMARK                            x       y       z     vdW  Elec       q    Type
REMARK                         _______ _______ _______ _____ _____    ______ ____
ROOT
ATOM      1  C   UNL     1       2.531  -7.033   1.473  0.00  0.00    +0.057 A 
ATOM      2  C   UNL     1       1.419  -7.316   2.295  0.00  0.00    +0.120 A 
ATOM      3  N   UNL     1       1.038  -8.549   2.049  0.00  0.00    -0.076 NA
ATOM      4  O   UNL     1       1.900  -9.085   1.062  0.00  0.00    -0.339 OA
ATOM      5  C   UNL     1       2.793  -8.137   0.729  0.00  0.00    +0.225 A 
ENDROOT
BRANCH   5   6
ATOM      6  N   UNL     1       3.803  -8.265  -0.206  0.00  0.00    -0.303 N 
ATOM      7  C   UNL     1       5.203  -8.438   0.212  0.00  0.00    +0.089 C 
ATOM      8  C   UNL     1       5.788  -9.642  -0.535  0.00  0.00    -0.060 C 
ATOM      9  N   UNL     1       5.605  -9.457  -1.980  0.00  0.00    +0.380 N 
ATOM     10  C   UNL     1       4.173  -9.447  -2.306  0.00  0.00    -0.060 C 
ATOM     11  C   UNL     1       3.508  -8.239  -1.647  0.00  0.00    +0.089 C 
ATOM     12  C   UNL     1       6.262 -10.556  -2.700  0.00  0.00    -0.096 C 
ATOM     13  H   UNL     1       6.019  -8.580  -2.260  0.00  0.00    -0.082 HD
ENDBRANCH   5   6
BRANCH   2  14
ATOM     14  C   UNL     1       0.792  -6.386   3.266  0.00  0.00    +0.004 A 
ATOM     15  C   UNL     1       1.589  -5.616   4.111  0.00  0.00    +0.013 A 
ATOM     16  C   UNL     1       1.002  -4.752   5.012  0.00  0.00    +0.039 A 
ATOM     17  C   UNL     1      -0.379  -4.649   5.077  0.00  0.00    +0.123 A 
ATOM     18  C   UNL     1      -1.175  -5.413   4.239  0.00  0.00    +0.039 A 
ATOM     19  C   UNL     1      -0.596  -6.275   3.331  0.00  0.00    +0.013 A 
ATOM     20  F   UNL     1      -0.950  -3.802   5.962  0.00  0.00    -0.205 F 
ENDBRANCH   2  14
BRANCH   1  21
ATOM     21  C   UNL     1       3.289  -5.732   1.426  0.00  0.00    +0.152 C 
BRANCH  21  22
ATOM     22  N   UNL     1       2.660  -4.835   0.454  0.00  0.00    -0.170 NA
BRANCH  22  23
ATOM     23  S   UNL     1       1.673  -3.611   0.974  0.00  0.00    +0.061 S 
ATOM     24  O   UNL     1       1.185  -3.998   2.251  0.00  0.00    -0.153 OA
ATOM     25  O   UNL     1       0.808  -3.300  -0.110  0.00  0.00    -0.153 OA
BRANCH  23  30
ATOM     26  C   UNL     1       5.151   1.240   1.853  0.00  0.00    +0.044 C 
ATOM     27  C   UNL     1       4.283   0.028   1.633  0.00  0.00    -0.050 A 
ATOM     28  C   UNL     1       3.704  -0.192   0.397  0.00  0.00    +0.005 A 
ATOM     29  C   UNL     1       2.907  -1.304   0.196  0.00  0.00    +0.029 A 
ATOM     30  C   UNL     1       2.689  -2.195   1.230  0.00  0.00    +0.106 A 
ATOM     31  C   UNL     1       3.269  -1.975   2.466  0.00  0.00    +0.029 A 
ATOM     32  C   UNL     1       4.070  -0.866   2.666  0.00  0.00    +0.005 A 
ENDBRANCH  23  30
ENDBRANCH  22  23
BRANCH  22  33
ATOM     33  C   UNL     1       2.905  -5.021  -0.979  0.00  0.00    +0.141 C 
BRANCH  33  34
ATOM     34  C   UNL     1       4.191  -4.293  -1.375  0.00  0.00    +0.134 C 
ATOM     35  C   UNL     1       4.472  -4.507  -2.878  0.00  0.00    +0.035 C 
ATOM     36  C   UNL     1       6.014  -4.685  -2.903  0.00  0.00    +0.031 C 
ATOM     37  C   UNL     1       6.248  -5.414  -1.556  0.00  0.00    +0.160 C 
ATOM     38  O   UNL     1       5.299  -4.833  -0.645  0.00  0.00    -0.375 OA
ENDBRANCH  33  34
ENDBRANCH  22  33
ENDBRANCH  21  22
ENDBRANCH   1  21
TORSDOF 8
