REMARK  Name = ZINC04064139
REMARK  13 active torsions:
REMARK  status: ('A' for Active; 'I' for Inactive)
REMARK    1  A    between atoms: C_1  and  C_2
REMARK    2  A    between atoms: C_6  and  C_22
REMARK    3  A    between atoms: C_6  and  C_23
REMARK    4  A    between atoms: C_13  and  C_15
REMARK    5  A    between atoms: C_15  and  C_16
REMARK    6  A    between atoms: C_16  and  C_17
REMARK    7  A    between atoms: N_25  and  C_26
REMARK    8  A    between atoms: C_26  and  C_27
REMARK    9  A    between atoms: C_27  and  C_28
REMARK   10  A    between atoms: C_28  and  C_29
REMARK   11  A    between atoms: C_29  and  C_30
REMARK   12  A    between atoms: C_30  and  C_31
REMARK   13  A    between atoms: C_31  and  N_72
REMARK                            x       y       z     vdW  Elec       q    Type
REMARK                         _______ _______ _______ _____ _____    ______ ____
ROOT
ATOM      1  C   UNL     1      -0.025   7.229   2.794  0.00  0.00    +0.012 C 
ATOM      2  C   UNL     1      -0.725   7.769   4.043  0.00  0.00    -0.022 C 
ATOM      3  C   UNL     1       0.023   7.278   5.284  0.00  0.00    +0.007 C 
ATOM      4  C   UNL     1       0.039   5.748   5.293  0.00  0.00    +0.002 C 
ATOM      5  C   UNL     1      -1.397   5.220   5.309  0.00  0.00    +0.016 C 
ATOM      6  C   UNL     1      -2.143   5.721   4.071  0.00  0.00    +0.047 C 
ATOM      7  C   UNL     1      -2.165   7.254   4.082  0.00  0.00    +0.010 C 
ATOM      8  C   UNL     1      -2.852   7.732   5.363  0.00  0.00    +0.009 C 
ATOM      9  C   UNL     1      -2.935   9.262   5.359  0.00  0.00    +0.031 C 
ATOM     10  C   UNL     1      -1.540   9.816   5.167  0.00  0.00    -0.073 C 
ATOM     11  C   UNL     1      -1.056  10.719   5.983  0.00  0.00    +0.008 C 
ATOM     12  C   UNL     1      -0.721   9.299   4.005  0.00  0.00    +0.021 C 
ATOM     13  C   UNL     1      -3.578   5.190   4.088  0.00  0.00    +0.021 C 
ENDROOT
BRANCH   6  14
ATOM     14  C   UNL     1      -1.442   5.236   2.829  0.00  0.00    +0.219 C 
ATOM     15  O   UNL     1      -0.516   4.457   2.920  0.00  0.00    -0.275 OA
ATOM     16  N   UNL     1      -1.843   5.667   1.617  0.00  0.00    -0.315 N 
ATOM     17  H   UNL     1      -2.583   6.289   1.544  0.00  0.00    +0.149 HD
BRANCH  16  18
ATOM     18  C   UNL     1      -1.161   5.195   0.409  0.00  0.00    +0.104 C 
BRANCH  18  19
ATOM     19  C   UNL     1      -1.807   5.831  -0.823  0.00  0.00    +0.019 C 
BRANCH  19  20
ATOM     20  C   UNL     1      -1.094   5.338  -2.085  0.00  0.00    +0.001 C 
BRANCH  20  21
ATOM     21  C   UNL     1      -1.740   5.975  -3.317  0.00  0.00    -0.002 C 
BRANCH  21  22
ATOM     22  C   UNL     1      -1.028   5.482  -4.578  0.00  0.00    -0.020 C 
BRANCH  22  23
ATOM     23  C   UNL     1      -1.674   6.119  -5.810  0.00  0.00    -0.086 C 
BRANCH  23  26
ATOM     24  H   UNL     1      -0.998   4.638  -7.071  0.00  0.00    -0.090 HD
ATOM     25  H   UNL     1      -1.398   6.052  -7.849  0.00  0.00    -0.090 HD
ATOM     26  N   UNL     1      -0.966   5.654  -7.017  0.00  0.00    +0.378 N 
ATOM     27  H   UNL     1       0.014   5.957  -6.971  0.00  0.00    -0.090 HD
ENDBRANCH  23  26
ENDBRANCH  22  23
ENDBRANCH  21  22
ENDBRANCH  20  21
ENDBRANCH  19  20
ENDBRANCH  18  19
ENDBRANCH  16  18
ENDBRANCH   6  14
BRANCH  12  28
ATOM     28  C   UNL     1      -1.335   9.780   2.689  0.00  0.00    +0.013 C 
BRANCH  28  29
ATOM     29  C   UNL     1      -1.233  11.305   2.607  0.00  0.00    +0.039 C 
BRANCH  29  30
ATOM     30  C   UNL     1      -1.837  11.780   1.311  0.00  0.00    -0.010 A 
ATOM     31  C   UNL     1      -3.187  12.140   1.093  0.00  0.00    +0.044 A 
ATOM     32  C   UNL     1      -3.290  12.501  -0.199  0.00  0.00    +0.195 A 
ATOM     33  O   UNL     1      -2.081  12.380  -0.771  0.00  0.00    -0.471 OA
ATOM     34  C   UNL     1      -1.195  11.947   0.141  0.00  0.00    +0.198 A 
ENDBRANCH  29  30
ENDBRANCH  28  29
ENDBRANCH  12  28
TORSDOF 11
