REMARK  Name = ZINC04696730
REMARK  2 active torsions:
REMARK  status: ('A' for Active; 'I' for Inactive)
REMARK    1  A    between atoms: C_3  and  C_8
REMARK    2  A    between atoms: C_11  and  C_12
REMARK                            x       y       z     vdW  Elec       q    Type
REMARK                         _______ _______ _______ _____ _____    ______ ____
ROOT
ATOM      1  C   UNL     1       0.029   1.264  -0.642  0.00  0.00    +0.232 C 
ATOM      2  N   UNL     1       1.211   1.786  -0.462  0.00  0.00    -0.205 NA
ATOM      3  C   UNL     1       2.114   0.784  -0.256  0.00  0.00    +0.152 C 
ATOM      4  C   UNL     1       3.469   0.914  -0.027  0.00  0.00    +0.044 C 
ATOM      5  C   UNL     1       1.338  -0.466  -0.329  0.00  0.00    +0.364 C 
ATOM      6  O   UNL     1       1.753  -1.603  -0.200  0.00  0.00    -0.243 OA
ATOM      7  O   UNL     1       0.066  -0.081  -0.569  0.00  0.00    -0.402 OA
ENDROOT
BRANCH   4   8
ATOM      8  C   UNL     1       4.107   2.227  -0.136  0.00  0.00    -0.001 A 
ATOM      9  C   UNL     1       3.326   3.393  -0.122  0.00  0.00    +0.059 A 
ATOM     10  C   UNL     1       3.933   4.627  -0.226  0.00  0.00    +0.167 A 
ATOM     11  C   UNL     1       5.322   4.716  -0.344  0.00  0.00    +0.168 A 
ATOM     12  C   UNL     1       6.097   3.563  -0.359  0.00  0.00    +0.070 A 
ATOM     13  C   UNL     1       5.502   2.325  -0.249  0.00  0.00    +0.052 A 
ATOM     14 CL   UNL     1       6.476   0.889  -0.259  0.00  0.00    -0.083 Cl
ATOM     15  O   UNL     1       5.667   6.033  -0.430  0.00  0.00    -0.453 OA
ATOM     16  C   UNL     1       4.522   6.763   0.048  0.00  0.00    +0.466 C 
ATOM     17  O   UNL     1       3.414   5.890  -0.237  0.00  0.00    -0.453 OA
ENDBRANCH   4   8
BRANCH   1  20
ATOM     18  C   UNL     1      -2.282   4.170  -1.197  0.00  0.00    +0.002 A 
ATOM     19  C   UNL     1      -1.136   3.443  -0.953  0.00  0.00    +0.013 A 
ATOM     20  C   UNL     1      -1.195   2.049  -0.900  0.00  0.00    +0.038 A 
ATOM     21  C   UNL     1      -2.417   1.400  -1.086  0.00  0.00    +0.028 A 
ATOM     22  C   UNL     1      -3.558   2.140  -1.326  0.00  0.00    +0.019 A 
ATOM     23  C   UNL     1      -3.490   3.522  -1.381  0.00  0.00    +0.015 A 
ATOM     24 BR   UNL     1      -5.215   1.265  -1.579  0.00  0.00    -0.050 Br
ENDBRANCH   1  20
TORSDOF 2
