REMARK  Name = ZINC34685069
REMARK  13 active torsions:
REMARK  status: ('A' for Active; 'I' for Inactive)
REMARK    1  A    between atoms: C_1  and  C_2
REMARK    2  A    between atoms: C_2  and  C_4
REMARK    3  A    between atoms: C_2  and  O_25
REMARK    4  A    between atoms: C_4  and  N_5
REMARK    5  A    between atoms: C_9  and  C_10
REMARK    6  A    between atoms: C_10  and  C_12
REMARK    7  A    between atoms: C_10  and  N_24
REMARK    8  A    between atoms: C_14  and  O_22
REMARK    9  A    between atoms: C_15  and  O_20
REMARK   10  A    between atoms: C_16  and  O_18
REMARK   11  A    between atoms: O_18  and  C_19
REMARK   12  A    between atoms: O_20  and  C_21
REMARK   13  A    between atoms: O_22  and  C_23
REMARK                            x       y       z     vdW  Elec       q    Type
REMARK                         _______ _______ _______ _____ _____    ______ ____
ROOT
ATOM      1  C   UNL     1       2.688  -2.042  -0.236  0.00  0.00    +0.147 C 
ENDROOT
BRANCH   1   6
ATOM      2  N   UNL     1       1.545  -4.044   0.837  0.00  0.00    -0.332 N 
ATOM      3  C   UNL     1       0.457  -4.241   1.643  0.00  0.00    +0.105 A 
ATOM      4  C   UNL     1      -0.085  -3.029   1.869  0.00  0.00    +0.102 A 
ATOM      5  N   UNL     1       0.652  -2.117   1.219  0.00  0.00    -0.348 N 
ATOM      6  C   UNL     1       1.633  -2.717   0.602  0.00  0.00    +0.109 A 
ATOM      7  H   UNL     1       0.485  -1.161   1.211  0.00  0.00    +0.166 HD
BRANCH   2   8
ATOM      8  C   UNL     1       2.449  -5.079   0.328  0.00  0.00    +0.154 C 
BRANCH   8  10
ATOM      9  C   UNL     1       4.682  -6.157   0.632  0.00  0.00    +0.039 C 
ATOM     10  C   UNL     1       3.677  -5.174   1.236  0.00  0.00    +0.131 C 
BRANCH  10  11
ATOM     11  O   UNL     1       3.279  -5.633   2.529  0.00  0.00    -0.390 OA
ATOM     12  H   UNL     1       2.859  -6.503   2.526  0.00  0.00    +0.210 HD
ENDBRANCH  10  11
ENDBRANCH   8  10
ENDBRANCH   2   8
ENDBRANCH   1   6
BRANCH   1  13
ATOM     13  C   UNL     1       2.179  -1.875  -1.645  0.00  0.00    -0.016 A 
ATOM     14  C   UNL     1       1.230  -0.911  -1.926  0.00  0.00    +0.055 A 
ATOM     15  C   UNL     1       0.759  -0.755  -3.220  0.00  0.00    +0.165 A 
ATOM     16  C   UNL     1       1.244  -1.569  -4.237  0.00  0.00    +0.204 A 
ATOM     17  C   UNL     1       2.199  -2.537  -3.951  0.00  0.00    +0.165 A 
ATOM     18  C   UNL     1       2.668  -2.684  -2.654  0.00  0.00    +0.055 A 
BRANCH  17  19
ATOM     19  O   UNL     1       2.676  -3.337  -4.942  0.00  0.00    -0.491 OA
ATOM     20  C   UNL     1       3.656  -4.310  -4.575  0.00  0.00    +0.277 C 
ENDBRANCH  17  19
BRANCH  16  21
ATOM     21  O   UNL     1       0.784  -1.419  -5.509  0.00  0.00    -0.488 OA
ATOM     22  C   UNL     1       1.489  -0.505  -6.351  0.00  0.00    +0.277 C 
ENDBRANCH  16  21
BRANCH  15  23
ATOM     23  O   UNL     1      -0.176   0.194  -3.495  0.00  0.00    -0.491 OA
ATOM     24  C   UNL     1      -0.629   0.995  -2.402  0.00  0.00    +0.277 C 
ENDBRANCH  15  23
ENDBRANCH   1  13
BRANCH   1  25
ATOM     25  N   UNL     1       2.995  -0.723   0.333  0.00  0.00    -0.318 NA
ATOM     26  H   UNL     1       3.689  -0.242  -0.221  0.00  0.00    +0.119 HD
ATOM     27  H   UNL     1       2.159  -0.166   0.427  0.00  0.00    +0.119 HD
ENDBRANCH   1  25
TORSDOF 9
