REMARK  Name = ZINC13638209
REMARK  8 active torsions:
REMARK  status: ('A' for Active; 'I' for Inactive)
REMARK    1  A    between atoms: C_1  and  O_2
REMARK    2  A    between atoms: O_2  and  C_3
REMARK    3  A    between atoms: C_3  and  C_4
REMARK    4  A    between atoms: C_4  and  C_5
REMARK    5  A    between atoms: C_5  and  N_6
REMARK    6  A    between atoms: C_7  and  C_9
REMARK    7  A    between atoms: C_22  and  C_25
REMARK    8  A    between atoms: C_28  and  O_31
REMARK                            x       y       z     vdW  Elec       q    Type
REMARK                         _______ _______ _______ _____ _____    ______ ____
ROOT
ATOM      1  C   UNL     1       3.391   1.204  -1.082  0.00  0.00    +0.037 A 
ATOM      2  C   UNL     1       3.909   2.208  -0.259  0.00  0.00    +0.015 A 
ATOM      3  C   UNL     1       3.089   2.828   0.654  0.00  0.00    +0.024 A 
ATOM      4  C   UNL     1       1.750   2.457   0.759  0.00  0.00    +0.031 A 
ATOM      5  C   UNL     1       1.226   1.458  -0.052  0.00  0.00    -0.019 A 
ATOM      6  C   UNL     1       2.050   0.835  -0.971  0.00  0.00    +0.019 A 
ATOM      7  C   UNL     1      -0.205   1.029   0.032  0.00  0.00    +0.049 C 
ATOM      8  C   UNL     1      -1.007   1.556  -1.134  0.00  0.00    -0.023 C 
ATOM      9  C   UNL     1      -2.204   1.888  -0.767  0.00  0.00    -0.030 C 
ATOM     10  C   UNL     1      -2.390   1.623   0.714  0.00  0.00    +0.033 C 
ATOM     11  C   UNL     1      -0.933   1.602   1.263  0.00  0.00    +0.029 C 
ATOM     12  C   UNL     1      -0.516   3.044   1.504  0.00  0.00    +0.105 C 
ATOM     13  N   UNL     1       0.937   3.103   1.688  0.00  0.00    -0.336 N 
ATOM     14  H   UNL     1       1.324   3.581   2.439  0.00  0.00    +0.147 HD
ENDROOT
BRANCH  12  15
ATOM     15  C   UNL     1      -0.908   3.877   0.310  0.00  0.00    -0.027 A 
ATOM     16  C   UNL     1      -0.028   4.026  -0.746  0.00  0.00    +0.009 A 
ATOM     17  C   UNL     1      -0.387   4.784  -1.844  0.00  0.00    +0.046 A 
ATOM     18  C   UNL     1      -1.627   5.405  -1.881  0.00  0.00    +0.117 A 
ATOM     19  C   UNL     1      -2.506   5.259  -0.817  0.00  0.00    +0.046 A 
ATOM     20  C   UNL     1      -2.144   4.495   0.276  0.00  0.00    +0.009 A 
BRANCH  18  21
ATOM     21  O   UNL     1      -1.981   6.156  -2.957  0.00  0.00    -0.507 OA
ATOM     22  H   UNL     1      -1.736   7.089  -2.883  0.00  0.00    +0.292 HD
ENDBRANCH  18  21
ENDBRANCH  12  15
BRANCH   1  24
ATOM     23  N   UNL     1       5.558   0.889  -2.171  0.00  0.00    -0.311 N 
ATOM     24  C   UNL     1       4.262   0.533  -2.065  0.00  0.00    +0.244 C 
ATOM     25  O   UNL     1       3.812  -0.342  -2.780  0.00  0.00    -0.270 OA
ATOM     26  H   UNL     1       5.917   1.586  -1.601  0.00  0.00    +0.149 HD
BRANCH  23  27
ATOM     27  C   UNL     1       6.423   0.223  -3.148  0.00  0.00    +0.107 C 
BRANCH  27  28
ATOM     28  C   UNL     1       7.833   0.810  -3.064  0.00  0.00    +0.047 C 
BRANCH  28  29
ATOM     29  C   UNL     1       8.737   0.114  -4.085  0.00  0.00    +0.161 C 
BRANCH  29  31
ATOM     30  C   UNL     1      10.982   0.078  -4.923  0.00  0.00    +0.193 C 
ATOM     31  O   UNL     1      10.054   0.662  -4.006  0.00  0.00    -0.383 OA
ENDBRANCH  29  31
ENDBRANCH  28  29
ENDBRANCH  27  28
ENDBRANCH  23  27
ENDBRANCH   1  24
TORSDOF 7
