REMARK  Name = ZINC08880243
REMARK  10 active torsions:
REMARK  status: ('A' for Active; 'I' for Inactive)
REMARK    1  A    between atoms: C_1  and  C_2
REMARK    2  A    between atoms: C_2  and  O_3
REMARK    3  A    between atoms: O_3  and  C_4
REMARK    4  A    between atoms: C_4  and  C_6
REMARK    5  A    between atoms: C_7  and  C_36
REMARK    6  A    between atoms: C_15  and  C_17
REMARK    7  A    between atoms: C_20  and  S_23
REMARK    8  A    between atoms: S_23  and  N_26
REMARK    9  A    between atoms: C_28  and  C_35
REMARK   10  A    between atoms: C_31  and  C_34
REMARK                            x       y       z     vdW  Elec       q    Type
REMARK                         _______ _______ _______ _____ _____    ______ ____
ROOT
ATOM      1  C   UNL     1       0.770 -11.131   0.194  0.00  0.00    +0.102 A 
ATOM      2  C   UNL     1       1.784 -10.305   0.641  0.00  0.00    -0.013 A 
ATOM      3  C   UNL     1       1.610  -8.940   0.585  0.00  0.00    +0.052 A 
ATOM      4  C   UNL     1       0.395  -8.451   0.067  0.00  0.00    +0.119 A 
ATOM      5  S   UNL     1      -0.474  -9.965  -0.328  0.00  0.00    -0.061 S 
ATOM      6  N   UNL     1       0.233  -7.136   0.014  0.00  0.00    -0.217 NA
ATOM      7  C   UNL     1       1.161  -6.296   0.425  0.00  0.00    +0.166 A 
ATOM      8  S   UNL     1       2.454  -7.405   0.961  0.00  0.00    -0.051 S 
ATOM      9  N   UNL     1       1.142  -4.913   0.434  0.00  0.00    -0.261 N 
ATOM     10  C   UNL     1       0.061  -4.251  -0.024  0.00  0.00    +0.250 C 
ATOM     11  O   UNL     1      -0.897  -4.869  -0.445  0.00  0.00    -0.270 OA
ATOM     12  C   UNL     1       3.062 -10.891   1.184  0.00  0.00    +0.046 C 
ATOM     13  H   UNL     1       1.907  -4.419   0.770  0.00  0.00    +0.157 HD
ENDROOT
BRANCH  10  14
ATOM     14  C   UNL     1       0.040  -2.773  -0.015  0.00  0.00    +0.037 A 
ATOM     15  C   UNL     1      -1.078  -2.084  -0.488  0.00  0.00    +0.015 A 
ATOM     16  C   UNL     1      -1.091  -0.705  -0.477  0.00  0.00    +0.029 A 
ATOM     17  C   UNL     1       0.002  -0.004   0.002  0.00  0.00    +0.106 A 
ATOM     18  C   UNL     1       1.116  -0.680   0.468  0.00  0.00    +0.029 A 
ATOM     19  C   UNL     1       1.139  -2.060   0.468  0.00  0.00    +0.015 A 
BRANCH  17  20
ATOM     20  S   UNL     1      -0.022   1.758   0.012  0.00  0.00    +0.061 S 
ATOM     21  O   UNL     1       1.334   2.182   0.001  0.00  0.00    -0.153 OA
ATOM     22  O   UNL     1      -0.953   2.157  -0.985  0.00  0.00    -0.153 OA
BRANCH  20  23
ATOM     23  N   UNL     1      -0.654   2.231   1.467  0.00  0.00    -0.176 NA
ATOM     24  C   UNL     1      -2.101   2.438   1.623  0.00  0.00    +0.112 C 
ATOM     25  C   UNL     1      -2.589   1.597   2.813  0.00  0.00    +0.002 C 
ATOM     26  C   UNL     1      -1.766   1.953   4.053  0.00  0.00    +0.009 C 
ATOM     27  C   UNL     1      -0.293   1.623   3.803  0.00  0.00    +0.002 C 
ATOM     28  C   UNL     1       0.221   2.458   2.626  0.00  0.00    +0.112 C 
ATOM     29  C   UNL     1       0.523   1.948   5.055  0.00  0.00    +0.009 C 
ATOM     30  C   UNL     1      -2.418   0.110   2.496  0.00  0.00    +0.009 C 
ENDBRANCH  20  23
ENDBRANCH  17  20
ENDBRANCH  10  14
BRANCH   1  31
ATOM     31  C   UNL     1       0.729 -12.547   0.159  0.00  0.00    +0.346 C 
ATOM     32  O   UNL     1       1.679 -13.193   0.560  0.00  0.00    -0.244 OA
BRANCH  31  33
ATOM     33  O   UNL     1      -0.363 -13.179  -0.320  0.00  0.00    -0.461 OA
BRANCH  33  35
ATOM     34  C   UNL     1      -1.650 -15.141  -0.900  0.00  0.00    +0.048 C 
ATOM     35  C   UNL     1      -0.335 -14.608  -0.326  0.00  0.00    +0.229 C 
ENDBRANCH  33  35
ENDBRANCH  31  33
ENDBRANCH   1  31
TORSDOF 6
