REMARK  Name = ZINC61788716
REMARK  9 active torsions:
REMARK  status: ('A' for Active; 'I' for Inactive)
REMARK    1  A    between atoms: C_1  and  C_2
REMARK    2  A    between atoms: C_2  and  O_3
REMARK    3  A    between atoms: O_3  and  C_4
REMARK    4  A    between atoms: C_8  and  C_10
REMARK    5  A    between atoms: C_10  and  C_11
REMARK    6  A    between atoms: C_10  and  N_12
REMARK    7  A    between atoms: N_15  and  C_16
REMARK    8  A    between atoms: C_21  and  C_22
REMARK    9  A    between atoms: C_22  and  N_23
REMARK                            x       y       z     vdW  Elec       q    Type
REMARK                         _______ _______ _______ _____ _____    ______ ____
ROOT
ATOM      1  N   UNL     1      -4.126  -5.823  -0.435  0.00  0.00    -0.293 N 
ATOM      2  C   UNL     1      -5.281  -6.066  -1.086  0.00  0.00    +0.304 C 
ATOM      3  O   UNL     1      -6.263  -5.385  -0.858  0.00  0.00    -0.252 OA
ATOM      4  N   UNL     1      -5.348  -7.064  -1.989  0.00  0.00    -0.269 N 
ATOM      5  H   UNL     1      -3.344  -6.366  -0.616  0.00  0.00    +0.151 HD
ATOM      6  H   UNL     1      -4.549  -7.562  -2.222  0.00  0.00    +0.156 HD
ENDROOT
BRANCH   4   7
ATOM      7  C   UNL     1      -6.571  -7.383  -2.590  0.00  0.00    +0.036 A 
ATOM      8  C   UNL     1      -7.495  -6.382  -2.861  0.00  0.00    +0.023 A 
ATOM      9  C   UNL     1      -8.700  -6.699  -3.455  0.00  0.00    +0.002 A 
ATOM     10  C   UNL     1      -8.988  -8.012  -3.780  0.00  0.00    +0.000 A 
ATOM     11  C   UNL     1      -8.071  -9.011  -3.512  0.00  0.00    +0.003 A 
ATOM     12  C   UNL     1      -6.861  -8.699  -2.923  0.00  0.00    -0.043 A 
BRANCH  12  13
ATOM     13  C   UNL     1      -5.859  -9.788  -2.637  0.00  0.00    -0.041 C 
BRANCH  13  14
ATOM     14  N   UNL     1      -5.905 -10.133  -1.209  0.00  0.00    +0.383 N 
ATOM     15  C   UNL     1      -4.804 -11.048  -0.901  0.00  0.00    -0.068 C 
ATOM     16  C   UNL     1      -4.602 -11.126   0.617  0.00  0.00    +0.050 C 
ATOM     17  S   UNL     1      -6.122 -11.798   1.361  0.00  0.00    -0.164 S 
ATOM     18  C   UNL     1      -7.421 -10.765   0.613  0.00  0.00    +0.050 C 
ATOM     19  C   UNL     1      -7.201 -10.741  -0.904  0.00  0.00    -0.068 C 
ATOM     20  H   UNL     1      -5.798  -9.291  -0.663  0.00  0.00    -0.081 HD
ENDBRANCH  13  14
ENDBRANCH  12  13
ENDBRANCH   4   7
BRANCH   1  21
ATOM     21  C   UNL     1      -4.054  -4.738   0.547  0.00  0.00    +0.102 C 
ATOM     22  C   UNL     1      -4.542  -5.245   1.905  0.00  0.00    +0.033 C 
BRANCH  21  27
ATOM     23  C   UNL     1      -1.042  -2.484   0.905  0.00  0.00    +0.121 A 
ATOM     24  C   UNL     1      -0.005  -3.408   0.895  0.00  0.00    +0.045 A 
ATOM     25  C   UNL     1      -0.284  -4.755   0.772  0.00  0.00    +0.004 A 
ATOM     26  C   UNL     1      -1.593  -5.184   0.660  0.00  0.00    +0.006 A 
ATOM     27  C   UNL     1      -2.627  -4.266   0.670  0.00  0.00    -0.024 A 
ATOM     28  C   UNL     1      -2.355  -2.918   0.798  0.00  0.00    +0.051 A 
BRANCH  23  29
ATOM     29  O   UNL     1      -0.770  -1.158   1.026  0.00  0.00    -0.492 OA
BRANCH  29  31
ATOM     30  C   UNL     1       0.711   0.737   1.259  0.00  0.00    +0.048 C 
ATOM     31  C   UNL     1       0.605  -0.784   1.132  0.00  0.00    +0.225 C 
ENDBRANCH  29  31
ENDBRANCH  23  29
ENDBRANCH  21  27
ENDBRANCH   1  21
TORSDOF 7
