REMARK  Name = ZINC66975511
REMARK  9 active torsions:
REMARK  status: ('A' for Active; 'I' for Inactive)
REMARK    1  A    between atoms: C_1  and  N_2
REMARK    2  A    between atoms: N_2  and  C_3
REMARK    3  A    between atoms: N_2  and  C_4
REMARK    4  A    between atoms: C_4  and  C_6
REMARK    5  A    between atoms: C_4  and  C_23
REMARK    6  A    between atoms: C_6  and  N_7
REMARK    7  A    between atoms: N_10  and  C_11
REMARK    8  A    between atoms: C_11  and  C_12
REMARK    9  A    between atoms: C_12  and  O_22
REMARK                            x       y       z     vdW  Elec       q    Type
REMARK                         _______ _______ _______ _____ _____    ______ ____
ROOT
ATOM      1  N   UNL     1      -1.493   1.445  -1.410  0.00  0.00    -0.301 N 
ATOM      2  C   UNL     1      -2.108   2.216  -2.329  0.00  0.00    +0.300 C 
ATOM      3  O   UNL     1      -2.874   1.714  -3.128  0.00  0.00    -0.253 OA
ATOM      4  N   UNL     1      -1.873   3.542  -2.362  0.00  0.00    -0.296 N 
ATOM      5  H   UNL     1      -0.881   1.845  -0.772  0.00  0.00    +0.150 HD
ATOM      6  H   UNL     1      -1.261   3.943  -1.724  0.00  0.00    +0.150 HD
ENDROOT
BRANCH   1   7
ATOM      7  C   UNL     1      -1.748   0.003  -1.374  0.00  0.00    +0.095 C 
BRANCH   7   8
ATOM      8  C   UNL     1      -0.848  -0.649  -0.323  0.00  0.00    -0.014 C 
BRANCH   8   9
ATOM      9  C   UNL     1      -1.227  -0.143   1.046  0.00  0.00    -0.022 A 
ATOM     10  C   UNL     1      -0.636   0.820   1.794  0.00  0.00    +0.009 A 
ATOM     11  C   UNL     1      -1.163   1.122   3.035  0.00  0.00    +0.008 A 
ATOM     12  C   UNL     1      -2.255   0.446   3.468  0.00  0.00    +0.045 A 
ATOM     13  S   UNL     1      -2.576  -0.653   2.099  0.00  0.00    -0.103 S 
ENDBRANCH   8   9
BRANCH   8  15
ATOM     14  C   UNL     1      -0.612  -2.604  -1.692  0.00  0.00    -0.096 C 
ATOM     15  N   UNL     1      -1.016  -2.107  -0.370  0.00  0.00    +0.382 N 
ATOM     16  C   UNL     1      -0.180  -2.730   0.664  0.00  0.00    -0.096 C 
ATOM     17  H   UNL     1      -1.984  -2.340  -0.205  0.00  0.00    -0.082 HD
ENDBRANCH   8  15
ENDBRANCH   7   8
ENDBRANCH   1   7
BRANCH   4  18
ATOM     18  C   UNL     1      -2.541   4.380  -3.361  0.00  0.00    +0.145 C 
BRANCH  18  19
ATOM     19  C   UNL     1      -2.005   5.810  -3.268  0.00  0.00    +0.107 C 
ATOM     20  C   UNL     1      -0.489   5.793  -3.447  0.00  0.00    +0.041 C 
ATOM     21  C   UNL     1       0.001   7.240  -3.569  0.00  0.00    +0.008 C 
ATOM     22  C   UNL     1      -0.473   7.797  -4.910  0.00  0.00    +0.035 C 
ATOM     23  C   UNL     1      -1.952   7.569  -5.085  0.00  0.00    -0.041 A 
ATOM     24  C   UNL     1      -2.655   6.654  -4.333  0.00  0.00    -0.011 A 
ATOM     25  C   UNL     1      -4.016   6.488  -4.549  0.00  0.00    +0.007 A 
ATOM     26  C   UNL     1      -4.670   7.234  -5.508  0.00  0.00    +0.000 A 
ATOM     27  C   UNL     1      -3.966   8.156  -6.259  0.00  0.00    +0.000 A 
ATOM     28  C   UNL     1      -2.612   8.321  -6.047  0.00  0.00    +0.004 A 
BRANCH  19  29
ATOM     29  O   UNL     1      -2.321   6.349  -1.982  0.00  0.00    -0.382 OA
ATOM     30  H   UNL     1      -3.269   6.384  -1.793  0.00  0.00    +0.211 HD
ENDBRANCH  19  29
ENDBRANCH  18  19
ENDBRANCH   4  18
TORSDOF 7
