REMARK  Name = ZINC62257648
REMARK  7 active torsions:
REMARK  status: ('A' for Active; 'I' for Inactive)
REMARK    1  A    between atoms: C_1  and  C_2
REMARK    2  A    between atoms: C_5  and  C_8
REMARK    3  A    between atoms: C_11  and  C_13
REMARK    4  A    between atoms: C_13  and  N_14
REMARK    5  A    between atoms: N_14  and  C_15
REMARK    6  A    between atoms: N_19  and  C_21
REMARK    7  A    between atoms: C_21  and  C_22
REMARK                            x       y       z     vdW  Elec       q    Type
REMARK                         _______ _______ _______ _____ _____    ______ ____
ROOT
ATOM      1  N   UNL     1      -1.267  -8.794  -1.201  0.00  0.00    -0.311 NA
ATOM      2  H   UNL     1      -1.784  -8.721  -0.338  0.00  0.00    +0.122 HD
ENDROOT
BRANCH   1   3
ATOM      3  C   UNL     1      -1.289 -10.170  -1.714  0.00  0.00    +0.037 C 
ATOM      4  C   UNL     1      -1.169 -11.153  -0.546  0.00  0.00    +0.015 C 
ATOM      5  C   UNL     1      -1.271 -12.584  -1.083  0.00  0.00    -0.017 C 
ATOM      6  C   UNL     1      -2.589 -12.744  -1.843  0.00  0.00    -0.078 C 
ATOM      7  N   UNL     1      -2.631 -11.796  -2.962  0.00  0.00    +0.386 N 
ATOM      8  C   UNL     1      -2.607 -10.420  -2.451  0.00  0.00    -0.059 C 
ATOM      9  H   UNL     1      -1.832 -11.946  -3.559  0.00  0.00    -0.081 HD
BRANCH   7  10
ATOM     10  C   UNL     1      -3.863 -12.007  -3.735  0.00  0.00    +0.018 C 
BRANCH  10  11
ATOM     11  C   UNL     1      -3.829 -13.374  -4.370  0.00  0.00    +0.194 C 
ATOM     12  O   UNL     1      -2.874 -14.100  -4.196  0.00  0.00    -0.278 OA
ATOM     13  N   UNL     1      -4.862 -13.788  -5.131  0.00  0.00    -0.331 N 
ATOM     14  H   UNL     1      -5.626 -13.208  -5.270  0.00  0.00    +0.145 HD
ATOM     15  H   UNL     1      -4.840 -14.668  -5.540  0.00  0.00    +0.145 HD
ENDBRANCH  10  11
ENDBRANCH   7  10
ENDBRANCH   1   3
BRANCH   1  16
ATOM     16  C   UNL     1       0.112  -8.317  -1.031  0.00  0.00    +0.123 C 
BRANCH  16  20
ATOM     17  C   UNL     1       0.060  -4.251  -0.021  0.00  0.00    +0.020 A 
ATOM     18  C   UNL     1       0.071  -5.120   1.037  0.00  0.00    +0.016 A 
ATOM     19  C   UNL     1       0.088  -6.473   0.783  0.00  0.00    +0.013 A 
ATOM     20  C   UNL     1       0.093  -6.905  -0.505  0.00  0.00    +0.004 A 
ATOM     21  S   UNL     1       0.067  -5.369  -1.414  0.00  0.00    -0.092 S 
BRANCH  17  26
ATOM     22  C   UNL     1      -0.018   1.503   0.010  0.00  0.00    +0.044 C 
ATOM     23  C   UNL     1       0.002  -0.004   0.002  0.00  0.00    -0.050 A 
ATOM     24  C   UNL     1       0.006  -0.686  -1.202  0.00  0.00    +0.004 A 
ATOM     25  C   UNL     1       0.024  -2.066  -1.216  0.00  0.00    +0.009 A 
ATOM     26  C   UNL     1       0.040  -2.773  -0.013  0.00  0.00    -0.011 A 
ATOM     27  C   UNL     1       0.037  -2.079   1.198  0.00  0.00    +0.009 A 
ATOM     28  C   UNL     1       0.023  -0.699   1.198  0.00  0.00    +0.004 A 
ENDBRANCH  17  26
ENDBRANCH  16  20
ENDBRANCH   1  16
TORSDOF 6
