REMARK  Name = ZINC42158949
REMARK  13 active torsions:
REMARK  status: ('A' for Active; 'I' for Inactive)
REMARK    1  A    between atoms: C_1  and  C_2
REMARK    2  A    between atoms: C_2  and  C_4
REMARK    3  A    between atoms: C_2  and  S_14
REMARK    4  A    between atoms: N_6  and  C_7
REMARK    5  A    between atoms: C_7  and  C_8
REMARK    6  A    between atoms: C_8  and  C_9
REMARK    7  A    between atoms: C_8  and  C_10
REMARK    8  A    between atoms: C_8  and  N_11
REMARK    9  A    between atoms: N_11  and  C_12
REMARK   10  A    between atoms: N_11  and  C_13
REMARK   11  A    between atoms: S_14  and  C_15
REMARK   12  A    between atoms: C_15  and  C_16
REMARK   13  A    between atoms: N_18  and  C_19
REMARK                            x       y       z     vdW  Elec       q    Type
REMARK                         _______ _______ _______ _____ _____    ______ ____
ROOT
ATOM      1  C   UNL     1       0.232   2.187   1.499  0.00  0.00    +0.029 C 
ATOM      2  C   UNL     1       0.088   0.664   1.456  0.00  0.00    +0.129 C 
ENDROOT
BRANCH   2   3
ATOM      3  C   UNL     1       1.042   0.042   2.443  0.00  0.00    +0.226 C 
ATOM      4  O   UNL     1       0.639  -0.326   3.526  0.00  0.00    -0.275 OA
ATOM      5  N   UNL     1       2.342  -0.105   2.122  0.00  0.00    -0.316 N 
ATOM      6  H   UNL     1       2.664   0.189   1.256  0.00  0.00    +0.149 HD
BRANCH   5   7
ATOM      7  C   UNL     1       3.270  -0.710   3.081  0.00  0.00    +0.092 C 
BRANCH   7   8
ATOM      8  C   UNL     1       4.643  -0.877   2.428  0.00  0.00    -0.056 C 
ATOM      9  C   UNL     1       5.232   0.501   2.121  0.00  0.00    -0.008 C 
ATOM     10  C   UNL     1       5.574  -1.629   3.381  0.00  0.00    -0.008 C 
BRANCH   8  11
ATOM     11  N   UNL     1       4.502  -1.638   1.179  0.00  0.00    +0.380 N 
ATOM     12  C   UNL     1       5.824  -1.824   0.567  0.00  0.00    -0.096 C 
ATOM     13  C   UNL     1       3.908  -2.950   1.470  0.00  0.00    -0.096 C 
ATOM     14  H   UNL     1       3.904  -1.132   0.542  0.00  0.00    -0.082 HD
ENDBRANCH   8  11
ENDBRANCH   7   8
ENDBRANCH   5   7
ENDBRANCH   2   3
BRANCH   2  15
ATOM     15  S   UNL     1      -1.613   0.205   1.888  0.00  0.00    -0.139 S 
BRANCH  15  16
ATOM     16  C   UNL     1      -2.610   0.895   0.538  0.00  0.00    +0.165 C 
BRANCH  16  17
ATOM     17  C   UNL     1      -4.064   0.580   0.776  0.00  0.00    +0.227 C 
ATOM     18  O   UNL     1      -4.396  -0.047   1.760  0.00  0.00    -0.275 OA
ATOM     19  N   UNL     1      -4.996   0.996  -0.104  0.00  0.00    -0.285 N 
ATOM     20  H   UNL     1      -4.726   1.431  -0.928  0.00  0.00    +0.155 HD
BRANCH  19  21
ATOM     21  C   UNL     1      -6.356   0.802   0.171  0.00  0.00    +0.034 A 
ATOM     22  C   UNL     1      -7.249   0.572  -0.866  0.00  0.00    +0.026 A 
ATOM     23  C   UNL     1      -8.589   0.380  -0.593  0.00  0.00    +0.040 A 
ATOM     24  C   UNL     1      -9.042   0.417   0.715  0.00  0.00    +0.124 A 
ATOM     25  C   UNL     1      -8.152   0.647   1.752  0.00  0.00    +0.040 A 
ATOM     26  C   UNL     1      -6.811   0.833   1.483  0.00  0.00    +0.026 A 
ATOM     27  F   UNL     1     -10.353   0.231   0.981  0.00  0.00    -0.205 F 
ENDBRANCH  19  21
ENDBRANCH  16  17
ENDBRANCH  15  16
ENDBRANCH   2  15
TORSDOF 8
