REMARK  Name = ZINC35564723
REMARK  6 active torsions:
REMARK  status: ('A' for Active; 'I' for Inactive)
REMARK    1  A    between atoms: C_4  and  C_7
REMARK    2  A    between atoms: C_7  and  C_8
REMARK    3  A    between atoms: C_8  and  N_9
REMARK    4  A    between atoms: N_12  and  C_15
REMARK    5  A    between atoms: C_15  and  C_16
REMARK    6  A    between atoms: C_31  and  C_33
REMARK                            x       y       z     vdW  Elec       q    Type
REMARK                         _______ _______ _______ _____ _____    ______ ____
ROOT
ATOM      1  C   UNL     1       8.652  -3.312   3.963  0.00  0.00    +0.064 A 
ATOM      2  C   UNL     1       8.958  -4.501   4.558  0.00  0.00    +0.094 A 
ATOM      3  C   UNL     1       9.705  -4.493   5.749  0.00  0.00    +0.253 A 
ATOM      4  O   UNL     1       9.997  -5.538   6.307  0.00  0.00    -0.268 OA
ATOM      5  N   UNL     1      10.094  -3.306   6.263  0.00  0.00    -0.295 N 
ATOM      6  H   UNL     1      10.611  -3.277   7.083  0.00  0.00    +0.172 HD
ATOM      7  C   UNL     1       9.759  -2.152   5.625  0.00  0.00    +0.199 A 
ATOM      8  N   UNL     1       9.063  -2.168   4.506  0.00  0.00    -0.219 NA
ATOM      9  N   UNL     1      10.157  -0.953   6.153  0.00  0.00    -0.300 N 
ATOM     10  C   UNL     1       9.778   0.281   5.448  0.00  0.00    +0.109 C 
ATOM     11  C   UNL     1       9.297   1.379   6.401  0.00  0.00    +0.038 C 
ATOM     12  C   UNL     1       8.415   0.789   7.482  0.00  0.00    +0.109 C 
ATOM     13  N   UNL     1       9.278   0.331   8.571  0.00  0.00    -0.296 N 
ATOM     14  C   UNL     1       9.959  -0.916   8.589  0.00  0.00    +0.127 C 
ATOM     15  C   UNL     1      10.929  -0.962   7.383  0.00  0.00    +0.127 C 
ATOM     16  C   UNL     1       9.438   1.149   9.630  0.00  0.00    +0.253 C 
ATOM     17  O   UNL     1      10.041   0.760  10.614  0.00  0.00    -0.269 OA
ENDROOT
BRANCH  16  18
ATOM     18  C   UNL     1       8.888   2.507   9.598  0.00  0.00    +0.074 A 
ATOM     19  C   UNL     1       8.803   3.441  10.620  0.00  0.00    +0.021 A 
ATOM     20  C   UNL     1       8.229   4.643  10.284  0.00  0.00    +0.008 A 
ATOM     21  C   UNL     1       7.795   4.834   9.013  0.00  0.00    +0.046 A 
ATOM     22  S   UNL     1       8.159   3.392   8.233  0.00  0.00    -0.092 S 
ENDBRANCH  16  18
BRANCH   1  23
ATOM     23  C   UNL     1       7.852  -3.293   2.686  0.00  0.00    +0.140 C 
BRANCH  23  27
ATOM     24  N   UNL     1       3.710  -2.466   2.845  0.00  0.00    +0.382 N 
ATOM     25  C   UNL     1       4.543  -1.651   1.951  0.00  0.00    -0.063 C 
ATOM     26  C   UNL     1       5.853  -2.387   1.662  0.00  0.00    +0.066 C 
ATOM     27  N   UNL     1       6.560  -2.637   2.926  0.00  0.00    -0.300 NA
ATOM     28  C   UNL     1       5.729  -3.431   3.841  0.00  0.00    +0.066 C 
ATOM     29  C   UNL     1       4.419  -2.686   4.112  0.00  0.00    -0.063 C 
ATOM     30  H   UNL     1       3.519  -3.355   2.408  0.00  0.00    -0.082 HD
BRANCH  24  31
ATOM     31  C   UNL     1       2.445  -1.767   3.107  0.00  0.00    -0.074 C 
BRANCH  31  32
ATOM     32  C   UNL     1       1.649  -1.647   1.806  0.00  0.00    +0.016 C 
BRANCH  32  36
ATOM     33  C   UNL     1      -2.031   0.385   2.568  0.00  0.00    +0.000 A 
ATOM     34  C   UNL     1      -0.904   1.104   2.216  0.00  0.00    +0.000 A 
ATOM     35  C   UNL     1       0.287   0.446   1.970  0.00  0.00    +0.003 A 
ATOM     36  C   UNL     1       0.351  -0.930   2.076  0.00  0.00    -0.049 A 
ATOM     37  C   UNL     1      -0.776  -1.650   2.428  0.00  0.00    +0.003 A 
ATOM     38  C   UNL     1      -1.967  -0.992   2.673  0.00  0.00    +0.000 A 
ENDBRANCH  32  36
ENDBRANCH  31  32
ENDBRANCH  24  31
ENDBRANCH  23  27
ENDBRANCH   1  23
TORSDOF 6
