REMARK  Name = ZINC62794455
REMARK  7 active torsions:
REMARK  status: ('A' for Active; 'I' for Inactive)
REMARK    1  A    between atoms: C_1  and  C_2
REMARK    2  A    between atoms: C_2  and  C_3
REMARK    3  A    between atoms: C_3  and  C_5
REMARK    4  A    between atoms: C_3  and  C_6
REMARK    5  A    between atoms: C_11  and  O_12
REMARK    6  A    between atoms: O_12  and  C_13
REMARK    7  A    between atoms: C_16  and  C_20
REMARK                            x       y       z     vdW  Elec       q    Type
REMARK                         _______ _______ _______ _____ _____    ______ ____
ROOT
ATOM      1  C   UNL     1       4.425  -2.427  -1.210  0.00  0.00    +0.147 A 
ATOM      2  C   UNL     1       5.023  -2.605   0.032  0.00  0.00    +0.048 A 
ATOM      3  C   UNL     1       6.248  -3.226   0.127  0.00  0.00    +0.015 A 
ATOM      4  C   UNL     1       6.891  -3.678  -1.028  0.00  0.00    +0.014 A 
ATOM      5  C   UNL     1       6.289  -3.498  -2.275  0.00  0.00    +0.035 A 
ATOM      6  C   UNL     1       5.060  -2.880  -2.362  0.00  0.00    +0.084 A 
ATOM      7 CL   UNL     1       4.306  -2.662  -3.910  0.00  0.00    -0.080 Cl
ENDROOT
BRANCH   4   8
ATOM      8  C   UNL     1       8.207  -4.344  -0.930  0.00  0.00    +0.094 C 
ATOM      9  N   UNL     1       8.819  -4.774  -2.033  0.00  0.00    -0.387 N 
ATOM     10  N   UNL     1       8.781  -4.514   0.260  0.00  0.00    -0.345 N 
ATOM     11  H   UNL     1       8.401  -4.650  -2.900  0.00  0.00    +0.157 HD
ATOM     12  H   UNL     1       8.335  -4.201   1.062  0.00  0.00    +0.144 HD
ATOM     13  H   UNL     1       9.644  -4.951   0.324  0.00  0.00    +0.144 HD
ATOM     14  H   UNL     1       9.682  -5.212  -1.969  0.00  0.00    +0.157 HD
ENDBRANCH   4   8
BRANCH   1  15
ATOM     15  O   UNL     1       3.217  -1.814  -1.299  0.00  0.00    -0.454 OA
BRANCH  15  21
ATOM     16  C   UNL     1       0.857  -2.022  -1.510  0.00  0.00    -0.002 A 
ATOM     17  C   UNL     1      -0.271  -2.819  -1.532  0.00  0.00    +0.007 A 
ATOM     18  C   UNL     1      -0.158  -4.186  -1.355  0.00  0.00    +0.001 A 
ATOM     19  C   UNL     1       1.085  -4.758  -1.156  0.00  0.00    +0.004 A 
ATOM     20  C   UNL     1       2.216  -3.966  -1.133  0.00  0.00    +0.046 A 
ATOM     21  C   UNL     1       2.106  -2.595  -1.316  0.00  0.00    +0.132 A 
BRANCH  16  22
ATOM     22  C   UNL     1       0.732  -0.533  -1.704  0.00  0.00    +0.019 C 
ATOM     23  C   UNL     1       0.098  -0.247  -3.066  0.00  0.00    +0.012 C 
BRANCH  22  25
ATOM     24  C   UNL     1      -0.174   1.578  -0.721  0.00  0.00    +0.004 C 
ATOM     25  C   UNL     1      -0.149   0.053  -0.598  0.00  0.00    +0.004 C 
ENDBRANCH  22  25
ENDBRANCH  16  22
ENDBRANCH  15  21
ENDBRANCH   1  15
TORSDOF 5
