REMARK  Name = ZINC38755426
REMARK  5 active torsions:
REMARK  status: ('A' for Active; 'I' for Inactive)
REMARK    1  A    between atoms: C_1  and  C_2
REMARK    2  A    between atoms: C_8  and  C_12
REMARK    3  A    between atoms: C_14  and  C_17
REMARK    4  A    between atoms: C_17  and  N_18
REMARK    5  A    between atoms: C_19  and  C_21
REMARK                            x       y       z     vdW  Elec       q    Type
REMARK                         _______ _______ _______ _____ _____    ______ ____
ROOT
ATOM      1  C   UNL     1       0.042  -4.883   3.514  0.00  0.00    +0.168 A 
ATOM      2  C   UNL     1      -0.622  -6.026   3.837  0.00  0.00    +0.077 A 
ATOM      3  C   UNL     1       0.184  -6.760   4.721  0.00  0.00    +0.101 A 
ATOM      4  N   UNL     1       1.284  -6.090   4.922  0.00  0.00    -0.081 NA
ATOM      5  O   UNL     1       1.221  -4.897   4.163  0.00  0.00    -0.354 OA
ENDROOT
BRANCH   1  12
ATOM      6  C   UNL     1      -0.164   1.499  -0.046  0.00  0.00    +0.052 C 
ATOM      7  C   UNL     1      -0.130  -0.031  -0.047  0.00  0.00    +0.175 C 
ATOM      8  C   UNL     1      -1.561  -0.611   0.042  0.00  0.00    +0.083 C 
ATOM      9  C   UNL     1      -1.350  -1.837   0.910  0.00  0.00    -0.002 A 
ATOM     10  C   UNL     1      -2.138  -2.942   1.154  0.00  0.00    +0.008 A 
ATOM     11  C   UNL     1      -1.694  -3.938   2.000  0.00  0.00    +0.012 A 
ATOM     12  C   UNL     1      -0.443  -3.819   2.608  0.00  0.00    +0.023 A 
ATOM     13  C   UNL     1       0.349  -2.700   2.363  0.00  0.00    +0.057 A 
ATOM     14  C   UNL     1      -0.104  -1.698   1.512  0.00  0.00    +0.125 A 
ATOM     15  O   UNL     1       0.494  -0.527   1.150  0.00  0.00    -0.488 OA
ENDBRANCH   1  12
BRANCH   3  16
ATOM     16  C   UNL     1      -0.164  -8.092   5.332  0.00  0.00    +0.163 C 
BRANCH  16  17
ATOM     17  N   UNL     1       0.414  -9.167   4.522  0.00  0.00    -0.305 N 
ATOM     18  C   UNL     1       0.232 -10.454   4.880  0.00  0.00    +0.250 C 
ATOM     19  O   UNL     1      -0.332 -10.720   5.925  0.00  0.00    -0.270 OA
ATOM     20  H   UNL     1       0.928  -8.953   3.728  0.00  0.00    +0.149 HD
BRANCH  18  21
ATOM     21  C   UNL     1       0.714 -11.535   4.008  0.00  0.00    +0.101 A 
ATOM     22  C   UNL     1       0.428 -12.866   4.304  0.00  0.00    +0.020 A 
ATOM     23  C   UNL     1       0.902 -13.865   3.454  0.00  0.00    +0.018 A 
ATOM     24  C   UNL     1       1.631 -13.536   2.357  0.00  0.00    +0.086 A 
ATOM     25  N   UNL     1       1.913 -12.244   2.062  0.00  0.00    -0.328 N 
ATOM     26  H   UNL     1       2.436 -12.038   1.272  0.00  0.00    +0.168 HD
ATOM     27  C   UNL     1       1.474 -11.241   2.846  0.00  0.00    +0.261 A 
ATOM     28  O   UNL     1       1.734 -10.085   2.562  0.00  0.00    -0.267 OA
ENDBRANCH  18  21
ENDBRANCH  16  17
ENDBRANCH   3  16
TORSDOF 4
