REMARK  Name = ZINC39744820
REMARK  8 active torsions:
REMARK  status: ('A' for Active; 'I' for Inactive)
REMARK    1  A    between atoms: C_1  and  C_2
REMARK    2  A    between atoms: C_5  and  C_9
REMARK    3  A    between atoms: C_7  and  C_8
REMARK    4  A    between atoms: C_13  and  S_19
REMARK    5  A    between atoms: N_15  and  C_16
REMARK    6  A    between atoms: C_16  and  C_17
REMARK    7  A    between atoms: S_19  and  C_20
REMARK    8  A    between atoms: C_20  and  C_21
REMARK                            x       y       z     vdW  Elec       q    Type
REMARK                         _______ _______ _______ _____ _____    ______ ____
ROOT
ATOM      1  C   UNL     1       0.128  -4.238  -0.096  0.00  0.00    +0.050 C 
ATOM      2  N   UNL     1      -0.461  -4.694   1.190  0.00  0.00    -0.267 NA
ATOM      3  N   UNL     1      -0.930  -6.053   0.877  0.00  0.00    -0.262 NA
ATOM      4  C   UNL     1      -1.450  -5.956  -0.506  0.00  0.00    +0.078 C 
ATOM      5  N   UNL     1      -0.772  -4.798  -1.130  0.00  0.00    +0.413 N 
ATOM      6  H   UNL     1      -1.229  -4.101   1.467  0.00  0.00    +0.139 HD
ATOM      7  H   UNL     1      -1.656  -6.342   1.517  0.00  0.00    +0.140 HD
ATOM      8  H   UNL     1      -0.235  -5.099  -1.930  0.00  0.00    -0.075 HD
ENDROOT
BRANCH   1  13
ATOM      9  C   UNL     1       0.169   1.534  -0.368  0.00  0.00    +0.044 C 
ATOM     10  C   UNL     1       0.158   0.029  -0.297  0.00  0.00    -0.048 A 
ATOM     11  C   UNL     1       1.224  -0.694  -0.800  0.00  0.00    +0.004 A 
ATOM     12  C   UNL     1       1.214  -2.075  -0.735  0.00  0.00    +0.003 A 
ATOM     13  C   UNL     1       0.139  -2.732  -0.166  0.00  0.00    -0.046 A 
ATOM     14  C   UNL     1      -0.926  -2.009   0.338  0.00  0.00    +0.007 A 
ATOM     15  C   UNL     1      -0.914  -0.628   0.276  0.00  0.00    -0.047 A 
ATOM     16  C   UNL     1      -2.073   0.161   0.830  0.00  0.00    +0.044 C 
ENDBRANCH   1  13
BRANCH   5  17
ATOM     17  C   UNL     1      -1.763  -3.792  -1.536  0.00  0.00    -0.045 C 
BRANCH  17  18
ATOM     18  C   UNL     1      -2.600  -4.338  -2.663  0.00  0.00    -0.053 C 
ATOM     19  C   UNL     1      -3.905  -4.366  -2.556  0.00  0.00    +0.002 C 
ENDBRANCH  17  18
ENDBRANCH   5  17
BRANCH   4  20
ATOM     20  S   UNL     1      -1.062  -7.471  -1.424  0.00  0.00    -0.152 S 
BRANCH  20  21
ATOM     21  C   UNL     1       0.747  -7.579  -1.349  0.00  0.00    +0.143 C 
BRANCH  21  22
ATOM     22  C   UNL     1       1.208  -8.811  -2.084  0.00  0.00    +0.120 A 
ATOM     23  N   UNL     1       2.541  -9.071  -2.135  0.00  0.00    -0.310 N 
ATOM     24  H   UNL     1       3.165  -8.467  -1.703  0.00  0.00    +0.170 HD
ATOM     25  C   UNL     1       3.005 -10.165  -2.782  0.00  0.00    +0.259 A 
ATOM     26  O   UNL     1       4.197 -10.410  -2.835  0.00  0.00    -0.267 OA
ATOM     27  C   UNL     1       2.015 -11.046  -3.419  0.00  0.00    +0.065 A 
ATOM     28  C   UNL     1       2.389 -12.197  -4.110  0.00  0.00    +0.015 A 
ATOM     29  C   UNL     1       1.420 -12.986  -4.688  0.00  0.00    +0.001 A 
ATOM     30  C   UNL     1       0.077 -12.645  -4.587  0.00  0.00    +0.002 A 
ATOM     31  C   UNL     1      -0.313 -11.512  -3.909  0.00  0.00    +0.028 A 
ATOM     32  C   UNL     1       0.651 -10.695  -3.314  0.00  0.00    +0.078 A 
ATOM     33  N   UNL     1       0.311  -9.573  -2.631  0.00  0.00    -0.233 NA
ENDBRANCH  21  22
ENDBRANCH  20  21
ENDBRANCH   4  20
TORSDOF 6
