REMARK  Name = ZINC64604347
REMARK  7 active torsions:
REMARK  status: ('A' for Active; 'I' for Inactive)
REMARK    1  A    between atoms: C_4  and  N_8
REMARK    2  A    between atoms: C_9  and  C_11
REMARK    3  A    between atoms: C_11  and  C_12
REMARK    4  A    between atoms: C_12  and  C_13
REMARK    5  A    between atoms: C_15  and  C_18
REMARK    6  A    between atoms: C_18  and  S_19
REMARK    7  A    between atoms: S_19  and  C_20
REMARK                            x       y       z     vdW  Elec       q    Type
REMARK                         _______ _______ _______ _____ _____    ______ ____
ROOT
ATOM      1  C   UNL     1       6.135  -4.783   1.001  0.00  0.00    +0.228 A 
ATOM      2  N   UNL     1       6.902  -4.832   2.055  0.00  0.00    -0.195 NA
ATOM      3  C   UNL     1       8.008  -5.536   1.785  0.00  0.00    +0.182 A 
ATOM      4  N   UNL     1       7.957  -5.945   0.550  0.00  0.00    -0.060 NA
ATOM      5  O   UNL     1       6.731  -5.466   0.016  0.00  0.00    -0.338 OA
ENDROOT
BRANCH   1   6
ATOM      6  C   UNL     1       4.804  -4.083   0.910  0.00  0.00    +0.108 C 
BRANCH   6   7
ATOM      7  C   UNL     1       5.017  -2.641   0.446  0.00  0.00    +0.105 C 
BRANCH   7   9
ATOM      8  N   UNL     1       3.627  -0.652  -0.037  0.00  0.00    -0.281 N 
ATOM      9  C   UNL     1       3.685  -1.941   0.355  0.00  0.00    +0.218 C 
ATOM     10  O   UNL     1       2.666  -2.536   0.635  0.00  0.00    -0.275 OA
ATOM     11  H   UNL     1       4.431  -0.198  -0.332  0.00  0.00    +0.155 HD
BRANCH   8  15
ATOM     12  C   UNL     1      -0.015   1.382   0.019  0.00  0.00    +0.006 A 
ATOM     13  C   UNL     1       0.778   1.355   1.152  0.00  0.00    +0.040 A 
ATOM     14  C   UNL     1       1.986   0.681   1.137  0.00  0.00    +0.147 A 
ATOM     15  C   UNL     1       2.403   0.031  -0.018  0.00  0.00    +0.105 A 
ATOM     16  C   UNL     1       1.604   0.060  -1.155  0.00  0.00    +0.147 A 
ATOM     17  C   UNL     1       0.397   0.736  -1.132  0.00  0.00    +0.040 A 
ATOM     18  F   UNL     1       2.005  -0.570  -2.280  0.00  0.00    -0.203 F 
ATOM     19  F   UNL     1       2.759   0.656   2.245  0.00  0.00    -0.203 F 
ENDBRANCH   8  15
ENDBRANCH   7   9
ENDBRANCH   6   7
ENDBRANCH   1   6
BRANCH   3  20
ATOM     20  C   UNL     1       9.130  -5.810   2.753  0.00  0.00    +0.152 C 
BRANCH  20  21
ATOM     21  S   UNL     1       8.793  -7.351   3.648  0.00  0.00    -0.107 S 
BRANCH  21  22
ATOM     22  C   UNL     1      10.217  -7.535   4.757  0.00  0.00    +0.236 C 
ATOM     23  N   UNL     1      11.461  -7.564   3.978  0.00  0.00    -0.355 N 
ATOM     24  C   UNL     1      12.188  -6.555   4.364  0.00  0.00    +0.061 A 
ATOM     25  C   UNL     1      13.514  -6.066   3.960  0.00  0.00    +0.029 A 
ATOM     26  C   UNL     1      14.025  -4.968   4.550  0.00  0.00    +0.022 A 
ATOM     27  C   UNL     1      13.339  -4.254   5.550  0.00  0.00    +0.043 A 
ATOM     28  C   UNL     1      12.117  -4.617   5.993  0.00  0.00    +0.047 A 
ATOM     29  C   UNL     1      11.461  -5.801   5.422  0.00  0.00    +0.062 A 
ATOM     30  N   UNL     1      10.313  -6.374   5.651  0.00  0.00    -0.355 N 
ATOM     31 CL   UNL     1      14.093  -2.852   6.241  0.00  0.00    -0.083 Cl
ATOM     32  H   UNL     1      11.699  -8.216   3.300  0.00  0.00    +0.162 HD
ATOM     33  H   UNL     1       9.645  -6.086   6.292  0.00  0.00    +0.162 HD
ENDBRANCH  21  22
ENDBRANCH  20  21
ENDBRANCH   3  20
TORSDOF 7
