REMARK  Name = ZINC04720556
REMARK  11 active torsions:
REMARK  status: ('A' for Active; 'I' for Inactive)
REMARK    1  A    between atoms: C_1  and  C_2
REMARK    2  A    between atoms: C_2  and  C_4
REMARK    3  A    between atoms: C_2  and  N_16
REMARK    4  A    between atoms: N_16  and  C_17
REMARK    5  A    between atoms: C_17  and  C_18
REMARK    6  A    between atoms: C_18  and  C_19
REMARK    7  A    between atoms: C_19  and  C_20
REMARK    8  A    between atoms: C_20  and  C_21
REMARK    9  A    between atoms: C_21  and  C_22
REMARK   10  A    between atoms: C_22  and  N_23
REMARK   11  A    between atoms: C_24  and  C_26
REMARK                            x       y       z     vdW  Elec       q    Type
REMARK                         _______ _______ _______ _____ _____    ______ ____
ROOT
ATOM      1  N   UNL     1       0.785  -0.032   1.628  0.00  0.00    -0.288 N 
ATOM      2  C   UNL     1       2.083  -0.065   1.268  0.00  0.00    +0.247 C 
ATOM      3  O   UNL     1       2.808  -0.945   1.688  0.00  0.00    -0.270 OA
ENDROOT
BRANCH   2   4
ATOM      4  C   UNL     1       2.626   0.970   0.362  0.00  0.00    +0.038 A 
ATOM      5  C   UNL     1       1.858   1.440  -0.705  0.00  0.00    +0.013 A 
ATOM      6  C   UNL     1       2.369   2.406  -1.547  0.00  0.00    +0.002 A 
ATOM      7  C   UNL     1       3.641   2.909  -1.335  0.00  0.00    +0.020 A 
ATOM      8  C   UNL     1       4.408   2.448  -0.279  0.00  0.00    +0.042 A 
ATOM      9  C   UNL     1       3.905   1.485   0.574  0.00  0.00    +0.033 A 
ATOM     10 CL   UNL     1       6.002   3.087  -0.022  0.00  0.00    -0.084 Cl
ENDBRANCH   2   4
BRANCH   1  12
ATOM     11  C   UNL     1       0.021   1.913   0.357  0.00  0.00    +0.036 C 
ATOM     12  C   UNL     1      -0.227   0.438   0.678  0.00  0.00    +0.139 C 
BRANCH  12  13
ATOM     13  C   UNL     1      -0.141  -0.374  -0.589  0.00  0.00    +0.131 A 
ATOM     14  N   UNL     1      -0.929  -0.017  -1.637  0.00  0.00    -0.309 N 
ATOM     15  H   UNL     1      -1.525   0.743  -1.553  0.00  0.00    +0.170 HD
ATOM     16  C   UNL     1      -0.889  -0.714  -2.797  0.00  0.00    +0.259 A 
ATOM     17  O   UNL     1      -1.588  -0.405  -3.744  0.00  0.00    -0.267 OA
ATOM     18  C   UNL     1       0.033  -1.857  -2.869  0.00  0.00    +0.065 A 
ATOM     19  C   UNL     1       0.150  -2.639  -4.016  0.00  0.00    +0.015 A 
ATOM     20  C   UNL     1       1.030  -3.699  -4.028  0.00  0.00    +0.001 A 
ATOM     21  C   UNL     1       1.798  -3.993  -2.909  0.00  0.00    +0.002 A 
ATOM     22  C   UNL     1       1.697  -3.233  -1.765  0.00  0.00    +0.028 A 
ATOM     23  C   UNL     1       0.813  -2.152  -1.728  0.00  0.00    +0.078 A 
ATOM     24  N   UNL     1       0.685  -1.374  -0.625  0.00  0.00    -0.232 NA
ENDBRANCH  12  13
ENDBRANCH   1  12
BRANCH   1  25
ATOM     25  C   UNL     1       0.385  -0.465   2.969  0.00  0.00    +0.109 C 
BRANCH  25  26
ATOM     26  C   UNL     1       0.077  -1.963   2.950  0.00  0.00    +0.019 C 
BRANCH  26  27
ATOM     27  C   UNL     1      -0.341  -2.416   4.351  0.00  0.00    +0.001 C 
BRANCH  27  28
ATOM     28  C   UNL     1      -0.649  -3.914   4.332  0.00  0.00    -0.002 C 
BRANCH  28  29
ATOM     29  C   UNL     1      -1.066  -4.367   5.732  0.00  0.00    -0.020 C 
BRANCH  29  30
ATOM     30  C   UNL     1      -1.375  -5.866   5.713  0.00  0.00    -0.086 C 
BRANCH  30  31
ATOM     31  N   UNL     1      -1.775  -6.300   7.058  0.00  0.00    +0.378 N 
ATOM     32  H   UNL     1      -1.978  -7.288   7.046  0.00  0.00    -0.090 HD
ATOM     33  H   UNL     1      -1.025  -6.119   7.708  0.00  0.00    -0.090 HD
ATOM     34  H   UNL     1      -2.598  -5.791   7.345  0.00  0.00    -0.090 HD
ENDBRANCH  30  31
ENDBRANCH  29  30
ENDBRANCH  28  29
ENDBRANCH  27  28
ENDBRANCH  26  27
ENDBRANCH  25  26
ENDBRANCH   1  25
TORSDOF 10
