REMARK  Name = ZINC23478790
REMARK  8 active torsions:
REMARK  status: ('A' for Active; 'I' for Inactive)
REMARK    1  A    between atoms: C_5  and  N_7
REMARK    2  A    between atoms: C_8  and  C_10
REMARK    3  A    between atoms: C_10  and  N_11
REMARK    4  A    between atoms: N_14  and  C_17
REMARK    5  A    between atoms: C_17  and  C_18
REMARK    6  A    between atoms: N_23  and  C_24
REMARK    7  A    between atoms: C_24  and  C_25
REMARK    8  A    between atoms: C_25  and  C_26
REMARK                            x       y       z     vdW  Elec       q    Type
REMARK                         _______ _______ _______ _____ _____    ______ ____
ROOT
ATOM      1  N   UNL     1       0.003  -0.004  -0.021  0.00  0.00    +0.387 N 
ATOM      2  C   UNL     1       0.561  -0.512  -1.283  0.00  0.00    -0.063 C 
ATOM      3  C   UNL     1       0.639  -2.039  -1.225  0.00  0.00    +0.066 C 
ATOM      4  N   UNL     1      -0.704  -2.587  -0.988  0.00  0.00    -0.298 NA
ATOM      5  C   UNL     1      -1.262  -2.080   0.273  0.00  0.00    +0.066 C 
ATOM      6  C   UNL     1      -1.340  -0.552   0.215  0.00  0.00    -0.063 C 
ATOM      7  H   UNL     1       0.656  -0.340   0.798  0.00  0.00    -0.081 HD
ENDROOT
BRANCH   1   8
ATOM      8  C   UNL     1      -0.017   1.464  -0.008  0.00  0.00    +0.019 C 
BRANCH   8  10
ATOM      9  N   UNL     1       1.624   3.315   0.004  0.00  0.00    -0.286 N 
ATOM     10  C   UNL     1       1.396   1.986  -0.007  0.00  0.00    +0.201 C 
ATOM     11  O   UNL     1       2.329   1.211  -0.016  0.00  0.00    -0.278 OA
ATOM     12  H   UNL     1       0.781   4.018  -0.061  0.00  0.00    +0.155 HD
BRANCH   9  17
ATOM     13  C   UNL     1       5.267   3.594  -0.413  0.00  0.00    +0.002 A 
ATOM     14  C   UNL     1       5.524   4.758   0.289  0.00  0.00    +0.002 A 
ATOM     15  C   UNL     1       4.489   5.444   0.898  0.00  0.00    +0.022 A 
ATOM     16  C   UNL     1       3.194   4.968   0.805  0.00  0.00    +0.062 A 
ATOM     17  C   UNL     1       2.934   3.799   0.100  0.00  0.00    +0.052 A 
ATOM     18  C   UNL     1       3.977   3.111  -0.505  0.00  0.00    +0.025 A 
ATOM     19 CL   UNL     1       1.895   5.829   1.570  0.00  0.00    -0.082 Cl
ENDBRANCH   9  17
ENDBRANCH   8  10
ENDBRANCH   1   8
BRANCH   4  20
ATOM     20  C   UNL     1      -0.684  -4.056  -1.002  0.00  0.00    +0.180 C 
BRANCH  20  21
ATOM     21  C   UNL     1      -0.342  -4.541  -2.387  0.00  0.00    +0.234 C 
ATOM     22  O   UNL     1      -0.135  -3.742  -3.275  0.00  0.00    -0.274 OA
ATOM     23  N   UNL     1      -0.265  -5.863  -2.638  0.00  0.00    -0.239 N 
ATOM     24  C   UNL     1       0.041  -6.297  -3.877  0.00  0.00    +0.306 C 
ATOM     25  O   UNL     1       0.248  -5.496  -4.767  0.00  0.00    -0.252 OA
ATOM     26  N   UNL     1       0.118  -7.619  -4.128  0.00  0.00    -0.299 N 
ATOM     27  H   UNL     1      -0.452  -6.588  -1.832  0.00  0.00    +0.159 HD
ATOM     28  H   UNL     1      -0.070  -8.343  -3.322  0.00  0.00    +0.150 HD
BRANCH  26  29
ATOM     29  C   UNL     1       0.451  -8.090  -5.475  0.00  0.00    +0.111 C 
BRANCH  29  30
ATOM     30  C   UNL     1       0.472  -9.620  -5.489  0.00  0.00    +0.061 C 
BRANCH  30  31
ATOM     31  C   UNL     1       0.814 -10.105  -6.874  0.00  0.00    -0.009 A 
ATOM     32  C   UNL     1       2.032 -10.363  -7.411  0.00  0.00    +0.011 A 
ATOM     33  C   UNL     1       2.107 -10.808  -8.717  0.00  0.00    +0.008 A 
ATOM     34  C   UNL     1       0.962 -10.964  -9.426  0.00  0.00    +0.045 A 
ATOM     35  S   UNL     1      -0.278 -10.482  -8.235  0.00  0.00    -0.102 S 
ENDBRANCH  30  31
ENDBRANCH  29  30
ENDBRANCH  26  29
ENDBRANCH  20  21
ENDBRANCH   4  20
TORSDOF 8
