REMARK  Name = ZINC49097525
REMARK  11 active torsions:
REMARK  status: ('A' for Active; 'I' for Inactive)
REMARK    1  A    between atoms: C_1  and  C_2
REMARK    2  A    between atoms: C_5  and  O_9
REMARK    3  A    between atoms: O_9  and  C_10
REMARK    4  A    between atoms: C_10  and  C_11
REMARK    5  A    between atoms: C_11  and  C_13
REMARK    6  A    between atoms: C_11  and  O_22
REMARK    7  A    between atoms: C_13  and  N_14
REMARK    8  A    between atoms: N_14  and  C_15
REMARK    9  A    between atoms: C_15  and  C_17
REMARK   10  A    between atoms: C_15  and  C_18
REMARK   11  A    between atoms: N_20  and  C_21
REMARK                            x       y       z     vdW  Elec       q    Type
REMARK                         _______ _______ _______ _____ _____    ______ ____
ROOT
ATOM      1  C   UNL     1       0.079  -6.289  -1.108  0.00  0.00    +0.135 C 
ENDROOT
BRANCH   1   2
ATOM      2  O   UNL     1      -1.133  -6.706  -0.477  0.00  0.00    -0.390 OA
ATOM      3  H   UNL     1      -1.932  -6.492  -0.980  0.00  0.00    +0.210 HD
ENDBRANCH   1   2
BRANCH   1   4
ATOM      4  C   UNL     1       0.058  -4.771  -1.300  0.00  0.00    +0.258 C 
BRANCH   4   5
ATOM      5  O   UNL     1       0.057  -4.130  -0.022  0.00  0.00    -0.488 OA
BRANCH   5  10
ATOM      6  C   UNL     1      -0.018   1.503   0.010  0.00  0.00    +0.044 C 
ATOM      7  C   UNL     1       0.002  -0.004   0.002  0.00  0.00    -0.049 A 
ATOM      8  C   UNL     1       0.006  -0.688  -1.200  0.00  0.00    +0.007 A 
ATOM      9  C   UNL     1       0.024  -2.069  -1.211  0.00  0.00    +0.047 A 
ATOM     10  C   UNL     1       0.039  -2.771  -0.014  0.00  0.00    +0.135 A 
ATOM     11  C   UNL     1       0.036  -2.083   1.191  0.00  0.00    +0.060 A 
ATOM     12  C   UNL     1       0.023  -0.700   1.196  0.00  0.00    +0.022 A 
ATOM     13 BR   UNL     1       0.056  -3.035   2.825  0.00  0.00    -0.047 Br
ENDBRANCH   5  10
ENDBRANCH   4   5
ENDBRANCH   1   4
BRANCH   1  14
ATOM     14  C   UNL     1       0.207  -6.973  -2.471  0.00  0.00    -0.046 C 
BRANCH  14  15
ATOM     15  N   UNL     1       0.226  -8.430  -2.287  0.00  0.00    +0.388 N 
ATOM     16  H   UNL     1       1.012  -8.686  -1.707  0.00  0.00    -0.085 HD
ATOM     17  H   UNL     1      -0.630  -8.725  -1.841  0.00  0.00    -0.085 HD
BRANCH  15  18
ATOM     18  C   UNL     1       0.349  -9.087  -3.595  0.00  0.00    +0.013 C 
ATOM     19  C   UNL     1      -0.902  -8.801  -4.428  0.00  0.00    -0.004 C 
BRANCH  18  20
ATOM     20  C   UNL     1       0.493 -10.575  -3.399  0.00  0.00    +0.199 C 
ATOM     21  O   UNL     1       0.493 -11.041  -2.279  0.00  0.00    -0.278 OA
ATOM     22  N   UNL     1       0.621 -11.386  -4.467  0.00  0.00    -0.320 N 
ATOM     23  C   UNL     1       0.761 -12.832  -4.277  0.00  0.00    +0.128 C 
ATOM     24  H   UNL     1       0.621 -11.013  -5.363  0.00  0.00    +0.148 HD
ENDBRANCH  18  20
ENDBRANCH  15  18
ENDBRANCH  14  15
ENDBRANCH   1  14
TORSDOF 8
