REMARK  Name = ZINC63948129
REMARK  7 active torsions:
REMARK  status: ('A' for Active; 'I' for Inactive)
REMARK    1  A    between atoms: C_1  and  C_2
REMARK    2  A    between atoms: C_8  and  C_11
REMARK    3  A    between atoms: C_11  and  C_12
REMARK    4  A    between atoms: C_12  and  N_13
REMARK    5  A    between atoms: C_15  and  C_20
REMARK    6  A    between atoms: N_22  and  C_23
REMARK    7  A    between atoms: C_29  and  C_33
REMARK                            x       y       z     vdW  Elec       q    Type
REMARK                         _______ _______ _______ _____ _____    ______ ____
ROOT
ATOM      1  N   UNL     1      -1.377  -2.600   5.613  0.00  0.00    -0.300 N 
ATOM      2  C   UNL     1      -1.248  -3.644   6.637  0.00  0.00    +0.121 C 
ATOM      3  C   UNL     1      -1.728  -2.992   7.953  0.00  0.00    +0.101 C 
ATOM      4  C   UNL     1      -1.461  -1.494   7.678  0.00  0.00    +0.110 C 
ATOM      5  C   UNL     1      -1.487  -1.381   6.169  0.00  0.00    +0.216 C 
ATOM      6  O   UNL     1      -1.594  -0.343   5.552  0.00  0.00    -0.276 OA
ENDROOT
BRANCH   3   7
ATOM      7  C   UNL     1      -0.914  -3.479   9.124  0.00  0.00    +0.220 C 
ATOM      8  O   UNL     1      -0.020  -4.280   8.950  0.00  0.00    -0.275 OA
ATOM      9  N   UNL     1      -1.180  -3.025  10.365  0.00  0.00    -0.288 N 
ATOM     10  H   UNL     1      -1.895  -2.384  10.504  0.00  0.00    +0.151 HD
BRANCH   9  11
ATOM     11  C   UNL     1      -0.389  -3.498  11.503  0.00  0.00    +0.224 C 
ATOM     12  N   UNL     1      -1.006  -3.103  12.777  0.00  0.00    -0.316 N 
ATOM     13  C   UNL     1      -0.275  -2.261  13.613  0.00  0.00    +0.043 A 
ATOM     14  C   UNL     1      -0.701  -1.779  14.864  0.00  0.00    +0.024 A 
ATOM     15  C   UNL     1       0.097  -0.949  15.617  0.00  0.00    +0.005 A 
ATOM     16  C   UNL     1       1.346  -0.559  15.169  0.00  0.00    -0.049 A 
ATOM     17  C   UNL     1       1.791  -1.018  13.940  0.00  0.00    +0.020 A 
ATOM     18  C   UNL     1       0.992  -1.849  13.188  0.00  0.00    +0.032 A 
ATOM     19  S   UNL     1       1.222  -2.619  11.600  0.00  0.00    -0.082 S 
ATOM     20  C   UNL     1       2.209   0.351  16.004  0.00  0.00    +0.044 C 
ATOM     21  H   UNL     1      -1.890  -3.416  13.026  0.00  0.00    +0.149 HD
ENDBRANCH   9  11
ENDBRANCH   3   7
BRANCH   1  22
ATOM     22  C   UNL     1      -1.379  -2.854   4.170  0.00  0.00    +0.112 C 
BRANCH  22  23
ATOM     23  C   UNL     1       0.055  -2.799   3.641  0.00  0.00    +0.052 C 
BRANCH  23  31
ATOM     24  C   UNL     1      -0.018   1.503   0.010  0.00  0.00    +0.044 C 
ATOM     25  C   UNL     1       0.002  -0.004   0.002  0.00  0.00    -0.050 A 
ATOM     26  C   UNL     1       0.005  -0.680  -1.226  0.00  0.00    +0.005 A 
ATOM     27  C   UNL     1       0.023  -2.026  -1.317  0.00  0.00    +0.026 A 
ATOM     28  C   UNL     1       0.039  -2.826  -0.141  0.00  0.00    +0.043 A 
ATOM     29  N   UNL     1       0.057  -4.126   0.030  0.00  0.00    -0.380 N 
ATOM     30  C   UNL     1       0.067  -4.408   1.470  0.00  0.00    +0.144 C 
ATOM     31  C   UNL     1       0.052  -3.060   2.156  0.00  0.00    -0.040 C 
ATOM     32  C   UNL     1       0.036  -2.137   1.168  0.00  0.00    -0.001 A 
ATOM     33  C   UNL     1       0.022  -0.669   1.180  0.00  0.00    +0.013 A 
ATOM     34  H   UNL     1       0.062  -4.790  -0.677  0.00  0.00    +0.160 HD
ENDBRANCH  23  31
ENDBRANCH  22  23
ENDBRANCH   1  22
TORSDOF 5
