REMARK  Name = ZINC64042803
REMARK  9 active torsions:
REMARK  status: ('A' for Active; 'I' for Inactive)
REMARK    1  A    between atoms: C_1  and  C_2
REMARK    2  A    between atoms: N_4  and  C_5
REMARK    3  A    between atoms: C_5  and  C_7
REMARK    4  A    between atoms: C_5  and  C_17
REMARK    5  A    between atoms: C_7  and  C_8
REMARK    6  A    between atoms: N_19  and  C_20
REMARK    7  A    between atoms: C_20  and  C_21
REMARK    8  A    between atoms: C_21  and  C_23
REMARK    9  A    between atoms: C_21  and  N_28
REMARK                            x       y       z     vdW  Elec       q    Type
REMARK                         _______ _______ _______ _____ _____    ______ ____
ROOT
ATOM      1  C   UNL     1      -0.968  -2.652  -0.523  0.00  0.00    +0.163 C 
ENDROOT
BRANCH   1   5
ATOM      2  C   UNL     1       0.138   0.984  -0.976  0.00  0.00    +0.109 C 
ATOM      3  C   UNL     1       0.163  -0.508  -0.765  0.00  0.00    +0.211 C 
ATOM      4  O   UNL     1       1.221  -1.084  -0.629  0.00  0.00    -0.276 OA
ATOM      5  N   UNL     1      -0.992  -1.202  -0.728  0.00  0.00    -0.304 N 
ATOM      6  H   UNL     1      -1.838  -0.741  -0.837  0.00  0.00    +0.149 HD
ENDBRANCH   1   5
BRANCH   1   7
ATOM      7  C   UNL     1      -0.314  -2.962   0.799  0.00  0.00    +0.234 C 
ATOM      8  O   UNL     1       0.403  -2.140   1.329  0.00  0.00    -0.274 OA
ATOM      9  N   UNL     1      -0.527  -4.153   1.394  0.00  0.00    -0.312 N 
ATOM     10  H   UNL     1      -1.101  -4.811   0.971  0.00  0.00    +0.149 HD
BRANCH   9  11
ATOM     11  C   UNL     1       0.109  -4.454   2.679  0.00  0.00    +0.128 C 
BRANCH  11  12
ATOM     12  C   UNL     1      -0.371  -5.818   3.178  0.00  0.00    +0.111 C 
BRANCH  12  13
ATOM     13  N   UNL     1      -1.840  -5.838   3.212  0.00  0.00    -0.289 NA
ATOM     14  C   UNL     1      -2.361  -4.766   4.072  0.00  0.00    +0.113 C 
ATOM     15  C   UNL     1      -3.892  -4.786   4.032  0.00  0.00    +0.175 C 
ATOM     16  O   UNL     1      -4.358  -6.077   4.433  0.00  0.00    -0.377 OA
ATOM     17  C   UNL     1      -3.869  -7.145   3.616  0.00  0.00    +0.175 C 
ATOM     18  C   UNL     1      -2.339  -7.149   3.653  0.00  0.00    +0.113 C 
ENDBRANCH  12  13
BRANCH  12  19
ATOM     19  C   UNL     1       0.125  -6.896   2.249  0.00  0.00    +0.008 A 
ATOM     20  C   UNL     1       1.181  -7.731   2.398  0.00  0.00    +0.013 A 
ATOM     21  C   UNL     1       1.451  -8.654   1.405  0.00  0.00    +0.008 A 
ATOM     22  C   UNL     1       0.651  -8.696   0.311  0.00  0.00    +0.045 A 
ATOM     23  S   UNL     1      -0.532  -7.409   0.670  0.00  0.00    -0.100 S 
ENDBRANCH  12  19
ENDBRANCH  11  12
ENDBRANCH   9  11
ENDBRANCH   1   7
BRANCH   1  24
ATOM     24  C   UNL     1      -0.175  -3.314  -1.651  0.00  0.00    +0.065 C 
BRANCH  24  25
ATOM     25  C   UNL     1      -0.895  -3.108  -2.959  0.00  0.00    -0.039 C 
ATOM     26  C   UNL     1      -0.668  -2.132  -3.867  0.00  0.00    -0.001 A 
ATOM     27  C   UNL     1       0.279  -1.012  -3.907  0.00  0.00    +0.010 A 
ATOM     28  C   UNL     1       0.268  -0.181  -4.974  0.00  0.00    +0.001 A 
ATOM     29  C   UNL     1      -0.623  -0.363  -6.041  0.00  0.00    +0.002 A 
ATOM     30  C   UNL     1      -1.523  -1.369  -6.076  0.00  0.00    +0.026 A 
ATOM     31  C   UNL     1      -1.599  -2.302  -5.006  0.00  0.00    +0.043 A 
ATOM     32  N   UNL     1      -2.371  -3.343  -4.809  0.00  0.00    -0.380 N 
ATOM     33  C   UNL     1      -2.013  -3.955  -3.525  0.00  0.00    +0.144 C 
ATOM     34  H   UNL     1      -3.061  -3.659  -5.413  0.00  0.00    +0.160 HD
ENDBRANCH  24  25
ENDBRANCH   1  24
TORSDOF 8
