REMARK  Name = ZINC13621892
REMARK  16 active torsions:
REMARK  status: ('A' for Active; 'I' for Inactive)
REMARK    1  A    between atoms: C_1  and  C_2
REMARK    2  A    between atoms: C_2  and  N_66
REMARK    3  A    between atoms: C_3  and  C_4
REMARK    4  A    between atoms: C_3  and  N_66
REMARK    5  A    between atoms: C_5  and  C_6
REMARK    6  A    between atoms: C_5  and  N_66
REMARK    7  A    between atoms: C_6  and  N_7
REMARK    8  A    between atoms: C_8  and  C_10
REMARK    9  A    between atoms: C_13  and  N_16
REMARK   10  A    between atoms: C_17  and  C_19
REMARK   11  A    between atoms: C_19  and  O_20
REMARK   12  A    between atoms: O_20  and  C_21
REMARK   13  A    between atoms: C_26  and  C_27
REMARK   14  A    between atoms: C_27  and  C_28
REMARK   15  A    between atoms: C_27  and  C_29
REMARK   16  A    between atoms: C_27  and  C_30
REMARK                            x       y       z     vdW  Elec       q    Type
REMARK                         _______ _______ _______ _____ _____    ______ ____
ROOT
ATOM      1  C   UNL     1      -2.111   2.935   5.684  0.00  0.00    +0.037 A 
ATOM      2  C   UNL     1      -0.947   2.174   5.817  0.00  0.00    +0.015 A 
ATOM      3  C   UNL     1      -0.337   1.649   4.700  0.00  0.00    +0.024 A 
ATOM      4  C   UNL     1      -0.879   1.876   3.439  0.00  0.00    +0.034 A 
ATOM      5  C   UNL     1      -2.034   2.639   3.302  0.00  0.00    +0.024 A 
ATOM      6  C   UNL     1      -2.652   3.162   4.415  0.00  0.00    +0.015 A 
ENDROOT
BRANCH   1   8
ATOM      7  N   UNL     1      -3.890   4.234   6.748  0.00  0.00    -0.313 N 
ATOM      8  C   UNL     1      -2.768   3.499   6.879  0.00  0.00    +0.244 C 
ATOM      9  O   UNL     1      -2.296   3.301   7.982  0.00  0.00    -0.270 OA
ATOM     10  H   UNL     1      -4.266   4.392   5.869  0.00  0.00    +0.149 HD
BRANCH   7  11
ATOM     11  C   UNL     1      -4.542   4.793   7.935  0.00  0.00    +0.086 C 
BRANCH  11  12
ATOM     12  C   UNL     1      -5.785   5.577   7.512  0.00  0.00    -0.060 C 
BRANCH  12  13
ATOM     13  N   UNL     1      -6.443   6.117   8.721  0.00  0.00    +0.380 N 
ATOM     14  H   UNL     1      -6.585   5.353   9.393  0.00  0.00    -0.082 HD
BRANCH  13  16
ATOM     15  C   UNL     1      -5.394   8.330   8.387  0.00  0.00    -0.017 C 
ATOM     16  C   UNL     1      -5.588   7.151   9.342  0.00  0.00    -0.082 C 
ENDBRANCH  13  16
BRANCH  13  17
ATOM     17  C   UNL     1      -7.757   6.694   8.366  0.00  0.00    -0.082 C 
ATOM     18  C   UNL     1      -8.559   6.915   9.650  0.00  0.00    -0.017 C 
ENDBRANCH  13  17
ENDBRANCH  12  13
ENDBRANCH  11  12
ENDBRANCH   7  11
ENDBRANCH   1   8
BRANCH   4  19
ATOM     19  N   UNL     1      -0.259   1.343   2.309  0.00  0.00    -0.283 N 
ATOM     20  C   UNL     1      -1.001   0.954   1.254  0.00  0.00    +0.255 C 
ATOM     21  O   UNL     1      -2.212   0.981   1.321  0.00  0.00    -0.272 OA
ATOM     22  H   UNL     1       0.706   1.251   2.284  0.00  0.00    +0.155 HD
BRANCH  20  23
ATOM     23  C   UNL     1      -0.327   0.486  -0.010  0.00  0.00    +0.324 C 
BRANCH  23  24
ATOM     24  O   UNL     1      -1.319   0.132  -0.976  0.00  0.00    -0.482 OA
BRANCH  24  25
ATOM     25  C   UNL     1      -0.875  -0.314  -2.181  0.00  0.00    +0.125 A 
ATOM     26  C   UNL     1       0.487  -0.408  -2.428  0.00  0.00    +0.047 A 
ATOM     27  C   UNL     1       0.936  -0.861  -3.653  0.00  0.00    +0.019 A 
ATOM     28  C   UNL     1       0.029  -1.222  -4.633  0.00  0.00    +0.018 A 
ATOM     29  C   UNL     1      -1.329  -1.129  -4.389  0.00  0.00    +0.023 A 
ATOM     30  C   UNL     1      -1.783  -0.681  -3.163  0.00  0.00    +0.001 A 
ATOM     31 BR   UNL     1       0.646  -1.842  -6.310  0.00  0.00    -0.050 Br
BRANCH  30  32
ATOM     32  C   UNL     1      -3.263  -0.586  -2.895  0.00  0.00    -0.009 C 
ATOM     33  C   UNL     1      -4.036  -1.047  -4.132  0.00  0.00    +0.015 C 
ATOM     34  C   UNL     1      -3.624  -1.479  -1.706  0.00  0.00    +0.015 C 
ATOM     35  C   UNL     1      -3.631   0.864  -2.575  0.00  0.00    +0.015 C 
ENDBRANCH  30  32
ENDBRANCH  24  25
ENDBRANCH  23  24
ENDBRANCH  20  23
ENDBRANCH   4  19
TORSDOF 11
