REMARK  Name = ZINC20203535
REMARK  15 active torsions:
REMARK  status: ('A' for Active; 'I' for Inactive)
REMARK    1  A    between atoms: C_1  and  C_2
REMARK    2  A    between atoms: C_2  and  C_3
REMARK    3  A    between atoms: C_3  and  N_4
REMARK    4  A    between atoms: C_7  and  N_10
REMARK    5  A    between atoms: N_10  and  C_11
REMARK    6  A    between atoms: C_11  and  C_12
REMARK    7  A    between atoms: C_15  and  O_31
REMARK    8  A    between atoms: C_16  and  O_18
REMARK    9  A    between atoms: O_18  and  C_19
REMARK   10  A    between atoms: C_19  and  C_20
REMARK   11  A    between atoms: C_20  and  C_22
REMARK   12  A    between atoms: C_20  and  O_30
REMARK   13  A    between atoms: C_22  and  N_23
REMARK   14  A    between atoms: N_26  and  C_29
REMARK   15  A    between atoms: O_31  and  C_32
REMARK                            x       y       z     vdW  Elec       q    Type
REMARK                         _______ _______ _______ _____ _____    ______ ____
ROOT
ATOM      1  C   UNL     1      -3.113  -8.207   1.256  0.00  0.00    -0.030 A 
ATOM      2  C   UNL     1      -3.495  -8.834   0.084  0.00  0.00    +0.009 A 
ATOM      3  C   UNL     1      -3.401 -10.209  -0.031  0.00  0.00    +0.050 A 
ATOM      4  C   UNL     1      -2.923 -10.961   1.030  0.00  0.00    +0.162 A 
ATOM      5  C   UNL     1      -2.539 -10.331   2.209  0.00  0.00    +0.162 A 
ATOM      6  C   UNL     1      -2.631  -8.952   2.316  0.00  0.00    +0.054 A 
ENDROOT
BRANCH   4   7
ATOM      7  O   UNL     1      -2.831 -12.314   0.919  0.00  0.00    -0.491 OA
ATOM      8  C   UNL     1      -3.244 -12.893  -0.320  0.00  0.00    +0.277 C 
ENDBRANCH   4   7
BRANCH   1   9
ATOM      9  C   UNL     1      -3.218  -6.709   1.375  0.00  0.00    +0.116 C 
BRANCH   9  10
ATOM     10  N   UNL     1      -1.964  -6.093   0.919  0.00  0.00    -0.309 NA
ATOM     11  H   UNL     1      -1.742  -6.380  -0.022  0.00  0.00    +0.123 HD
BRANCH  10  15
ATOM     12  N   UNL     1      -1.292  -2.046  -0.062  0.00  0.00    +0.380 N 
ATOM     13  C   UNL     1      -0.683  -2.533   1.181  0.00  0.00    -0.077 C 
ATOM     14  C   UNL     1      -0.614  -4.061   1.155  0.00  0.00    -0.000 C 
ATOM     15  C   UNL     1      -2.030  -4.629   1.022  0.00  0.00    +0.050 C 
ATOM     16  C   UNL     1      -2.682  -4.056  -0.240  0.00  0.00    -0.000 C 
ATOM     17  C   UNL     1      -2.675  -2.528  -0.162  0.00  0.00    -0.077 C 
ATOM     18  H   UNL     1      -0.761  -2.386  -0.850  0.00  0.00    -0.082 HD
BRANCH  12  19
ATOM     19  C   UNL     1      -1.285  -0.577  -0.066  0.00  0.00    -0.079 C 
BRANCH  19  21
ATOM     20  C   UNL     1       0.166   1.457  -0.093  0.00  0.00    +0.002 C 
ATOM     21  C   UNL     1       0.160  -0.073  -0.088  0.00  0.00    -0.022 C 
ENDBRANCH  19  21
ENDBRANCH  12  19
ENDBRANCH  10  15
ENDBRANCH   9  10
ENDBRANCH   1   9
BRANCH   5  22
ATOM     22  O   UNL     1      -2.070 -11.065   3.253  0.00  0.00    -0.486 OA
BRANCH  22  23
ATOM     23  C   UNL     1      -1.694 -10.350   4.432  0.00  0.00    +0.261 C 
BRANCH  23  24
ATOM     24  C   UNL     1      -1.194 -11.337   5.489  0.00  0.00    +0.166 C 
BRANCH  24  25
ATOM     25  O   UNL     1      -2.268 -12.190   5.891  0.00  0.00    -0.387 OA
ATOM     26  H   UNL     1      -3.022 -11.719   6.273  0.00  0.00    +0.210 HD
ENDBRANCH  24  25
BRANCH  24  27
ATOM     27  C   UNL     1      -0.675 -10.564   6.704  0.00  0.00    +0.119 C 
BRANCH  27  28
ATOM     28  N   UNL     1      -0.184 -11.511   7.713  0.00  0.00    -0.303 NA
ATOM     29  C   UNL     1      -0.114 -10.879   9.039  0.00  0.00    +0.066 C 
ATOM     30  C   UNL     1       0.345 -11.913  10.070  0.00  0.00    -0.064 C 
ATOM     31  N   UNL     1       1.663 -12.434   9.687  0.00  0.00    +0.379 N 
ATOM     32  C   UNL     1       1.572 -13.084   8.373  0.00  0.00    -0.064 C 
ATOM     33  C   UNL     1       1.124 -12.060   7.328  0.00  0.00    +0.066 C 
ATOM     34  C   UNL     1       2.111 -13.413  10.687  0.00  0.00    -0.096 C 
ATOM     35  H   UNL     1       2.325 -11.674   9.641  0.00  0.00    -0.082 HD
ENDBRANCH  27  28
ENDBRANCH  24  27
ENDBRANCH  23  24
ENDBRANCH  22  23
ENDBRANCH   5  22
TORSDOF 12
