REMARK  Name = ZINC09938579
REMARK  5 active torsions:
REMARK  status: ('A' for Active; 'I' for Inactive)
REMARK    1  A    between atoms: C_1  and  C_2
REMARK    2  A    between atoms: C_3  and  N_9
REMARK    3  A    between atoms: C_18  and  C_20
REMARK    4  A    between atoms: C_20  and  S_21
REMARK    5  A    between atoms: S_21  and  C_22
REMARK                            x       y       z     vdW  Elec       q    Type
REMARK                         _______ _______ _______ _____ _____    ______ ____
ROOT
ATOM      1  N   UNL     1      -2.904   2.199  -0.079  0.00  0.00    -0.327 N 
ATOM      2  C   UNL     1      -2.040   1.219   0.352  0.00  0.00    +0.180 C 
ATOM      3  N   UNL     1      -0.746   1.546   0.704  0.00  0.00    -0.298 N 
ATOM      4  C   UNL     1       0.117   0.569   1.135  0.00  0.00    +0.211 A 
ATOM      5  N   UNL     1       1.391   0.904   1.472  0.00  0.00    -0.293 N 
ATOM      6  H   UNL     1       1.684   1.827   1.412  0.00  0.00    +0.172 HD
ATOM      7  C   UNL     1       2.248  -0.052   1.892  0.00  0.00    +0.253 A 
ATOM      8  O   UNL     1       3.394   0.231   2.199  0.00  0.00    -0.268 OA
ATOM      9  C   UNL     1       1.792  -1.381   1.968  0.00  0.00    +0.094 A 
ATOM     10  C   UNL     1       0.503  -1.657   1.616  0.00  0.00    +0.060 A 
ATOM     11  N   UNL     1      -0.302  -0.678   1.209  0.00  0.00    -0.218 NA
ATOM     12  H   UNL     1      -2.615   3.124  -0.103  0.00  0.00    +0.169 HD
ATOM     13  H   UNL     1      -3.351  -0.336   0.276  0.00  0.00    +0.159 HD
ATOM     14  H   UNL     1      -0.446   2.467   0.646  0.00  0.00    +0.172 HD
ATOM     15  N   UNL     1      -2.385  -0.056   0.447  0.00  0.00    -0.371 N 
ATOM     16  H   UNL     1      -1.682  -0.761   0.693  0.00  0.00    +0.159 HD
ENDROOT
BRANCH   1  19
ATOM     17  C   UNL     1      -3.224   0.832  -2.555  0.00  0.00    +0.047 C 
ATOM     18  C   UNL     1      -4.401   1.192  -1.685  0.00  0.00    -0.009 A 
ATOM     19  C   UNL     1      -4.200   1.860  -0.484  0.00  0.00    +0.046 A 
ATOM     20  C   UNL     1      -5.287   2.195   0.312  0.00  0.00    +0.026 A 
ATOM     21  C   UNL     1      -6.565   1.859  -0.089  0.00  0.00    +0.003 A 
ATOM     22  C   UNL     1      -6.763   1.189  -1.283  0.00  0.00    +0.020 A 
ATOM     23  C   UNL     1      -5.682   0.853  -2.078  0.00  0.00    +0.046 A 
ATOM     24 CL   UNL     1      -5.935   0.011  -3.576  0.00  0.00    -0.083 Cl
ENDBRANCH   1  19
BRANCH  10  25
ATOM     25  C   UNL     1      -0.011  -3.072   1.689  0.00  0.00    +0.132 C 
BRANCH  25  26
ATOM     26  S   UNL     1      -1.090  -3.249   3.131  0.00  0.00    -0.093 S 
BRANCH  26  27
ATOM     27  C   UNL     1      -1.534  -4.947   2.975  0.00  0.00    +0.136 A 
ATOM     28  N   UNL     1      -2.316  -5.669   3.746  0.00  0.00    -0.233 NA
ATOM     29  C   UNL     1      -2.570  -6.973   3.503  0.00  0.00    +0.079 A 
ATOM     30  C   UNL     1      -3.386  -7.856   4.246  0.00  0.00    +0.029 A 
ATOM     31  C   UNL     1      -3.539  -9.162   3.858  0.00  0.00    +0.002 A 
ATOM     32  C   UNL     1      -2.905  -9.662   2.731  0.00  0.00    +0.001 A 
ATOM     33  C   UNL     1      -2.098  -8.826   1.980  0.00  0.00    +0.017 A 
ATOM     34  C   UNL     1      -1.940  -7.517   2.361  0.00  0.00    +0.040 A 
ATOM     35  S   UNL     1      -1.041  -6.123   1.723  0.00  0.00    -0.061 S 
ENDBRANCH  26  27
ENDBRANCH  25  26
ENDBRANCH  10  25
TORSDOF 4
