REMARK  Name = ZINC13002052
REMARK  8 active torsions:
REMARK  status: ('A' for Active; 'I' for Inactive)
REMARK    1  A    between atoms: C_1  and  N_44
REMARK    2  A    between atoms: C_2  and  C_3
REMARK    3  A    between atoms: C_2  and  N_44
REMARK    4  A    between atoms: C_3  and  C_4
REMARK    5  A    between atoms: N_6  and  C_7
REMARK    6  A    between atoms: C_15  and  C_16
REMARK    7  A    between atoms: C_15  and  N_44
REMARK    8  A    between atoms: N_18  and  C_19
REMARK                            x       y       z     vdW  Elec       q    Type
REMARK                         _______ _______ _______ _____ _____    ______ ____
ROOT
ATOM      1  C   UNL     1       1.973   0.403   0.134  0.00  0.00    -0.096 C 
ATOM      2  N   UNL     1       2.356   0.294   1.558  0.00  0.00    +0.384 N 
ATOM      3  H   UNL     1       2.533  -0.692   1.781  0.00  0.00    -0.082 HD
ENDROOT
BRANCH   2   4
ATOM      4  C   UNL     1       3.588   1.072   1.810  0.00  0.00    -0.069 C 
BRANCH   4   5
ATOM      5  C   UNL     1       4.754   0.399   1.083  0.00  0.00    +0.077 C 
BRANCH   5   6
ATOM      6  C   UNL     1       6.022   1.168   1.348  0.00  0.00    +0.215 C 
ATOM      7  O   UNL     1       5.996   2.158   2.049  0.00  0.00    -0.276 OA
ATOM      8  N   UNL     1       7.186   0.757   0.805  0.00  0.00    -0.283 N 
ATOM      9  H   UNL     1       7.194   0.013   0.183  0.00  0.00    +0.155 HD
BRANCH   8  10
ATOM     10  C   UNL     1       8.382   1.404   1.141  0.00  0.00    +0.070 A 
ATOM     11  C   UNL     1       8.464   2.789   1.082  0.00  0.00    +0.064 A 
ATOM     12  C   UNL     1       9.645   3.425   1.418  0.00  0.00    +0.022 A 
ATOM     13  C   UNL     1      10.746   2.682   1.803  0.00  0.00    +0.003 A 
ATOM     14  C   UNL     1      10.669   1.303   1.857  0.00  0.00    +0.022 A 
ATOM     15  C   UNL     1       9.490   0.661   1.527  0.00  0.00    +0.064 A 
ATOM     16 CL   UNL     1       9.395  -1.071   1.595  0.00  0.00    -0.082 Cl
ATOM     17 CL   UNL     1       7.084   3.722   0.594  0.00  0.00    -0.082 Cl
ENDBRANCH   8  10
ENDBRANCH   5   6
ENDBRANCH   4   5
ENDBRANCH   2   4
BRANCH   2  18
ATOM     18  C   UNL     1       1.260   0.792   2.415  0.00  0.00    +0.018 C 
BRANCH  18  19
ATOM     19  C   UNL     1       0.089  -0.150   2.303  0.00  0.00    +0.201 C 
ATOM     20  O   UNL     1       0.157  -1.117   1.574  0.00  0.00    -0.278 OA
ATOM     21  N   UNL     1      -1.036   0.086   3.007  0.00  0.00    -0.286 N 
ATOM     22  H   UNL     1      -1.070   0.828   3.631  0.00  0.00    +0.155 HD
BRANCH  21  23
ATOM     23  C   UNL     1      -2.154  -0.739   2.837  0.00  0.00    +0.052 A 
ATOM     24  C   UNL     1      -1.991  -2.055   2.425  0.00  0.00    +0.025 A 
ATOM     25  C   UNL     1      -3.096  -2.868   2.264  0.00  0.00    +0.002 A 
ATOM     26  C   UNL     1      -4.364  -2.370   2.502  0.00  0.00    +0.002 A 
ATOM     27  C   UNL     1      -4.530  -1.059   2.908  0.00  0.00    +0.022 A 
ATOM     28  C   UNL     1      -3.429  -0.241   3.076  0.00  0.00    +0.062 A 
ATOM     29 CL   UNL     1      -3.638   1.405   3.584  0.00  0.00    -0.082 Cl
ENDBRANCH  21  23
ENDBRANCH  18  19
ENDBRANCH   2  18
TORSDOF 7
