REMARK  Name = ZINC09332063
REMARK  10 active torsions:
REMARK  status: ('A' for Active; 'I' for Inactive)
REMARK    1  A    between atoms: C_1  and  C_2
REMARK    2  A    between atoms: C_4  and  C_31
REMARK    3  A    between atoms: C_6  and  N_8
REMARK    4  A    between atoms: C_11  and  C_17
REMARK    5  A    between atoms: C_12  and  O_16
REMARK    6  A    between atoms: C_14  and  O_15
REMARK    7  A    between atoms: C_21  and  O_29
REMARK    8  A    between atoms: C_22  and  O_27
REMARK    9  A    between atoms: O_27  and  C_28
REMARK   10  A    between atoms: O_29  and  C_30
REMARK                            x       y       z     vdW  Elec       q    Type
REMARK                         _______ _______ _______ _____ _____    ______ ____
ROOT
ATOM      1  N   UNL     1       3.193  -2.805  -3.177  0.00  0.00    -0.231 N 
ATOM      2  C   UNL     1       2.087  -3.075  -2.452  0.00  0.00    +0.267 A 
ATOM      3  O   UNL     1       0.990  -3.122  -2.986  0.00  0.00    -0.267 OA
ATOM      4  C   UNL     1       2.220  -3.299  -1.076  0.00  0.00    +0.069 A 
ATOM      5  C   UNL     1       3.482  -3.230  -0.510  0.00  0.00    +0.224 A 
ATOM      6  N   UNL     1       4.542  -2.964  -1.281  0.00  0.00    -0.161 NA
ATOM      7  C   UNL     1       4.410  -2.755  -2.571  0.00  0.00    +0.306 A 
ENDROOT
BRANCH   4   8
ATOM      8  C   UNL     1       1.013  -3.603  -0.227  0.00  0.00    +0.001 C 
ATOM      9  C   UNL     1       0.101  -2.405  -0.211  0.00  0.00    -0.050 A 
ATOM     10  C   UNL     1       0.671  -1.146  -0.082  0.00  0.00    +0.052 A 
ATOM     11  C   UNL     1      -0.127  -0.016  -0.058  0.00  0.00    +0.162 A 
ATOM     12  C   UNL     1      -1.509  -0.144  -0.164  0.00  0.00    +0.162 A 
ATOM     13  C   UNL     1      -2.072  -1.401  -0.294  0.00  0.00    +0.053 A 
ATOM     14  C   UNL     1      -1.267  -2.531  -0.320  0.00  0.00    -0.044 A 
ATOM     15  C   UNL     1      -1.928  -3.877  -0.474  0.00  0.00    +0.016 C 
ATOM     16  C   UNL     1      -0.955  -4.985  -0.069  0.00  0.00    -0.077 C 
ATOM     17  N   UNL     1       0.319  -4.774  -0.781  0.00  0.00    +0.387 N 
ATOM     18  H   UNL     1       0.913  -5.605  -0.671  0.00  0.00    -0.085 HD
ATOM     19  H   UNL     1       0.131  -4.617  -1.778  0.00  0.00    -0.085 HD
BRANCH  12  20
ATOM     20  O   UNL     1      -2.301   0.961  -0.141  0.00  0.00    -0.491 OA
ATOM     21  C   UNL     1      -3.710   0.751  -0.255  0.00  0.00    +0.277 C 
ENDBRANCH  12  20
BRANCH  11  22
ATOM     22  O   UNL     1       0.437   1.216   0.067  0.00  0.00    -0.491 OA
ATOM     23  C   UNL     1       1.862   1.269   0.170  0.00  0.00    +0.277 C 
ENDBRANCH  11  22
ENDBRANCH   4   8
BRANCH   1  29
ATOM     24  C   UNL     1       2.567   0.332  -6.913  0.00  0.00    +0.044 C 
ATOM     25  C   UNL     1       2.783  -1.066  -6.393  0.00  0.00    -0.048 A 
ATOM     26  C   UNL     1       2.879  -2.125  -7.277  0.00  0.00    +0.006 A 
ATOM     27  C   UNL     1       3.078  -3.409  -6.804  0.00  0.00    -0.048 A 
ATOM     28  C   UNL     1       3.183  -3.637  -5.446  0.00  0.00    +0.029 A 
ATOM     29  C   UNL     1       3.087  -2.576  -4.555  0.00  0.00    +0.055 A 
ATOM     30  C   UNL     1       2.881  -1.289  -5.033  0.00  0.00    +0.029 A 
ATOM     31  C   UNL     1       3.182  -4.560  -7.771  0.00  0.00    +0.044 C 
ENDBRANCH   1  29
BRANCH   7  32
ATOM     32  O   UNL     1       5.505  -2.484  -3.311  0.00  0.00    -0.479 OA
ATOM     33  H   UNL     1       6.353  -2.456  -2.847  0.00  0.00    +0.295 HD
ENDBRANCH   7  32
BRANCH   5  34
ATOM     34  O   UNL     1       3.642  -3.436   0.818  0.00  0.00    -0.492 OA
ATOM     35  H   UNL     1       4.559  -3.367   1.118  0.00  0.00    +0.294 HD
ENDBRANCH   5  34
TORSDOF 6
