REMARK  Name = ZINC40367123
REMARK  10 active torsions:
REMARK  status: ('A' for Active; 'I' for Inactive)
REMARK    1  A    between atoms: C_1  and  C_2
REMARK    2  A    between atoms: C_2  and  C_3
REMARK    3  A    between atoms: C_3  and  C_4
REMARK    4  A    between atoms: C_4  and  C_6
REMARK    5  A    between atoms: C_4  and  N_8
REMARK    6  A    between atoms: C_6  and  N_7
REMARK    7  A    between atoms: N_8  and  S_9
REMARK    8  A    between atoms: S_9  and  C_12
REMARK    9  A    between atoms: N_14  and  C_21
REMARK   10  A    between atoms: N_17  and  C_20
REMARK                            x       y       z     vdW  Elec       q    Type
REMARK                         _______ _______ _______ _____ _____    ______ ____
ROOT
ATOM      1  S   UNL     1       0.105  -4.006  -1.473  0.00  0.00    +0.065 S 
ATOM      2  O   UNL     1       0.449  -4.266  -2.827  0.00  0.00    -0.153 OA
ATOM      3  O   UNL     1       1.078  -3.936  -0.440  0.00  0.00    -0.153 OA
ENDROOT
BRANCH   1   4
ATOM      4  C   UNL     1      -1.046  -5.253  -0.998  0.00  0.00    +0.186 A 
ATOM      5  C   UNL     1      -1.013  -5.776   0.247  0.00  0.00    +0.124 A 
ATOM      6  N   UNL     1      -1.914  -6.743   0.600  0.00  0.00    -0.301 N 
ATOM      7  C   UNL     1      -2.831  -7.179  -0.282  0.00  0.00    +0.332 A 
ATOM      8  O   UNL     1      -3.622  -8.040   0.053  0.00  0.00    -0.246 OA
ATOM      9  N   UNL     1      -2.887  -6.676  -1.529  0.00  0.00    -0.262 N 
ATOM     10  C   UNL     1      -2.020  -5.717  -1.913  0.00  0.00    +0.283 A 
ATOM     11  O   UNL     1      -2.073  -5.257  -3.040  0.00  0.00    -0.265 OA
ATOM     12  C   UNL     1      -3.896  -7.168  -2.470  0.00  0.00    +0.157 C 
ATOM     13  C   UNL     1      -1.878  -7.310   1.951  0.00  0.00    +0.153 C 
ENDBRANCH   1   4
BRANCH   1  14
ATOM     14  N   UNL     1      -0.705  -2.562  -1.460  0.00  0.00    -0.189 NA
ATOM     15  H   UNL     1      -0.844  -2.076  -2.288  0.00  0.00    +0.148 HD
BRANCH  14  16
ATOM     16  C   UNL     1      -1.212  -2.018  -0.197  0.00  0.00    +0.059 C 
BRANCH  16  17
ATOM     17  C   UNL     1      -0.470  -0.722   0.135  0.00  0.00    +0.018 C 
BRANCH  17  19
ATOM     18  C   UNL     1       1.749   0.264   0.723  0.00  0.00    +0.004 C 
ATOM     19  C   UNL     1       1.006  -1.032   0.391  0.00  0.00    -0.002 C 
ENDBRANCH  17  19
ENDBRANCH  16  17
BRANCH  16  20
ATOM     20  C   UNL     1      -2.709  -1.729  -0.331  0.00  0.00    -0.066 C 
BRANCH  20  21
ATOM     21  N   UNL     1      -3.411  -2.957  -0.727  0.00  0.00    +0.379 N 
ATOM     22  H   UNL     1      -3.018  -3.307  -1.588  0.00  0.00    -0.090 HD
ATOM     23  H   UNL     1      -3.308  -3.652  -0.003  0.00  0.00    -0.090 HD
ATOM     24  H   UNL     1      -4.391  -2.755  -0.862  0.00  0.00    -0.090 HD
ENDBRANCH  20  21
ENDBRANCH  16  20
ENDBRANCH  14  16
ENDBRANCH   1  14
TORSDOF 7
