REMARK  Name = ZINC04705285
REMARK  11 active torsions:
REMARK  status: ('A' for Active; 'I' for Inactive)
REMARK    1  A    between atoms: C_1  and  C_2
REMARK    2  A    between atoms: C_2  and  N_3
REMARK    3  A    between atoms: N_3  and  C_4
REMARK    4  A    between atoms: C_4  and  N_6
REMARK    5  A    between atoms: C_11  and  C_16
REMARK    6  A    between atoms: C_13  and  C_15
REMARK    7  A    between atoms: N_17  and  C_18
REMARK    8  A    between atoms: C_20  and  C_25
REMARK    9  A    between atoms: C_20  and  C_26
REMARK   10  A    between atoms: C_21  and  C_23
REMARK   11  A    between atoms: C_21  and  C_24
REMARK                            x       y       z     vdW  Elec       q    Type
REMARK                         _______ _______ _______ _____ _____    ______ ____
ROOT
ATOM      1  N   UNL     1      -0.030   7.027  -2.375  0.00  0.00    -0.160 NA
ATOM      2  C   UNL     1       0.080   5.709  -2.375  0.00  0.00    +0.196 C 
ATOM      3  N   UNL     1      -0.104   5.007  -3.535  0.00  0.00    -0.297 N 
ATOM      4  C   UNL     1      -0.407   5.678  -4.712  0.00  0.00    +0.231 A 
ATOM      5  N   UNL     1      -0.519   6.997  -4.693  0.00  0.00    -0.217 NA
ATOM      6  C   UNL     1      -0.801   7.668  -5.798  0.00  0.00    +0.044 A 
ATOM      7  C   UNL     1      -0.991   6.972  -6.981  0.00  0.00    +0.046 A 
ATOM      8  C   UNL     1      -0.872   5.591  -6.964  0.00  0.00    +0.044 A 
ATOM      9  N   UNL     1      -0.583   4.983  -5.825  0.00  0.00    -0.217 NA
ATOM     10  C   UNL     1      -1.069   4.793  -8.227  0.00  0.00    +0.066 C 
ATOM     11  C   UNL     1      -0.920   9.170  -5.769  0.00  0.00    +0.066 C 
ATOM     12  N   UNL     1       0.378   5.049  -1.217  0.00  0.00    -0.355 N 
ATOM     13  H   UNL     1      -0.024   4.040  -3.535  0.00  0.00    +0.171 HD
ATOM     14  H   UNL     1       0.576   5.550  -0.411  0.00  0.00    +0.163 HD
ENDROOT
BRANCH  12  15
ATOM     15  C   UNL     1       0.398   3.581  -1.194  0.00  0.00    +0.079 C 
ATOM     16  C   UNL     1       1.315   3.108  -0.066  0.00  0.00    +0.011 C 
ATOM     17  C   UNL     1       1.339   1.583  -0.005  0.00  0.00    -0.071 C 
ATOM     18  C   UNL     1      -1.019   1.537  -0.868  0.00  0.00    -0.071 C 
ATOM     19  C   UNL     1      -1.014   3.063  -0.921  0.00  0.00    +0.011 C 
ATOM     20  C   UNL     1      -0.910   0.974  -2.290  0.00  0.00    -0.010 C 
ATOM     21  C   UNL     1      -2.390   1.097  -0.306  0.00  0.00    -0.010 C 
ATOM     22  C   UNL     1       2.040   1.181   1.311  0.00  0.00    -0.010 C 
ATOM     23  C   UNL     1       2.191   1.037  -1.158  0.00  0.00    -0.010 C 
ATOM     24  N   UNL     1      -0.000   0.937   0.035  0.00  0.00    +0.386 N 
ATOM     25  H   UNL     1      -0.353   0.998   0.998  0.00  0.00    -0.084 HD
ATOM     26  H   UNL     1       0.114  -0.049  -0.226  0.00  0.00    -0.084 HD
ENDBRANCH  12  15
BRANCH   1  27
ATOM     27  C   UNL     1       0.260   7.723  -1.267  0.00  0.00    +0.157 C 
ATOM     28  S   UNL     1       1.860   7.735  -0.657  0.00  0.00    -0.017 S 
BRANCH  27  29
ATOM     29  N   UNL     1      -0.708   8.415  -0.633  0.00  0.00    -0.325 N 
ATOM     30  H   UNL     1      -1.614   8.409  -0.979  0.00  0.00    +0.148 HD
BRANCH  29  32
ATOM     31  C   UNL     1      -1.656   9.864   1.094  0.00  0.00    +0.024 C 
ATOM     32  C   UNL     1      -0.391   9.177   0.578  0.00  0.00    +0.100 C 
ENDBRANCH  29  32
ENDBRANCH  27  29
ENDBRANCH   1  27
TORSDOF 4
