REMARK  Name = ZINC51144221
REMARK  8 active torsions:
REMARK  status: ('A' for Active; 'I' for Inactive)
REMARK    1  A    between atoms: C_1  and  N_2
REMARK    2  A    between atoms: N_2  and  C_3
REMARK    3  A    between atoms: N_2  and  C_4
REMARK    4  A    between atoms: N_7  and  C_10
REMARK    5  A    between atoms: C_10  and  C_11
REMARK    6  A    between atoms: C_14  and  N_20
REMARK    7  A    between atoms: C_15  and  N_17
REMARK    8  A    between atoms: N_20  and  N_21
REMARK                            x       y       z     vdW  Elec       q    Type
REMARK                         _______ _______ _______ _____ _____    ______ ____
ROOT
ATOM      1  C   UNL     1       5.187  -2.190  -3.545  0.00  0.00    -0.031 A 
ATOM      2  C   UNL     1       5.666  -0.924  -3.830  0.00  0.00    +0.007 A 
ATOM      3  C   UNL     1       6.916  -0.541  -3.386  0.00  0.00    +0.027 A 
ATOM      4  C   UNL     1       7.692  -1.428  -2.650  0.00  0.00    +0.071 A 
ATOM      5  C   UNL     1       7.208  -2.698  -2.365  0.00  0.00    +0.148 A 
ATOM      6  C   UNL     1       5.955  -3.073  -2.809  0.00  0.00    +0.039 A 
ENDROOT
BRANCH   5   7
ATOM      7  N   UNL     1       8.031  -3.647  -1.582  0.00  0.00    +0.058 N 
ATOM      8  O   UNL     1       9.229  -3.681  -1.741  0.00  0.00    -0.126 OA
ATOM      9  O   UNL     1       7.506  -4.388  -0.784  0.00  0.00    -0.126 OA
ENDBRANCH   5   7
BRANCH   4  10
ATOM     10  N   UNL     1       8.957  -1.044  -2.199  0.00  0.00    -0.281 N 
ATOM     11  H   UNL     1       9.465  -1.633  -1.620  0.00  0.00    +0.166 HD
BRANCH  10  12
ATOM     12  N   UNL     1       9.479   0.162  -2.574  0.00  0.00    -0.256 NA
ATOM     13  H   UNL     1       8.857   0.917  -2.327  0.00  0.00    +0.140 HD
ATOM     14  H   UNL     1      10.394   0.300  -2.173  0.00  0.00    +0.140 HD
ENDBRANCH  10  12
ENDBRANCH   4  10
BRANCH   1  15
ATOM     15  C   UNL     1       3.822  -2.604  -4.031  0.00  0.00    +0.119 C 
BRANCH  15  19
ATOM     16  C   UNL     1       0.384  -1.079  -1.999  0.00  0.00    -0.067 C 
ATOM     17  C   UNL     1       0.530  -2.589  -2.205  0.00  0.00    +0.000 C 
ATOM     18  C   UNL     1       1.513  -2.850  -3.348  0.00  0.00    +0.083 C 
ATOM     19  N   UNL     1       2.815  -2.255  -3.021  0.00  0.00    -0.298 NA
ATOM     20  C   UNL     1       2.709  -0.799  -2.865  0.00  0.00    +0.083 C 
ATOM     21  C   UNL     1       1.761  -0.476  -1.708  0.00  0.00    +0.000 C 
BRANCH  16  23
ATOM     22  C   UNL     1      -0.647   0.627  -0.663  0.00  0.00    -0.096 C 
ATOM     23  N   UNL     1      -0.514  -0.822  -0.865  0.00  0.00    +0.378 N 
ATOM     24  C   UNL     1      -1.835  -1.401  -1.145  0.00  0.00    -0.096 C 
ATOM     25  H   UNL     1      -0.132  -1.244  -0.031  0.00  0.00    -0.082 HD
ENDBRANCH  16  23
ENDBRANCH  15  19
ENDBRANCH   1  15
TORSDOF 6
