REMARK  Name = ZINC64114272
REMARK  10 active torsions:
REMARK  status: ('A' for Active; 'I' for Inactive)
REMARK    1  A    between atoms: C_1  and  C_2
REMARK    2  A    between atoms: C_5  and  C_8
REMARK    3  A    between atoms: C_8  and  C_9
REMARK    4  A    between atoms: C_8  and  N_23
REMARK    5  A    between atoms: C_9  and  N_10
REMARK    6  A    between atoms: N_10  and  C_11
REMARK    7  A    between atoms: C_14  and  C_20
REMARK    8  A    between atoms: C_16  and  N_17
REMARK    9  A    between atoms: N_23  and  C_24
REMARK   10  A    between atoms: N_23  and  C_25
REMARK                            x       y       z     vdW  Elec       q    Type
REMARK                         _______ _______ _______ _____ _____    ______ ____
ROOT
ATOM      1  N   UNL     1      -1.934  -3.882  -1.274  0.00  0.00    -0.343 N 
ATOM      2  H   UNL     1      -1.405  -3.342  -1.883  0.00  0.00    +0.146 HD
ENDROOT
BRANCH   1   3
ATOM      3  C   UNL     1      -3.302  -4.021  -1.478  0.00  0.00    +0.058 A 
ATOM      4  C   UNL     1      -4.052  -4.831  -0.629  0.00  0.00    +0.026 A 
ATOM      5  C   UNL     1      -5.406  -4.970  -0.828  0.00  0.00    +0.015 A 
ATOM      6  C   UNL     1      -6.029  -4.297  -1.883  0.00  0.00    +0.039 A 
ATOM      7  C   UNL     1      -5.274  -3.485  -2.733  0.00  0.00    +0.047 A 
ATOM      8  C   UNL     1      -3.921  -3.345  -2.526  0.00  0.00    +0.148 A 
BRANCH   6   9
ATOM      9  C   UNL     1      -7.481  -4.445  -2.099  0.00  0.00    +0.242 C 
ATOM     10  O   UNL     1      -8.022  -3.859  -3.018  0.00  0.00    -0.270 OA
ATOM     11  N   UNL     1      -8.209  -5.229  -1.279  0.00  0.00    -0.325 N 
ATOM     12  H   UNL     1      -7.777  -5.697  -0.546  0.00  0.00    +0.145 HD
ATOM     13  H   UNL     1      -9.163  -5.326  -1.421  0.00  0.00    +0.145 HD
ENDBRANCH   6   9
BRANCH   8  14
ATOM     14  N   UNL     1      -3.121  -2.481  -3.422  0.00  0.00    +0.058 N 
ATOM     15  O   UNL     1      -3.598  -1.462  -3.864  0.00  0.00    -0.126 OA
ATOM     16  O   UNL     1      -1.990  -2.794  -3.713  0.00  0.00    -0.126 OA
ENDBRANCH   8  14
ENDBRANCH   1   3
BRANCH   1  17
ATOM     17  C   UNL     1      -1.290  -4.549  -0.140  0.00  0.00    +0.091 C 
BRANCH  17  18
ATOM     18  C   UNL     1       0.177  -4.123  -0.062  0.00  0.00    -0.021 C 
BRANCH  18  23
ATOM     19  C   UNL     1       0.481   1.515   1.167  0.00  0.00    +0.044 C 
ATOM     20  C   UNL     1       0.402   0.044   0.846  0.00  0.00    -0.050 A 
ATOM     21  C   UNL     1       0.561  -0.388  -0.457  0.00  0.00    +0.003 A 
ATOM     22  C   UNL     1       0.489  -1.737  -0.751  0.00  0.00    +0.002 A 
ATOM     23  C   UNL     1       0.257  -2.653   0.258  0.00  0.00    -0.059 A 
ATOM     24  C   UNL     1       0.098  -2.220   1.561  0.00  0.00    +0.002 A 
ATOM     25  C   UNL     1       0.175  -0.872   1.856  0.00  0.00    +0.003 A 
ENDBRANCH  18  23
BRANCH  18  26
ATOM     26  N   UNL     1       0.855  -4.892   0.990  0.00  0.00    +0.382 N 
ATOM     27  C   UNL     1       0.791  -6.324   0.669  0.00  0.00    -0.096 C 
ATOM     28  C   UNL     1       2.260  -4.471   1.075  0.00  0.00    -0.096 C 
ATOM     29  H   UNL     1       0.400  -4.725   1.875  0.00  0.00    -0.082 HD
ENDBRANCH  18  26
ENDBRANCH  17  18
ENDBRANCH   1  17
TORSDOF 7
