REMARK  Name = ZINC63746327
REMARK  8 active torsions:
REMARK  status: ('A' for Active; 'I' for Inactive)
REMARK    1  A    between atoms: C_1  and  C_2
REMARK    2  A    between atoms: C_5  and  C_32
REMARK    3  A    between atoms: C_6  and  C_22
REMARK    4  A    between atoms: C_10  and  N_12
REMARK    5  A    between atoms: N_15  and  C_16
REMARK    6  A    between atoms: N_24  and  C_25
REMARK    7  A    between atoms: C_25  and  C_26
REMARK    8  A    between atoms: C_26  and  C_27
REMARK                            x       y       z     vdW  Elec       q    Type
REMARK                         _______ _______ _______ _____ _____    ______ ____
ROOT
ATOM      1  C   UNL     1      -0.159   1.530   0.137  0.00  0.00    +0.044 C 
ATOM      2  C   UNL     1      -0.113   0.024   0.109  0.00  0.00    -0.048 A 
ATOM      3  C   UNL     1      -0.102  -0.605  -1.088  0.00  0.00    +0.013 A 
ATOM      4  C   UNL     1      -0.059  -2.019  -1.153  0.00  0.00    +0.006 A 
ATOM      5  C   UNL     1      -0.039  -2.909  -2.212  0.00  0.00    -0.000 C 
ATOM      6  C   UNL     1       0.006  -4.287  -1.589  0.00  0.00    +0.198 C 
ATOM      7  N   UNL     1       0.010  -4.074  -0.138  0.00  0.00    -0.368 N 
ATOM      8  C   UNL     1      -0.028  -2.787   0.108  0.00  0.00    +0.065 A 
ATOM      9  C   UNL     1      -0.042  -2.029   1.369  0.00  0.00    +0.059 A 
ATOM     10  C   UNL     1      -0.079  -0.670   1.322  0.00  0.00    +0.028 A 
ATOM     11  H   UNL     1       0.035  -4.774   0.533  0.00  0.00    +0.161 HD
ENDROOT
BRANCH   9  12
ATOM     12  N   UNL     1      -0.014  -2.696   2.597  0.00  0.00    -0.267 N 
ATOM     13  C   UNL     1       0.470  -2.074   3.691  0.00  0.00    +0.308 C 
ATOM     14  O   UNL     1       0.976  -0.973   3.590  0.00  0.00    -0.252 OA
ATOM     15  N   UNL     1       0.393  -2.673   4.896  0.00  0.00    -0.269 N 
ATOM     16  H   UNL     1      -0.342  -3.606   2.663  0.00  0.00    +0.156 HD
ATOM     17  H   UNL     1       0.060  -3.581   4.966  0.00  0.00    +0.156 HD
BRANCH  15  18
ATOM     18  C   UNL     1       0.793  -1.984   6.046  0.00  0.00    +0.035 A 
ATOM     19  C   UNL     1       1.408  -2.667   7.088  0.00  0.00    +0.023 A 
ATOM     20  C   UNL     1       1.802  -1.984   8.222  0.00  0.00    +0.002 A 
ATOM     21  C   UNL     1       1.585  -0.622   8.321  0.00  0.00    +0.000 A 
ATOM     22  C   UNL     1       0.973   0.061   7.286  0.00  0.00    +0.002 A 
ATOM     23  C   UNL     1       0.583  -0.615   6.146  0.00  0.00    +0.023 A 
ENDBRANCH  15  18
ENDBRANCH   9  12
BRANCH   5  24
ATOM     24  C   UNL     1      -0.059  -2.584  -3.640  0.00  0.00    -0.019 A 
ATOM     25  C   UNL     1      -0.787  -1.479  -4.102  0.00  0.00    +0.008 A 
ATOM     26  C   UNL     1      -0.799  -1.181  -5.447  0.00  0.00    +0.001 A 
ATOM     27  C   UNL     1      -0.096  -1.970  -6.342  0.00  0.00    +0.000 A 
ATOM     28  C   UNL     1       0.625  -3.064  -5.895  0.00  0.00    +0.001 A 
ATOM     29  C   UNL     1       0.654  -3.374  -4.553  0.00  0.00    +0.008 A 
ENDBRANCH   5  24
BRANCH   6  30
ATOM     30  C   UNL     1      -1.208  -5.081  -1.996  0.00  0.00    +0.240 C 
ATOM     31  O   UNL     1      -2.183  -5.110  -1.276  0.00  0.00    -0.273 OA
ATOM     32  N   UNL     1      -1.210  -5.760  -3.161  0.00  0.00    -0.313 N 
ATOM     33  H   UNL     1      -0.406  -5.797  -3.702  0.00  0.00    +0.149 HD
BRANCH  32  34
ATOM     34  C   UNL     1      -2.427  -6.441  -3.609  0.00  0.00    +0.112 C 
BRANCH  34  35
ATOM     35  C   UNL     1      -2.161  -7.129  -4.950  0.00  0.00    +0.093 C 
BRANCH  35  36
ATOM     36  C   UNL     1      -3.413  -7.830  -5.411  0.00  0.00    +0.106 A 
ATOM     37  C   UNL     1      -4.376  -7.294  -6.182  0.00  0.00    +0.044 A 
ATOM     38  C   UNL     1      -5.357  -8.296  -6.368  0.00  0.00    +0.041 A 
ATOM     39  C   UNL     1      -4.934  -9.384  -5.700  0.00  0.00    +0.195 A 
ATOM     40  O   UNL     1      -3.753  -9.098  -5.127  0.00  0.00    -0.468 OA
ENDBRANCH  35  36
ENDBRANCH  34  35
ENDBRANCH  32  34
ENDBRANCH   6  30
TORSDOF 7
