REMARK  Name = ZINC32123966
REMARK  10 active torsions:
REMARK  status: ('A' for Active; 'I' for Inactive)
REMARK    1  A    between atoms: C_1  and  C_2
REMARK    2  A    between atoms: C_2  and  C_3
REMARK    3  A    between atoms: C_3  and  O_5
REMARK    4  A    between atoms: O_5  and  C_6
REMARK    5  A    between atoms: C_6  and  C_7
REMARK    6  A    between atoms: C_9  and  O_26
REMARK    7  A    between atoms: C_13  and  N_16
REMARK    8  A    between atoms: O_26  and  C_27
REMARK    9  A    between atoms: C_27  and  C_29
REMARK   10  A    between atoms: C_29  and  C_30
REMARK                            x       y       z     vdW  Elec       q    Type
REMARK                         _______ _______ _______ _____ _____    ______ ____
ROOT
ATOM      1  C   UNL     1      -3.757   2.508  -1.212  0.00  0.00    +0.200 C 
ATOM      2  C   UNL     1      -4.317   2.627   0.223  0.00  0.00    +0.226 C 
ATOM      3  C   UNL     1      -3.431   1.670   1.052  0.00  0.00    +0.151 C 
ATOM      4  C   UNL     1      -2.440   1.087   0.020  0.00  0.00    +0.260 C 
ATOM      5  O   UNL     1      -3.113   1.216  -1.251  0.00  0.00    -0.343 OA
ATOM      6 BR   UNL     1      -2.466   2.662   2.449  0.00  0.00    -0.079 Br
ENDROOT
BRANCH   4   7
ATOM      7  N   UNL     1      -1.194   1.858   0.018  0.00  0.00    -0.182 N 
ATOM      8  C   UNL     1      -0.014   1.212   0.009  0.00  0.00    +0.370 A 
ATOM      9  O   UNL     1       0.002  -0.004   0.002  0.00  0.00    -0.243 OA
ATOM     10  N   UNL     1       1.148   1.890   0.001  0.00  0.00    -0.150 NA
ATOM     11  C   UNL     1       1.143   3.240   0.008  0.00  0.00    +0.309 A 
ATOM     12  O   UNL     1       2.189   3.860   0.002  0.00  0.00    -0.263 OA
ATOM     13  C   UNL     1      -0.141   3.949   0.024  0.00  0.00    +0.193 A 
ATOM     14  N   UNL     1      -1.247   3.257   0.030  0.00  0.00    -0.152 NA
ATOM     15 BR   UNL     1      -0.192   5.839   0.034  0.00  0.00    -0.021 Br
ENDBRANCH   4   7
BRANCH   1  16
ATOM     16  C   UNL     1      -4.893   2.571  -2.234  0.00  0.00    +0.267 C 
BRANCH  16  17
ATOM     17  O   UNL     1      -4.338   2.578  -3.576  0.00  0.00    -0.462 OA
BRANCH  17  18
ATOM     18  C   UNL     1      -5.208   2.631  -4.596  0.00  0.00    +0.307 C 
ATOM     19  O   UNL     1      -6.396   2.670  -4.375  0.00  0.00    -0.251 OA
BRANCH  18  21
ATOM     20  C   UNL     1      -5.894   2.704  -6.978  0.00  0.00    +0.015 C 
ATOM     21  C   UNL     1      -4.705   2.641  -6.016  0.00  0.00    +0.117 C 
ENDBRANCH  18  21
ENDBRANCH  17  18
ENDBRANCH  16  17
ENDBRANCH   1  16
BRANCH   2  22
ATOM     22  O   UNL     1      -5.704   2.201   0.267  0.00  0.00    -0.457 OA
BRANCH  22  23
ATOM     23  C   UNL     1      -6.471   2.723   1.237  0.00  0.00    +0.307 C 
ATOM     24  O   UNL     1      -5.999   3.509   2.024  0.00  0.00    -0.251 OA
BRANCH  23  25
ATOM     25  C   UNL     1      -7.922   2.328   1.346  0.00  0.00    +0.117 C 
ATOM     26  C   UNL     1      -8.562   3.059   2.527  0.00  0.00    +0.015 C 
ENDBRANCH  23  25
ENDBRANCH  22  23
ENDBRANCH   2  22
TORSDOF 8
