REMARK  Name = ZINC45521911
REMARK  8 active torsions:
REMARK  status: ('A' for Active; 'I' for Inactive)
REMARK    1  A    between atoms: C_1  and  C_2
REMARK    2  A    between atoms: C_2  and  N_3
REMARK    3  A    between atoms: C_7  and  C_9
REMARK    4  A    between atoms: C_9  and  N_10
REMARK    5  A    between atoms: N_10  and  C_11
REMARK    6  A    between atoms: C_11  and  N_13
REMARK    7  A    between atoms: N_13  and  N_14
REMARK    8  A    between atoms: N_14  and  C_15
REMARK                            x       y       z     vdW  Elec       q    Type
REMARK                         _______ _______ _______ _____ _____    ______ ____
ROOT
ATOM      1  C   UNL     1      -2.219  -2.013  -3.719  0.00  0.00    +0.147 C 
ATOM      2  S   UNL     1      -1.764  -3.172  -4.894  0.00  0.00    -0.017 S 
ENDROOT
BRANCH   1   3
ATOM      3  N   UNL     1      -1.374  -1.701  -2.717  0.00  0.00    -0.327 N 
ATOM      4  H   UNL     1      -1.632  -1.044  -2.052  0.00  0.00    +0.148 HD
BRANCH   3   5
ATOM      5  C   UNL     1      -0.065  -2.353  -2.633  0.00  0.00    +0.088 C 
BRANCH   5  10
ATOM      6  N   UNL     1       0.777  -0.353  -1.475  0.00  0.00    +0.382 N 
ATOM      7  C   UNL     1       2.203   0.033  -1.540  0.00  0.00    -0.078 C 
ATOM      8  C   UNL     1       2.964  -1.157  -0.906  0.00  0.00    -0.020 C 
ATOM      9  C   UNL     1       2.137  -2.366  -1.416  0.00  0.00    -0.016 C 
ATOM     10  C   UNL     1       0.692  -1.824  -1.413  0.00  0.00    -0.051 C 
ATOM     11  H   UNL     1       0.299  -0.020  -2.299  0.00  0.00    -0.081 HD
BRANCH   6  13
ATOM     12  C   UNL     1       0.139   1.753  -0.402  0.00  0.00    -0.017 C 
ATOM     13  C   UNL     1       0.161   0.229  -0.276  0.00  0.00    -0.082 C 
ENDBRANCH   6  13
ENDBRANCH   5  10
ENDBRANCH   3   5
ENDBRANCH   1   3
BRANCH   1  14
ATOM     14  N   UNL     1      -3.423  -1.413  -3.796  0.00  0.00    -0.248 N 
ATOM     15  H   UNL     1      -4.032  -1.637  -4.518  0.00  0.00    +0.172 HD
BRANCH  14  16
ATOM     16  N   UNL     1      -3.796  -0.464  -2.835  0.00  0.00    -0.262 N 
ATOM     17  H   UNL     1      -3.224  -0.299  -2.069  0.00  0.00    +0.170 HD
BRANCH  16  18
ATOM     18  C   UNL     1      -4.993   0.245  -2.980  0.00  0.00    +0.081 A 
ATOM     19  C   UNL     1      -5.742   0.583  -1.859  0.00  0.00    +0.066 A 
ATOM     20  C   UNL     1      -6.925   1.284  -2.006  0.00  0.00    +0.042 A 
ATOM     21  C   UNL     1      -7.362   1.649  -3.267  0.00  0.00    +0.044 A 
ATOM     22  C   UNL     1      -6.618   1.315  -4.384  0.00  0.00    +0.042 A 
ATOM     23  C   UNL     1      -5.432   0.619  -4.244  0.00  0.00    +0.066 A 
ATOM     24 CL   UNL     1      -4.495   0.207  -5.646  0.00  0.00    -0.081 Cl
ATOM     25 CL   UNL     1      -8.848   2.529  -3.446  0.00  0.00    -0.083 Cl
ATOM     26 CL   UNL     1      -5.195   0.123  -0.278  0.00  0.00    -0.081 Cl
ENDBRANCH  16  18
ENDBRANCH  14  16
ENDBRANCH   1  14
TORSDOF 7
