REMARK  Name = ZINC10341690
REMARK  6 active torsions:
REMARK  status: ('A' for Active; 'I' for Inactive)
REMARK    1  A    between atoms: C_1  and  C_2
REMARK    2  A    between atoms: C_5  and  N_12
REMARK    3  A    between atoms: C_7  and  S_8
REMARK    4  A    between atoms: S_8  and  N_11
REMARK    5  A    between atoms: C_13  and  C_15
REMARK    6  A    between atoms: C_15  and  N_16
REMARK                            x       y       z     vdW  Elec       q    Type
REMARK                         _______ _______ _______ _____ _____    ______ ____
ROOT
ATOM      1  N   UNL     1       0.059  -4.170  -0.021  0.00  0.00    -0.287 N 
ATOM      2  C   UNL     1      -0.040  -4.839  -1.187  0.00  0.00    +0.201 C 
ATOM      3  O   UNL     1      -0.054  -4.230  -2.236  0.00  0.00    -0.278 OA
ATOM      4  H   UNL     1       0.147  -4.658   0.812  0.00  0.00    +0.155 HD
ENDROOT
BRANCH   1   9
ATOM      5  C   UNL     1      -0.041   1.502   0.014  0.00  0.00    +0.046 C 
ATOM      6  C   UNL     1      -0.015  -0.004   0.004  0.00  0.00    -0.024 A 
ATOM      7  C   UNL     1      -0.752  -0.702  -0.935  0.00  0.00    +0.007 A 
ATOM      8  C   UNL     1      -0.730  -2.082  -0.946  0.00  0.00    +0.023 A 
ATOM      9  C   UNL     1       0.034  -2.771  -0.013  0.00  0.00    +0.035 A 
ATOM     10  C   UNL     1       0.773  -2.068   0.929  0.00  0.00    +0.052 A 
ATOM     11  C   UNL     1       0.751  -0.686   0.932  0.00  0.00    +0.110 A 
BRANCH  11  12
ATOM     12  S   UNL     1       1.694   0.207   2.122  0.00  0.00    +0.056 S 
ATOM     13  O   UNL     1       0.818   1.167   2.697  0.00  0.00    -0.153 OA
ATOM     14  O   UNL     1       2.382  -0.760   2.904  0.00  0.00    -0.153 OA
BRANCH  12  15
ATOM     15  N   UNL     1       2.849   1.056   1.294  0.00  0.00    -0.204 NA
ATOM     16  H   UNL     1       2.898   0.993   0.328  0.00  0.00    +0.144 HD
ATOM     17  H   UNL     1       3.477   1.618   1.776  0.00  0.00    +0.144 HD
ENDBRANCH  12  15
ENDBRANCH  11  12
ENDBRANCH   1   9
BRANCH   2  18
ATOM     18  C   UNL     1      -0.134  -6.343  -1.187  0.00  0.00    +0.019 C 
BRANCH  18  19
ATOM     19  N   UNL     1      -0.232  -6.827  -2.571  0.00  0.00    +0.388 N 
ATOM     20  C   UNL     1      -0.475  -8.276  -2.559  0.00  0.00    -0.073 C 
ATOM     21  C   UNL     1      -0.904  -8.719  -3.969  0.00  0.00    +0.024 C 
ATOM     22  C   UNL     1       0.049  -8.107  -4.943  0.00  0.00    -0.011 A 
ATOM     23  C   UNL     1       0.940  -7.109  -4.684  0.00  0.00    -0.054 A 
ATOM     24  C   UNL     1       1.737  -6.696  -5.749  0.00  0.00    +0.009 A 
ATOM     25  C   UNL     1       1.600  -7.279  -6.963  0.00  0.00    +0.045 A 
ATOM     26  S   UNL     1       0.305  -8.471  -6.655  0.00  0.00    -0.101 S 
ATOM     27  C   UNL     1       1.013  -6.512  -3.282  0.00  0.00    -0.042 C 
ATOM     28  H   UNL     1      -1.003  -6.365  -3.030  0.00  0.00    -0.081 HD
ENDBRANCH  18  19
ENDBRANCH   2  18
TORSDOF 5
