REMARK  Name = ZINC02729228
REMARK  7 active torsions:
REMARK  status: ('A' for Active; 'I' for Inactive)
REMARK    1  A    between atoms: C_4  and  C_7
REMARK    2  A    between atoms: C_7  and  C_8
REMARK    3  A    between atoms: C_8  and  N_9
REMARK    4  A    between atoms: C_10  and  C_23
REMARK    5  A    between atoms: N_14  and  C_17
REMARK    6  A    between atoms: C_23  and  C_24
REMARK    7  A    between atoms: N_26  and  C_27
REMARK                            x       y       z     vdW  Elec       q    Type
REMARK                         _______ _______ _______ _____ _____    ______ ____
ROOT
ATOM      1  N   UNL     1       2.649   0.134   0.839  0.00  0.00    -0.300 N 
ATOM      2  C   UNL     1       2.445   1.002  -0.334  0.00  0.00    +0.171 C 
ATOM      3  C   UNL     1       3.784   1.690  -0.505  0.00  0.00    +0.246 C 
ATOM      4  O   UNL     1       4.088   2.502  -1.353  0.00  0.00    -0.273 OA
ATOM      5  N   UNL     1       4.569   1.212   0.480  0.00  0.00    -0.220 N 
ATOM      6  C   UNL     1       3.918   0.326   1.243  0.00  0.00    +0.147 C 
ATOM      7  S   UNL     1       4.620  -0.475   2.583  0.00  0.00    -0.018 S 
ENDROOT
BRANCH   5   8
ATOM      8  C   UNL     1       5.902   1.594   0.682  0.00  0.00    +0.043 A 
ATOM      9  C   UNL     1       6.869   1.270  -0.261  0.00  0.00    +0.024 A 
ATOM     10  C   UNL     1       8.181   1.652  -0.062  0.00  0.00    +0.002 A 
ATOM     11  C   UNL     1       8.534   2.348   1.079  0.00  0.00    +0.000 A 
ATOM     12  C   UNL     1       7.575   2.667   2.023  0.00  0.00    +0.002 A 
ATOM     13  C   UNL     1       6.260   2.292   1.827  0.00  0.00    +0.024 A 
ENDBRANCH   5   8
BRANCH   1  14
ATOM     14  C   UNL     1       1.663  -0.763   1.446  0.00  0.00    +0.112 C 
BRANCH  14  15
ATOM     15  C   UNL     1       1.837  -2.173   0.878  0.00  0.00    +0.054 C 
BRANCH  15  19
ATOM     16  C   UNL     1      -1.038  -4.788   2.649  0.00  0.00    +0.000 A 
ATOM     17  C   UNL     1      -1.347  -4.108   1.486  0.00  0.00    +0.000 A 
ATOM     18  C   UNL     1      -0.416  -3.261   0.913  0.00  0.00    +0.004 A 
ATOM     19  C   UNL     1       0.823  -3.095   1.503  0.00  0.00    -0.046 A 
ATOM     20  C   UNL     1       1.133  -3.780   2.663  0.00  0.00    +0.004 A 
ATOM     21  C   UNL     1       0.201  -4.622   3.240  0.00  0.00    +0.000 A 
ENDBRANCH  15  19
ENDBRANCH  14  15
ENDBRANCH   1  14
BRANCH   2  22
ATOM     22  C   UNL     1       1.344   2.028  -0.059  0.00  0.00    +0.128 C 
BRANCH  22  23
ATOM     23  C   UNL     1       1.139   2.885  -1.282  0.00  0.00    +0.219 C 
ATOM     24  O   UNL     1       1.845   2.731  -2.256  0.00  0.00    -0.275 OA
ATOM     25  N   UNL     1       0.173   3.825  -1.292  0.00  0.00    -0.285 N 
ATOM     26  H   UNL     1      -0.418   4.016  -0.384  0.00  0.00    +0.155 HD
BRANCH  25  27
ATOM     27  C   UNL     1      -0.076   4.560  -2.457  0.00  0.00    +0.034 A 
ATOM     28  C   UNL     1      -0.479   5.886  -2.370  0.00  0.00    +0.026 A 
ATOM     29  C   UNL     1      -0.721   6.611  -3.521  0.00  0.00    +0.040 A 
ATOM     30  C   UNL     1      -0.571   6.013  -4.761  0.00  0.00    +0.124 A 
ATOM     31  C   UNL     1      -0.174   4.689  -4.850  0.00  0.00    +0.040 A 
ATOM     32  C   UNL     1       0.073   3.962  -3.701  0.00  0.00    +0.026 A 
ATOM     33  F   UNL     1      -0.813   6.721  -5.885  0.00  0.00    -0.205 F 
ENDBRANCH  25  27
ENDBRANCH  22  23
ENDBRANCH   2  22
TORSDOF 7
