REMARK  Name = ZINC42390936
REMARK  6 active torsions:
REMARK  status: ('A' for Active; 'I' for Inactive)
REMARK    1  A    between atoms: C_1  and  N_2
REMARK    2  A    between atoms: C_3  and  C_5
REMARK    3  A    between atoms: N_10  and  C_11
REMARK    4  A    between atoms: C_11  and  C_12
REMARK    5  A    between atoms: N_14  and  C_15
REMARK    6  A    between atoms: C_17  and  N_22
REMARK                            x       y       z     vdW  Elec       q    Type
REMARK                         _______ _______ _______ _____ _____    ______ ____
ROOT
ATOM      1  C   UNL     1      -4.200  -3.954  -1.224  0.00  0.00    +0.201 C 
ATOM      2  O   UNL     1      -4.956  -3.620  -0.337  0.00  0.00    -0.278 OA
ATOM      3  N   UNL     1      -4.649  -4.718  -2.240  0.00  0.00    -0.285 N 
ATOM      4  H   UNL     1      -4.062  -4.932  -2.982  0.00  0.00    +0.155 HD
ENDROOT
BRANCH   3   5
ATOM      5  C   UNL     1      -5.962  -5.203  -2.223  0.00  0.00    +0.071 A 
ATOM      6  C   UNL     1      -6.980  -4.434  -1.677  0.00  0.00    +0.049 A 
ATOM      7  C   UNL     1      -8.280  -4.918  -1.663  0.00  0.00    +0.026 A 
ATOM      8  C   UNL     1      -8.561  -6.170  -2.196  0.00  0.00    +0.025 A 
ATOM      9  C   UNL     1      -7.546  -6.934  -2.740  0.00  0.00    +0.042 A 
ATOM     10  C   UNL     1      -6.250  -6.454  -2.760  0.00  0.00    +0.145 A 
ATOM     11  F   UNL     1      -5.261  -7.201  -3.297  0.00  0.00    -0.204 F 
BRANCH   7  12
ATOM     12  N   UNL     1      -9.308  -4.145  -1.113  0.00  0.00    -0.358 N 
ATOM     13  H   UNL     1      -9.112  -3.271  -0.741  0.00  0.00    +0.142 HD
ATOM     14  H   UNL     1     -10.217  -4.484  -1.104  0.00  0.00    +0.142 HD
ENDBRANCH   7  12
ENDBRANCH   3   5
BRANCH   1  15
ATOM     15  C   UNL     1      -2.758  -3.516  -1.191  0.00  0.00    +0.020 C 
BRANCH  15  20
ATOM     16  C   UNL     1      -1.146  -2.170  -0.017  0.00  0.00    +0.020 C 
ATOM     17  C   UNL     1      -0.432  -2.684   1.251  0.00  0.00    -0.008 C 
ATOM     18  C   UNL     1      -1.609  -3.007   2.209  0.00  0.00    -0.020 C 
ATOM     19  C   UNL     1      -2.680  -3.534   1.222  0.00  0.00    -0.077 C 
ATOM     20  N   UNL     1      -2.522  -2.700   0.008  0.00  0.00    +0.393 N 
ATOM     21  H   UNL     1      -3.180  -1.936   0.032  0.00  0.00    -0.080 HD
BRANCH  16  24
ATOM     22  C   UNL     1      -0.055   1.499  -0.020  0.00  0.00    +0.128 C 
ATOM     23  N   UNL     1      -0.025   0.035  -0.025  0.00  0.00    -0.320 N 
ATOM     24  C   UNL     1      -1.177  -0.663  -0.012  0.00  0.00    +0.199 C 
ATOM     25  O   UNL     1      -2.240  -0.079   0.003  0.00  0.00    -0.278 OA
ATOM     26  H   UNL     1       0.825  -0.433  -0.037  0.00  0.00    +0.148 HD
ENDBRANCH  16  24
ENDBRANCH  15  20
ENDBRANCH   1  15
TORSDOF 5
