REMARK  Name = ZINC63446532
REMARK  5 active torsions:
REMARK  status: ('A' for Active; 'I' for Inactive)
REMARK    1  A    between atoms: C_4  and  C_7
REMARK    2  A    between atoms: C_11  and  S_20
REMARK    3  A    between atoms: N_13  and  C_14
REMARK    4  A    between atoms: S_20  and  C_21
REMARK    5  A    between atoms: C_21  and  C_22
REMARK                            x       y       z     vdW  Elec       q    Type
REMARK                         _______ _______ _______ _____ _____    ______ ____
ROOT
ATOM      1  C   UNL     1       3.878  -0.818  -0.153  0.00  0.00    +0.188 C 
ATOM      2  N   UNL     1       4.860   0.060   0.524  0.00  0.00    -0.230 NA
ATOM      3  N   UNL     1       4.689  -0.235   1.955  0.00  0.00    -0.226 NA
ATOM      4  C   UNL     1       4.440  -1.701   1.966  0.00  0.00    +0.217 C 
ATOM      5  N   UNL     1       3.611  -1.939   0.765  0.00  0.00    -0.284 N 
ATOM      6  H   UNL     1       5.800  -0.148   0.222  0.00  0.00    +0.143 HD
ATOM      7  H   UNL     1       5.523  -0.007   2.474  0.00  0.00    +0.143 HD
ENDROOT
BRANCH   1  11
ATOM      8  C   UNL     1       0.271   1.340  -0.916  0.00  0.00    +0.000 A 
ATOM      9  C   UNL     1       0.761   1.248   0.373  0.00  0.00    +0.000 A 
ATOM     10  C   UNL     1       1.929   0.549   0.620  0.00  0.00    +0.007 A 
ATOM     11  C   UNL     1       2.605  -0.057  -0.422  0.00  0.00    -0.012 A 
ATOM     12  C   UNL     1       2.114   0.035  -1.711  0.00  0.00    +0.007 A 
ATOM     13  C   UNL     1       0.948   0.735  -1.958  0.00  0.00    +0.000 A 
ENDBRANCH   1  11
BRANCH   5  14
ATOM     14  C   UNL     1       2.747  -3.013   0.544  0.00  0.00    +0.033 A 
ATOM     15  C   UNL     1       1.939  -3.036  -0.586  0.00  0.00    +0.023 A 
ATOM     16  C   UNL     1       1.086  -4.100  -0.802  0.00  0.00    +0.002 A 
ATOM     17  C   UNL     1       1.034  -5.142   0.105  0.00  0.00    +0.000 A 
ATOM     18  C   UNL     1       1.837  -5.122   1.232  0.00  0.00    +0.002 A 
ATOM     19  C   UNL     1       2.696  -4.064   1.451  0.00  0.00    +0.023 A 
ENDBRANCH   5  14
BRANCH   4  20
ATOM     20  S   UNL     1       3.540  -2.180   3.467  0.00  0.00    -0.118 S 
BRANCH  20  21
ATOM     21  C   UNL     1       2.013  -1.204   3.394  0.00  0.00    +0.119 C 
BRANCH  21  22
ATOM     22  C   UNL     1       1.149  -1.517   4.617  0.00  0.00    +0.184 C 
ATOM     23  N   UNL     1       1.904  -1.250   5.848  0.00  0.00    -0.363 N 
ATOM     24  C   UNL     1       1.992  -2.371   6.504  0.00  0.00    +0.060 A 
ATOM     25  C   UNL     1       2.617  -2.734   7.783  0.00  0.00    +0.027 A 
ATOM     26  C   UNL     1       2.545  -4.007   8.221  0.00  0.00    +0.002 A 
ATOM     27  C   UNL     1       1.890  -5.021   7.499  0.00  0.00    +0.002 A 
ATOM     28  C   UNL     1       1.285  -4.796   6.316  0.00  0.00    +0.027 A 
ATOM     29  C   UNL     1       1.298  -3.444   5.740  0.00  0.00    +0.060 A 
ATOM     30  N   UNL     1       0.808  -2.945   4.643  0.00  0.00    -0.363 N 
ATOM     31  H   UNL     1       2.270  -0.394   6.123  0.00  0.00    +0.162 HD
ATOM     32  H   UNL     1       0.309  -3.427   3.965  0.00  0.00    +0.162 HD
ENDBRANCH  21  22
ENDBRANCH  20  21
ENDBRANCH   4  20
TORSDOF 5
