REMARK  Name = ZINC40404063
REMARK  14 active torsions:
REMARK  status: ('A' for Active; 'I' for Inactive)
REMARK    1  A    between atoms: C_1  and  C_2
REMARK    2  A    between atoms: C_2  and  C_3
REMARK    3  A    between atoms: C_2  and  C_4
REMARK    4  A    between atoms: C_2  and  O_5
REMARK    5  A    between atoms: O_5  and  C_6
REMARK    6  A    between atoms: C_6  and  C_7
REMARK    7  A    between atoms: C_7  and  C_9
REMARK    8  A    between atoms: C_7  and  O_34
REMARK    9  A    between atoms: C_9  and  N_10
REMARK   10  A    between atoms: N_10  and  C_11
REMARK   11  A    between atoms: N_10  and  C_19
REMARK   12  A    between atoms: C_11  and  C_12
REMARK   13  A    between atoms: C_19  and  C_20
REMARK   14  A    between atoms: C_23  and  C_26
REMARK                            x       y       z     vdW  Elec       q    Type
REMARK                         _______ _______ _______ _____ _____    ______ ____
ROOT
ATOM      1  N   UNL     1       4.441  -0.483  -4.274  0.00  0.00    +0.387 N 
ATOM      2  H   UNL     1       3.747  -0.282  -4.978  0.00  0.00    -0.081 HD
ENDROOT
BRANCH   1   3
ATOM      3  C   UNL     1       4.051   0.147  -3.006  0.00  0.00    -0.044 C 
BRANCH   3   4
ATOM      4  C   UNL     1       3.802   1.639  -3.234  0.00  0.00    +0.124 C 
BRANCH   4   5
ATOM      5  O   UNL     1       2.751   1.806  -4.187  0.00  0.00    -0.391 OA
ATOM      6  H   UNL     1       1.891   1.481  -3.886  0.00  0.00    +0.210 HD
ENDBRANCH   4   5
BRANCH   4   7
ATOM      7  C   UNL     1       3.400   2.296  -1.912  0.00  0.00    +0.189 C 
BRANCH   7   8
ATOM      8  O   UNL     1       3.281   3.708  -2.099  0.00  0.00    -0.372 OA
BRANCH   8  10
ATOM      9  C   UNL     1       3.962   4.197   0.168  0.00  0.00    +0.041 C 
ATOM     10  C   UNL     1       2.907   4.421  -0.918  0.00  0.00    +0.061 C 
ATOM     11  C   UNL     1       1.551   3.915  -0.423  0.00  0.00    +0.041 C 
ATOM     12  C   UNL     1       2.810   5.915  -1.234  0.00  0.00    +0.041 C 
ENDBRANCH   8  10
ENDBRANCH   7   8
ENDBRANCH   4   7
ENDBRANCH   3   4
ENDBRANCH   1   3
BRANCH   1  13
ATOM     13  C   UNL     1       4.543  -1.937  -4.088  0.00  0.00    -0.040 C 
BRANCH  13  14
ATOM     14  C   UNL     1       3.180  -2.499  -3.774  0.00  0.00    -0.029 A 
ATOM     15  C   UNL     1       2.860  -2.849  -2.475  0.00  0.00    +0.004 A 
ATOM     16  C   UNL     1       1.610  -3.364  -2.187  0.00  0.00    +0.000 A 
ATOM     17  C   UNL     1       0.679  -3.531  -3.196  0.00  0.00    +0.003 A 
ATOM     18  C   UNL     1       0.998  -3.182  -4.494  0.00  0.00    +0.038 A 
ATOM     19  C   UNL     1       2.247  -2.660  -4.784  0.00  0.00    +0.125 A 
ATOM     20  F   UNL     1       2.558  -2.314  -6.052  0.00  0.00    -0.205 F 
ENDBRANCH  13  14
ENDBRANCH   1  13
BRANCH   1  21
ATOM     21  C   UNL     1       5.742   0.047  -4.705  0.00  0.00    -0.030 C 
BRANCH  21  22
ATOM     22  C   UNL     1       6.090  -0.514  -6.085  0.00  0.00    +0.194 C 
ATOM     23  C   UNL     1       7.479  -0.015  -6.551  0.00  0.00    +0.104 C 
ATOM     24  C   UNL     1       7.268   0.203  -8.038  0.00  0.00    +0.091 C 
ATOM     25  N   UNL     1       5.997   0.215  -8.269  0.00  0.00    -0.089 NA
ATOM     26  O   UNL     1       5.224   0.033  -7.099  0.00  0.00    -0.392 OA
BRANCH  24  27
ATOM     27  C   UNL     1       8.332   0.373  -9.047  0.00  0.00    +0.001 A 
ATOM     28  C   UNL     1       9.674   0.335  -8.663  0.00  0.00    +0.011 A 
ATOM     29  C   UNL     1      10.664   0.494  -9.610  0.00  0.00    +0.022 A 
ATOM     30  C   UNL     1      10.330   0.691 -10.939  0.00  0.00    +0.059 A 
ATOM     31  C   UNL     1       9.000   0.730 -11.327  0.00  0.00    +0.060 A 
ATOM     32  C   UNL     1       8.000   0.567 -10.389  0.00  0.00    +0.031 A 
ATOM     33 CL   UNL     1       8.591   0.979 -12.995  0.00  0.00    -0.082 Cl
ATOM     34 CL   UNL     1      11.582   0.891 -12.124  0.00  0.00    -0.082 Cl
ENDBRANCH  24  27
ENDBRANCH  21  22
ENDBRANCH   1  21
TORSDOF 11
