REMARK  Name = ZINC45805420
REMARK  12 active torsions:
REMARK  status: ('A' for Active; 'I' for Inactive)
REMARK    1  A    between atoms: C_1  and  C_2
REMARK    2  A    between atoms: C_2  and  C_3
REMARK    3  A    between atoms: C_3  and  C_4
REMARK    4  A    between atoms: C_4  and  N_5
REMARK    5  A    between atoms: N_5  and  C_6
REMARK    6  A    between atoms: N_5  and  C_10
REMARK    7  A    between atoms: C_6  and  C_7
REMARK    8  A    between atoms: C_10  and  C_11
REMARK    9  A    between atoms: N_13  and  C_14
REMARK   10  A    between atoms: C_14  and  C_15
REMARK   11  A    between atoms: N_17  and  C_18
REMARK   12  A    between atoms: C_23  and  C_24
REMARK                            x       y       z     vdW  Elec       q    Type
REMARK                         _______ _______ _______ _____ _____    ______ ____
ROOT
ATOM      1  C   UNL     1      -4.885  -4.682  -0.399  0.00  0.00    +0.197 C 
ATOM      2  O   UNL     1      -5.837  -3.950  -0.564  0.00  0.00    -0.278 OA
ATOM      3  N   UNL     1      -5.040  -6.018  -0.482  0.00  0.00    -0.308 N 
ATOM      4  H   UNL     1      -4.278  -6.604  -0.350  0.00  0.00    +0.149 HD
ENDROOT
BRANCH   1   5
ATOM      5  C   UNL     1      -3.528  -4.098  -0.101  0.00  0.00    +0.019 C 
BRANCH   5   6
ATOM      6  N   UNL     1      -3.623  -2.632  -0.064  0.00  0.00    +0.391 N 
ATOM      7  H   UNL     1      -4.023  -2.299  -0.928  0.00  0.00    -0.080 HD
BRANCH   6   8
ATOM      8  C   UNL     1      -2.281  -2.059   0.108  0.00  0.00    -0.078 C 
BRANCH   8   9
ATOM      9  C   UNL     1      -1.432  -2.371  -1.125  0.00  0.00    -0.019 C 
BRANCH   9  11
ATOM     10  C   UNL     1       0.769  -1.974  -2.241  0.00  0.00    +0.004 C 
ATOM     11  C   UNL     1      -0.081  -1.662  -1.007  0.00  0.00    -0.005 C 
ENDBRANCH   9  11
ENDBRANCH   8   9
ENDBRANCH   6   8
BRANCH   6  12
ATOM     12  C   UNL     1      -4.477  -2.225   1.060  0.00  0.00    +0.019 C 
BRANCH  12  13
ATOM     13  C   UNL     1      -4.729  -0.741   0.988  0.00  0.00    +0.194 C 
ATOM     14  O   UNL     1      -4.201  -0.078   0.120  0.00  0.00    -0.278 OA
ATOM     15  N   UNL     1      -5.540  -0.151   1.888  0.00  0.00    -0.331 N 
ATOM     16  H   UNL     1      -5.962  -0.681   2.582  0.00  0.00    +0.145 HD
ATOM     17  H   UNL     1      -5.702   0.804   1.841  0.00  0.00    +0.145 HD
ENDBRANCH  12  13
ENDBRANCH   6  12
ENDBRANCH   5   6
ENDBRANCH   1   5
BRANCH   3  18
ATOM     18  C   UNL     1      -6.359  -6.586  -0.772  0.00  0.00    +0.200 C 
BRANCH  18  19
ATOM     19  C   UNL     1      -6.261  -8.089  -0.810  0.00  0.00    +0.234 C 
ATOM     20  O   UNL     1      -5.195  -8.633  -0.614  0.00  0.00    -0.274 OA
ATOM     21  N   UNL     1      -7.359  -8.830  -1.062  0.00  0.00    -0.284 N 
ATOM     22  H   UNL     1      -8.196  -8.395  -1.286  0.00  0.00    +0.155 HD
BRANCH  21  23
ATOM     23  C   UNL     1      -7.290 -10.226  -0.999  0.00  0.00    +0.038 A 
ATOM     24  C   UNL     1      -6.084 -10.874  -1.232  0.00  0.00    +0.023 A 
ATOM     25  C   UNL     1      -6.019 -12.252  -1.170  0.00  0.00    +0.003 A 
ATOM     26  C   UNL     1      -7.153 -12.987  -0.876  0.00  0.00    +0.020 A 
ATOM     27  C   UNL     1      -8.356 -12.345  -0.643  0.00  0.00    +0.046 A 
ATOM     28  C   UNL     1      -8.426 -10.965  -0.699  0.00  0.00    -0.011 A 
ATOM     29  C   UNL     1      -9.735 -10.265  -0.439  0.00  0.00    +0.047 C 
ATOM     30 CL   UNL     1      -9.778 -13.271  -0.275  0.00  0.00    -0.083 Cl
ENDBRANCH  21  23
ENDBRANCH  18  19
ENDBRANCH   3  18
TORSDOF 10
