REMARK  Name = ZINC40226852
REMARK  5 active torsions:
REMARK  status: ('A' for Active; 'I' for Inactive)
REMARK    1  A    between atoms: C_10  and  N_12
REMARK    2  A    between atoms: N_12  and  C_13
REMARK    3  A    between atoms: C_13  and  C_14
REMARK    4  A    between atoms: C_14  and  S_15
REMARK    5  A    between atoms: S_15  and  N_18
REMARK                            x       y       z     vdW  Elec       q    Type
REMARK                         _______ _______ _______ _____ _____    ______ ____
ROOT
ATOM      1  N   UNL     1       3.918   3.057  -0.974  0.00  0.00    +0.385 N 
ATOM      2  H   UNL     1       3.841   2.704  -1.917  0.00  0.00    -0.085 HD
ATOM      3  H   UNL     1       3.181   3.725  -0.805  0.00  0.00    -0.085 HD
ENDROOT
BRANCH   1  13
ATOM      4  C   UNL     1       0.021   1.188  -0.210  0.00  0.00    +0.015 A 
ATOM      5  C   UNL     1       1.170   1.952  -0.154  0.00  0.00    +0.003 A 
ATOM      6  C   UNL     1       2.411   1.341  -0.092  0.00  0.00    -0.058 A 
ATOM      7  C   UNL     1       2.499  -0.038  -0.086  0.00  0.00    -0.045 A 
ATOM      8  C   UNL     1       1.347  -0.803  -0.142  0.00  0.00    +0.019 A 
ATOM      9  C   UNL     1       0.109  -0.192  -0.205  0.00  0.00    +0.018 A 
ATOM     10 BR   UNL     1      -1.462  -1.241  -0.282  0.00  0.00    -0.050 Br
ATOM     11  C   UNL     1       3.952  -0.457  -0.014  0.00  0.00    +0.034 C 
ATOM     12  C   UNL     1       4.755   0.798  -0.416  0.00  0.00    -0.007 C 
ATOM     13  C   UNL     1       3.798   1.944  -0.023  0.00  0.00    -0.040 C 
ENDBRANCH   1  13
BRANCH   1  14
ATOM     14  C   UNL     1       5.221   3.711  -0.801  0.00  0.00    -0.057 C 
BRANCH  14  15
ATOM     15  C   UNL     1       5.297   4.946  -1.701  0.00  0.00    +0.166 C 
BRANCH  15  16
ATOM     16  S   UNL     1       6.907   5.753  -1.487  0.00  0.00    +0.025 S 
ATOM     17  O   UNL     1       7.005   6.310  -0.183  0.00  0.00    -0.158 OA
ATOM     18  O   UNL     1       7.941   4.927  -2.001  0.00  0.00    -0.158 OA
BRANCH  16  19
ATOM     19  N   UNL     1       6.865   7.061  -2.503  0.00  0.00    -0.208 NA
ATOM     20  H   UNL     1       7.367   7.861  -2.283  0.00  0.00    +0.144 HD
ATOM     21  H   UNL     1       6.340   7.026  -3.317  0.00  0.00    +0.144 HD
ENDBRANCH  16  19
ENDBRANCH  15  16
ENDBRANCH  14  15
ENDBRANCH   1  14
TORSDOF 5
