REMARK  Name = ZINC21323013
REMARK  9 active torsions:
REMARK  status: ('A' for Active; 'I' for Inactive)
REMARK    1  A    between atoms: C_1  and  C_2
REMARK    2  A    between atoms: C_2  and  C_23
REMARK    3  A    between atoms: N_3  and  N_4
REMARK    4  A    between atoms: C_8  and  S_11
REMARK    5  A    between atoms: N_9  and  N_10
REMARK    6  A    between atoms: S_11  and  C_12
REMARK    7  A    between atoms: C_12  and  C_13
REMARK    8  A    between atoms: N_15  and  C_16
REMARK    9  A    between atoms: C_16  and  C_17
REMARK                            x       y       z     vdW  Elec       q    Type
REMARK                         _______ _______ _______ _____ _____    ______ ____
ROOT
ATOM      1  N   UNL     1       0.166  -6.834   7.489  0.00  0.00    -0.204 N 
ATOM      2  C   UNL     1       0.143  -5.766   6.604  0.00  0.00    +0.254 A 
ATOM      3  N   UNL     1       0.129  -4.496   6.928  0.00  0.00    -0.109 NA
ATOM      4  N   UNL     1       0.113  -3.747   5.744  0.00  0.00    -0.119 NA
ATOM      5  C   UNL     1       0.109  -4.585   4.735  0.00  0.00    +0.210 A 
ATOM      6  N   UNL     1       0.131  -5.854   5.239  0.00  0.00    -0.211 N 
ATOM      7  H   UNL     1       0.176  -7.865   7.107  0.00  0.00    +0.178 HD
ENDROOT
BRANCH   1  10
ATOM      8  C   UNL     1       0.210  -9.011   9.176  0.00  0.00    +0.068 C 
ATOM      9  C   UNL     1       0.197  -7.598   9.700  0.00  0.00    +0.063 C 
ATOM     10  N   UNL     1       0.175  -6.598   8.870  0.00  0.00    -0.184 NA
BRANCH   9  11
ATOM     11  C   UNL     1       0.207  -7.350  11.153  0.00  0.00    -0.002 A 
ATOM     12  C   UNL     1       0.224  -8.423  12.048  0.00  0.00    +0.011 A 
ATOM     13  C   UNL     1       0.238  -8.184  13.406  0.00  0.00    +0.016 A 
ATOM     14  C   UNL     1       0.226  -6.884  13.883  0.00  0.00    +0.018 A 
ATOM     15  C   UNL     1       0.204  -5.816  13.002  0.00  0.00    +0.016 A 
ATOM     16  C   UNL     1       0.194  -6.041  11.641  0.00  0.00    +0.011 A 
ATOM     17 BR   UNL     1       0.239  -6.566  15.747  0.00  0.00    -0.050 Br
ENDBRANCH   9  11
ENDBRANCH   1  10
BRANCH   6  18
ATOM     18  N   UNL     1       0.141  -7.009   4.509  0.00  0.00    -0.294 N 
ATOM     19  H   UNL     1       0.130  -6.964   3.410  0.00  0.00    +0.163 HD
ATOM     20  H   UNL     1       0.159  -7.982   5.020  0.00  0.00    +0.163 HD
ENDBRANCH   6  18
BRANCH   5  21
ATOM     21  S   UNL     1       0.087  -4.150   3.027  0.00  0.00    -0.075 S 
BRANCH  21  22
ATOM     22  C   UNL     1       0.063  -2.336   3.037  0.00  0.00    +0.173 C 
BRANCH  22  23
ATOM     23  C   UNL     1       0.042  -1.826   1.619  0.00  0.00    +0.224 C 
ATOM     24  O   UNL     1       0.044  -2.609   0.693  0.00  0.00    -0.275 OA
ATOM     25  N   UNL     1       0.022  -0.500   1.381  0.00  0.00    -0.311 N 
ATOM     26  H   UNL     1       0.020   0.210   2.220  0.00  0.00    +0.149 HD
BRANCH  25  27
ATOM     27  C   UNL     1       0.002  -0.004   0.002  0.00  0.00    +0.139 C 
BRANCH  27  28
ATOM     28  C   UNL     1      -0.018   1.503   0.010  0.00  0.00    -0.030 A 
ATOM     29  C   UNL     1      -1.225   2.178   0.020  0.00  0.00    +0.005 A 
ATOM     30  C   UNL     1      -1.244   3.560   0.032  0.00  0.00    +0.000 A 
ATOM     31  C   UNL     1      -0.056   4.267   0.025  0.00  0.00    +0.000 A 
ATOM     32  C   UNL     1       1.151   3.592   0.010  0.00  0.00    +0.000 A 
ATOM     33  C   UNL     1       1.169   2.210   0.003  0.00  0.00    +0.005 A 
ENDBRANCH  27  28
ENDBRANCH  25  27
ENDBRANCH  22  23
ENDBRANCH  21  22
ENDBRANCH   5  21
TORSDOF 8
