REMARK  Name = ZINC20494794
REMARK  5 active torsions:
REMARK  status: ('A' for Active; 'I' for Inactive)
REMARK    1  A    between atoms: C_5  and  C_7
REMARK    2  A    between atoms: C_7  and  C_9
REMARK    3  A    between atoms: C_11  and  N_19
REMARK    4  A    between atoms: C_20  and  C_22
REMARK    5  A    between atoms: C_22  and  N_23
REMARK                            x       y       z     vdW  Elec       q    Type
REMARK                         _______ _______ _______ _____ _____    ______ ____
ROOT
ATOM      1  C   UNL     1       0.011   1.432  -0.193  0.00  0.00    +0.069 A 
ATOM      2  C   UNL     1      -0.023   0.042  -0.340  0.00  0.00    +0.039 A 
ATOM      3  C   UNL     1       1.129  -0.699  -0.148  0.00  0.00    +0.038 A 
ATOM      4  C   UNL     1       2.320  -0.066   0.191  0.00  0.00    +0.072 A 
ATOM      5  C   UNL     1       2.363   1.311   0.340  0.00  0.00    +0.165 A 
ATOM      6  C   UNL     1       1.213   2.067   0.147  0.00  0.00    +0.173 A 
ATOM      7  O   UNL     1       1.238   3.419   0.281  0.00  0.00    -0.484 OA
ATOM      8  C   UNL     1       2.354   3.977   0.983  0.00  0.00    +0.270 C 
ATOM      9  C   UNL     1       3.634   3.318   0.451  0.00  0.00    +0.270 C 
ATOM     10  O   UNL     1       3.540   1.908   0.677  0.00  0.00    -0.485 OA
ENDROOT
BRANCH   3  11
ATOM     11  N   UNL     1       1.096  -2.092  -0.296  0.00  0.00    -0.287 N 
ATOM     12  C   UNL     1       0.006  -2.785   0.090  0.00  0.00    +0.200 C 
ATOM     13  O   UNL     1      -0.977  -2.197   0.489  0.00  0.00    -0.278 OA
ATOM     14  H   UNL     1       1.959  -2.620  -0.727  0.00  0.00    +0.155 HD
BRANCH  12  15
ATOM     15  C   UNL     1       0.010  -4.291   0.027  0.00  0.00    +0.011 C 
BRANCH  15  16
ATOM     16  N   UNL     1      -1.284  -4.804   0.498  0.00  0.00    +0.384 N 
ATOM     17  H   UNL     1      -1.282  -5.903   0.452  0.00  0.00    -0.089 HD
ATOM     18  H   UNL     1      -2.088  -4.412  -0.141  0.00  0.00    -0.089 HD
ATOM     19  H   UNL     1      -1.450  -4.481   1.536  0.00  0.00    -0.089 HD
ENDBRANCH  15  16
ENDBRANCH  12  15
ENDBRANCH   3  11
BRANCH   1  20
ATOM     20  C   UNL     1      -1.213   2.228  -0.402  0.00  0.00    +0.198 C 
ATOM     21  O   UNL     1      -1.629   2.418  -1.528  0.00  0.00    -0.286 OA
BRANCH  20  26
ATOM     22  C   UNL     1      -2.199   3.018   3.134  0.00  0.00    +0.001 A 
ATOM     23  C   UNL     1      -3.283   3.855   2.931  0.00  0.00    +0.001 A 
ATOM     24  C   UNL     1      -3.696   4.164   1.648  0.00  0.00    +0.016 A 
ATOM     25  C   UNL     1      -3.028   3.639   0.559  0.00  0.00    +0.029 A 
ATOM     26  C   UNL     1      -1.933   2.794   0.757  0.00  0.00    +0.036 A 
ATOM     27  C   UNL     1      -1.526   2.482   2.057  0.00  0.00    +0.013 A 
ATOM     28 BR   UNL     1      -3.594   4.063  -1.195  0.00  0.00    -0.050 Br
ENDBRANCH  20  26
ENDBRANCH   1  20
TORSDOF 5
