REMARK  Name = ZINC40704067
REMARK  5 active torsions:
REMARK  status: ('A' for Active; 'I' for Inactive)
REMARK    1  A    between atoms: C_1  and  N_2
REMARK    2  A    between atoms: N_2  and  C_3
REMARK    3  A    between atoms: C_10  and  N_24
REMARK    4  A    between atoms: C_11  and  N_15
REMARK    5  A    between atoms: N_15  and  C_16
REMARK                            x       y       z     vdW  Elec       q    Type
REMARK                         _______ _______ _______ _____ _____    ______ ____
ROOT
ATOM      1  C   UNL     1       0.036   0.492   0.786  0.00  0.00    +0.137 C 
ATOM      2  N   UNL     1      -1.073   0.534  -0.170  0.00  0.00    -0.287 N 
ATOM      3  C   UNL     1      -1.007  -0.207  -1.345  0.00  0.00    +0.151 A 
ATOM      4  C   UNL     1      -0.374   0.311  -2.476  0.00  0.00    +0.104 A 
ATOM      5  C   UNL     1      -0.337  -0.475  -3.629  0.00  0.00    +0.126 A 
ATOM      6  N   UNL     1      -0.902  -1.680  -3.606  0.00  0.00    -0.333 N 
ATOM      7  C   UNL     1      -1.490  -2.132  -2.517  0.00  0.00    +0.200 A 
ATOM      8  N   UNL     1      -1.542  -1.425  -1.406  0.00  0.00    -0.220 NA
ATOM      9  H   UNL     1      -0.881  -2.234  -4.402  0.00  0.00    +0.168 HD
ENDROOT
BRANCH   2  10
ATOM     10  C   UNL     1      -2.197   1.319   0.098  0.00  0.00    +0.035 A 
ATOM     11  C   UNL     1      -3.288   1.290  -0.761  0.00  0.00    +0.023 A 
ATOM     12  C   UNL     1      -4.398   2.068  -0.493  0.00  0.00    +0.002 A 
ATOM     13  C   UNL     1      -4.423   2.874   0.630  0.00  0.00    +0.000 A 
ATOM     14  C   UNL     1      -3.339   2.906   1.488  0.00  0.00    +0.002 A 
ATOM     15  C   UNL     1      -2.229   2.127   1.228  0.00  0.00    +0.023 A 
ENDBRANCH   2  10
BRANCH   4  16
ATOM     16  N   UNL     1       0.209   1.588  -2.455  0.00  0.00    -0.353 N 
ATOM     17  H   UNL     1       0.109   2.154  -1.673  0.00  0.00    +0.143 HD
ATOM     18  H   UNL     1       0.711   1.905  -3.222  0.00  0.00    +0.143 HD
ENDBRANCH   4  16
BRANCH   5  19
ATOM     19  N   UNL     1       0.281  -0.007  -4.783  0.00  0.00    -0.299 N 
ATOM     20  H   UNL     1       0.773   0.829  -4.765  0.00  0.00    +0.154 HD
BRANCH  19  21
ATOM     21  C   UNL     1       0.194  -0.741  -5.970  0.00  0.00    +0.034 A 
ATOM     22  C   UNL     1      -0.993  -1.382  -6.306  0.00  0.00    +0.025 A 
ATOM     23  C   UNL     1      -1.077  -2.106  -7.479  0.00  0.00    +0.023 A 
ATOM     24  C   UNL     1       0.018  -2.195  -8.319  0.00  0.00    +0.059 A 
ATOM     25  C   UNL     1       1.202  -1.558  -7.987  0.00  0.00    +0.061 A 
ATOM     26  C   UNL     1       1.290  -0.827  -6.817  0.00  0.00    +0.044 A 
ATOM     27 CL   UNL     1       2.575  -1.672  -9.044  0.00  0.00    -0.082 Cl
ATOM     28 CL   UNL     1      -0.091  -3.106  -9.793  0.00  0.00    -0.082 Cl
ENDBRANCH  19  21
ENDBRANCH   5  19
TORSDOF 4
