REMARK  Name = ZINC47612306
REMARK  9 active torsions:
REMARK  status: ('A' for Active; 'I' for Inactive)
REMARK    1  A    between atoms: C_1  and  N_2
REMARK    2  A    between atoms: N_2  and  C_3
REMARK    3  A    between atoms: C_6  and  C_10
REMARK    4  A    between atoms: C_10  and  N_11
REMARK    5  A    between atoms: N_14  and  N_15
REMARK    6  A    between atoms: C_16  and  C_18
REMARK    7  A    between atoms: C_21  and  C_23
REMARK    8  A    between atoms: C_23  and  O_24
REMARK    9  A    between atoms: O_24  and  C_25
REMARK                            x       y       z     vdW  Elec       q    Type
REMARK                         _______ _______ _______ _____ _____    ______ ____
ROOT
ATOM      1  N   UNL     1      -2.372  -4.799   1.393  0.00  0.00    -0.294 N 
ATOM      2  C   UNL     1      -2.383  -6.125   1.637  0.00  0.00    +0.316 C 
ATOM      3  O   UNL     1      -2.398  -6.913   0.712  0.00  0.00    -0.251 OA
ATOM      4  N   UNL     1      -2.378  -6.576   2.908  0.00  0.00    -0.218 N 
ATOM      5  H   UNL     1      -2.360  -4.170   2.131  0.00  0.00    +0.151 HD
ATOM      6  H   UNL     1      -2.387  -7.530   3.083  0.00  0.00    +0.174 HD
ENDROOT
BRANCH   4   7
ATOM      7  N   UNL     1      -2.361  -5.667   3.974  0.00  0.00    -0.227 N 
ATOM      8  C   UNL     1      -2.357  -6.118   5.244  0.00  0.00    +0.295 C 
ATOM      9  O   UNL     1      -2.367  -7.315   5.464  0.00  0.00    -0.265 OA
ATOM     10  H   UNL     1      -2.353  -4.713   3.798  0.00  0.00    +0.173 HD
BRANCH   8  11
ATOM     11  C   UNL     1      -2.339  -5.167   6.360  0.00  0.00    +0.191 A 
ATOM     12  C   UNL     1      -2.327  -5.488   7.687  0.00  0.00    +0.055 A 
ATOM     13  C   UNL     1      -2.311  -4.276   8.395  0.00  0.00    +0.049 A 
ATOM     14  C   UNL     1      -2.314  -3.281   7.480  0.00  0.00    +0.143 A 
ATOM     15  O   UNL     1      -2.326  -3.822   6.255  0.00  0.00    -0.452 OA
BRANCH  14  16
ATOM     16  C   UNL     1      -2.301  -1.806   7.788  0.00  0.00    +0.303 C 
BRANCH  16  17
ATOM     17  O   UNL     1      -0.950  -1.349   7.871  0.00  0.00    -0.484 OA
BRANCH  17  18
ATOM     18  C   UNL     1      -0.760  -0.031   8.144  0.00  0.00    +0.121 A 
ATOM     19  C   UNL     1      -1.852   0.803   8.334  0.00  0.00    +0.045 A 
ATOM     20  C   UNL     1      -1.657   2.143   8.612  0.00  0.00    +0.004 A 
ATOM     21  C   UNL     1      -0.374   2.651   8.700  0.00  0.00    +0.000 A 
ATOM     22  C   UNL     1       0.716   1.822   8.511  0.00  0.00    +0.004 A 
ATOM     23  C   UNL     1       0.525   0.481   8.239  0.00  0.00    +0.045 A 
ENDBRANCH  17  18
ENDBRANCH  16  17
ENDBRANCH  14  16
ENDBRANCH   8  11
ENDBRANCH   4   7
BRANCH   1  24
ATOM     24  C   UNL     1      -2.377  -4.309   0.013  0.00  0.00    +0.141 C 
BRANCH  24  30
ATOM     25  C   UNL     1      -0.018   1.461   0.010  0.00  0.00    +0.130 C 
ATOM     26  N   UNL     1       0.002  -0.004   0.002  0.00  0.00    -0.323 N 
ATOM     27  C   UNL     1       1.281  -0.719  -0.014  0.00  0.00    +0.130 C 
ATOM     28  C   UNL     1      -1.192  -0.715   0.010  0.00  0.00    +0.098 A 
ATOM     29  C   UNL     1      -1.166  -2.107   0.008  0.00  0.00    +0.047 A 
ATOM     30  C   UNL     1      -2.362  -2.802   0.015  0.00  0.00    -0.026 A 
ATOM     31  C   UNL     1      -3.548  -2.080   0.025  0.00  0.00    +0.023 A 
ATOM     32  C   UNL     1      -3.500  -0.700   0.026  0.00  0.00    +0.084 A 
ATOM     33  N   UNL     1      -2.344  -0.063   0.024  0.00  0.00    -0.350 N 
ATOM     34  H   UNL     1      -2.339   0.907   0.029  0.00  0.00    +0.166 HD
ENDBRANCH  24  30
ENDBRANCH   1  24
TORSDOF 7
