REMARK  Name = ZINC03040370
REMARK  14 active torsions:
REMARK  status: ('A' for Active; 'I' for Inactive)
REMARK    1  A    between atoms: C_1  and  C_2
REMARK    2  A    between atoms: C_2  and  C_3
REMARK    3  A    between atoms: C_3  and  C_4
REMARK    4  A    between atoms: C_4  and  N_5
REMARK    5  A    between atoms: N_5  and  C_6
REMARK    6  A    between atoms: N_5  and  C_8
REMARK    7  A    between atoms: C_6  and  C_7
REMARK    8  A    between atoms: C_8  and  C_9
REMARK    9  A    between atoms: C_9  and  C_10
REMARK   10  A    between atoms: C_10  and  N_11
REMARK   11  A    between atoms: C_12  and  C_14
REMARK   12  A    between atoms: N_20  and  C_30
REMARK   13  A    between atoms: C_30  and  C_31
REMARK   14  A    between atoms: C_34  and  C_37
REMARK                            x       y       z     vdW  Elec       q    Type
REMARK                         _______ _______ _______ _____ _____    ______ ____
ROOT
ATOM      1  C   UNL     1       3.984  -8.360   6.335  0.00  0.00    +0.039 A 
ATOM      2  C   UNL     1       4.283  -7.453   7.355  0.00  0.00    +0.014 A 
ATOM      3  C   UNL     1       4.850  -7.905   8.525  0.00  0.00    +0.017 A 
ATOM      4  C   UNL     1       5.125  -9.259   8.696  0.00  0.00    +0.034 A 
ATOM      5  C   UNL     1       4.834 -10.174   7.686  0.00  0.00    +0.051 A 
ATOM      6  C   UNL     1       4.255  -9.718   6.508  0.00  0.00    +0.037 A 
ATOM      7  N   UNL     1       5.099 -11.530   7.811  0.00  0.00    -0.262 N 
ATOM      8  C   UNL     1       4.881 -12.350   8.805  0.00  0.00    +0.252 C 
ATOM      9  O   UNL     1       5.205 -13.506   8.611  0.00  0.00    -0.270 OA
ATOM     10  C   UNL     1       4.301 -12.070  10.117  0.00  0.00    +0.051 A 
ATOM     11  C   UNL     1       3.360 -12.958  10.656  0.00  0.00    +0.014 A 
ATOM     12  C   UNL     1       2.799 -12.708  11.889  0.00  0.00    +0.001 A 
ATOM     13  C   UNL     1       3.157 -11.580  12.608  0.00  0.00    +0.001 A 
ATOM     14  C   UNL     1       4.083 -10.695  12.094  0.00  0.00    +0.016 A 
ATOM     15  C   UNL     1       4.660 -10.934  10.854  0.00  0.00    +0.025 A 
ATOM     16  S   UNL     1       5.849  -9.806  10.207  0.00  0.00    -0.087 S 
ENDROOT
BRANCH   1  18
ATOM     17  N   UNL     1       3.113  -6.572   4.912  0.00  0.00    -0.311 N 
ATOM     18  C   UNL     1       3.375  -7.883   5.079  0.00  0.00    +0.244 C 
ATOM     19  O   UNL     1       3.110  -8.674   4.194  0.00  0.00    -0.270 OA
ATOM     20  H   UNL     1       3.325  -5.941   5.618  0.00  0.00    +0.149 HD
BRANCH  17  21
ATOM     21  C   UNL     1       2.509  -6.099   3.664  0.00  0.00    +0.102 C 
BRANCH  21  22
ATOM     22  C   UNL     1       2.318  -4.582   3.733  0.00  0.00    +0.000 C 
BRANCH  22  23
ATOM     23  C   UNL     1       1.687  -4.088   2.430  0.00  0.00    -0.077 C 
BRANCH  23  24
ATOM     24  N   UNL     1       1.403  -2.651   2.537  0.00  0.00    +0.380 N 
ATOM     25  H   UNL     1       0.835  -2.480   3.353  0.00  0.00    -0.082 HD
BRANCH  24  26
ATOM     26  C   UNL     1       0.684  -2.202   1.337  0.00  0.00    -0.082 C 
ATOM     27  C   UNL     1      -0.700  -2.854   1.299  0.00  0.00    -0.017 C 
ENDBRANCH  24  26
BRANCH  24  28
ATOM     28  C   UNL     1       2.666  -1.910   2.657  0.00  0.00    -0.079 C 
BRANCH  28  29
ATOM     29  C   UNL     1       2.368  -0.428   2.894  0.00  0.00    -0.019 C 
BRANCH  29  31
ATOM     30  C   UNL     1       3.385   1.825   3.255  0.00  0.00    +0.004 C 
ATOM     31  C   UNL     1       3.683   0.344   3.018  0.00  0.00    -0.005 C 
ENDBRANCH  29  31
ENDBRANCH  28  29
ENDBRANCH  24  28
ENDBRANCH  23  24
ENDBRANCH  22  23
ENDBRANCH  21  22
ENDBRANCH  17  21
ENDBRANCH   1  18
BRANCH   7  32
ATOM     32  C   UNL     1       5.728 -12.143   6.638  0.00  0.00    +0.149 C 
BRANCH  32  33
ATOM     33  C   UNL     1       7.227 -12.052   6.767  0.00  0.00    -0.030 A 
ATOM     34  C   UNL     1       7.898 -10.950   6.271  0.00  0.00    +0.005 A 
ATOM     35  C   UNL     1       9.273 -10.867   6.389  0.00  0.00    +0.003 A 
ATOM     36  C   UNL     1       9.977 -11.886   7.004  0.00  0.00    -0.050 A 
ATOM     37  C   UNL     1       9.305 -12.987   7.501  0.00  0.00    +0.003 A 
ATOM     38  C   UNL     1       7.930 -13.068   7.387  0.00  0.00    +0.005 A 
ATOM     39  C   UNL     1      11.475 -11.796   7.132  0.00  0.00    +0.044 C 
ENDBRANCH  32  33
ENDBRANCH   7  32
TORSDOF 11
