REMARK  Name = ZINC24177001
REMARK  11 active torsions:
REMARK  status: ('A' for Active; 'I' for Inactive)
REMARK    1  A    between atoms: C_1  and  O_2
REMARK    2  A    between atoms: O_2  and  C_3
REMARK    3  A    between atoms: C_8  and  N_9
REMARK    4  A    between atoms: N_9  and  S_10
REMARK    5  A    between atoms: S_10  and  C_13
REMARK    6  A    between atoms: C_17  and  C_19
REMARK    7  A    between atoms: N_21  and  N_22
REMARK    8  A    between atoms: C_23  and  C_25
REMARK    9  A    between atoms: C_29  and  C_31
REMARK   10  A    between atoms: C_31  and  S_32
REMARK   11  A    between atoms: S_32  and  C_33
REMARK                            x       y       z     vdW  Elec       q    Type
REMARK                         _______ _______ _______ _____ _____    ______ ____
ROOT
ATOM      1  C   UNL     1      -0.019  -0.161   0.129  0.00  0.00    +0.109 A 
ATOM      2  C   UNL     1       1.160  -0.885   0.124  0.00  0.00    +0.029 A 
ATOM      3  C   UNL     1       2.379  -0.235   0.196  0.00  0.00    +0.003 A 
ATOM      4  C   UNL     1       2.426   1.142   0.272  0.00  0.00    +0.013 A 
ATOM      5  C   UNL     1       1.241   1.879   0.278  0.00  0.00    +0.040 A 
ATOM      6  C   UNL     1       0.015   1.216   0.205  0.00  0.00    +0.042 A 
ENDROOT
BRANCH   5   7
ATOM      7  C   UNL     1       1.285   3.354   0.359  0.00  0.00    +0.260 C 
ATOM      8  O   UNL     1       0.251   3.993   0.362  0.00  0.00    -0.269 OA
ATOM      9  N   UNL     1       2.471   3.991   0.429  0.00  0.00    -0.230 N 
ATOM     10  H   UNL     1       3.406   3.412   0.426  0.00  0.00    +0.173 HD
BRANCH   9  11
ATOM     11  N   UNL     1       2.512   5.389   0.506  0.00  0.00    -0.230 N 
ATOM     12  C   UNL     1       3.698   6.025   0.576  0.00  0.00    +0.260 C 
ATOM     13  O   UNL     1       4.732   5.386   0.573  0.00  0.00    -0.269 OA
ATOM     14  H   UNL     1       1.576   5.967   0.509  0.00  0.00    +0.173 HD
BRANCH  12  15
ATOM     15  C   UNL     1       3.741   7.501   0.657  0.00  0.00    +0.038 A 
ATOM     16  C   UNL     1       2.556   8.238   0.655  0.00  0.00    +0.013 A 
ATOM     17  C   UNL     1       2.603   9.614   0.736  0.00  0.00    +0.001 A 
ATOM     18  C   UNL     1       3.823  10.265   0.808  0.00  0.00    +0.004 A 
ATOM     19  C   UNL     1       5.001   9.540   0.805  0.00  0.00    -0.037 A 
ATOM     20  C   UNL     1       4.968   8.163   0.730  0.00  0.00    +0.017 A 
BRANCH  19  21
ATOM     21  C   UNL     1       6.324  10.257   0.883  0.00  0.00    +0.104 C 
BRANCH  21  22
ATOM     22  S   UNL     1       6.907  10.636  -0.793  0.00  0.00    -0.159 S 
ATOM     23  C   UNL     1       8.487  11.486  -0.526  0.00  0.00    +0.084 C 
ENDBRANCH  21  22
ENDBRANCH  19  21
ENDBRANCH  12  15
ENDBRANCH   9  11
ENDBRANCH   5   7
BRANCH   1  24
ATOM     24  S   UNL     1      -1.566  -0.999   0.037  0.00  0.00    +0.072 S 
ATOM     25  O   UNL     1      -1.345  -2.315   0.524  0.00  0.00    -0.150 OA
ATOM     26  O   UNL     1      -2.534  -0.128   0.607  0.00  0.00    -0.150 OA
BRANCH  24  27
ATOM     27  N   UNL     1      -1.949  -1.145  -1.567  0.00  0.00    -0.213 N 
ATOM     28  H   UNL     1      -2.869  -0.687  -1.958  0.00  0.00    +0.174 HD
BRANCH  27  34
ATOM     29  C   UNL     1      -0.926  -1.428  -3.742  0.00  0.00    +0.142 A 
ATOM     30  C   UNL     1      -0.086  -2.132  -4.588  0.00  0.00    +0.047 A 
ATOM     31  C   UNL     1       0.577  -3.255  -4.128  0.00  0.00    +0.004 A 
ATOM     32  C   UNL     1       0.404  -3.678  -2.823  0.00  0.00    +0.002 A 
ATOM     33  C   UNL     1      -0.429  -2.978  -1.971  0.00  0.00    +0.028 A 
ATOM     34  C   UNL     1      -1.101  -1.853  -2.427  0.00  0.00    +0.090 A 
BRANCH  29  36
ATOM     35  C   UNL     1      -1.350   0.055  -5.553  0.00  0.00    +0.277 C 
ATOM     36  O   UNL     1      -1.578  -0.323  -4.194  0.00  0.00    -0.493 OA
ENDBRANCH  29  36
ENDBRANCH  27  34
ENDBRANCH  24  27
ENDBRANCH   1  24
TORSDOF 9
