REMARK  Name = ZINC21506132
REMARK  4 active torsions:
REMARK  status: ('A' for Active; 'I' for Inactive)
REMARK    1  A    between atoms: C_3  and  C_11
REMARK    2  A    between atoms: C_6  and  C_7
REMARK    3  A    between atoms: C_11  and  O_12
REMARK    4  A    between atoms: O_12  and  C_13
REMARK                            x       y       z     vdW  Elec       q    Type
REMARK                         _______ _______ _______ _____ _____    ______ ____
ROOT
ATOM      1  C   UNL     1      -1.218   1.748   0.017  0.00  0.00    +0.012 A 
ATOM      2  C   UNL     1      -0.013   1.076   0.008  0.00  0.00    +0.010 A 
ATOM      3  C   UNL     1       1.176   1.782   0.000  0.00  0.00    +0.025 A 
ATOM      4  C   UNL     1       1.165   3.167   0.008  0.00  0.00    +0.130 A 
ATOM      5  C   UNL     1      -0.036   3.851   0.023  0.00  0.00    +0.050 A 
ATOM      6  C   UNL     1      -1.237   3.142   0.030  0.00  0.00    +0.015 A 
ATOM      7  F   UNL     1       2.330   3.851   0.001  0.00  0.00    -0.205 F 
ENDROOT
BRANCH   6   8
ATOM      8  C   UNL     1      -2.528   3.868   0.045  0.00  0.00    +0.094 C 
ATOM      9  N   UNL     1      -2.542   5.170   0.052  0.00  0.00    -0.387 N 
ATOM     10  N   UNL     1      -3.713   3.165   0.052  0.00  0.00    -0.345 N 
ATOM     11  H   UNL     1      -3.501   5.709   0.063  0.00  0.00    +0.157 HD
ATOM     12  H   UNL     1      -4.672   3.704   0.063  0.00  0.00    +0.144 HD
ATOM     13  H   UNL     1      -3.700   2.065   0.046  0.00  0.00    +0.144 HD
ATOM     14  H   UNL     1      -1.596   5.731   0.046  0.00  0.00    +0.157 HD
ENDBRANCH   6   8
BRANCH   3  15
ATOM     15  C   UNL     1       2.489   1.042  -0.016  0.00  0.00    +0.267 C 
BRANCH  15  16
ATOM     16  O   UNL     1       2.242  -0.366  -0.020  0.00  0.00    -0.486 OA
BRANCH  16  17
ATOM     17  C   UNL     1       3.328  -1.183  -0.035  0.00  0.00    +0.141 A 
ATOM     18  C   UNL     1       4.605  -0.641  -0.050  0.00  0.00    +0.068 A 
ATOM     19  C   UNL     1       5.708  -1.474  -0.059  0.00  0.00    +0.063 A 
ATOM     20  C   UNL     1       5.540  -2.848  -0.064  0.00  0.00    +0.061 A 
ATOM     21  C   UNL     1       4.267  -3.391  -0.055  0.00  0.00    +0.045 A 
ATOM     22  C   UNL     1       3.161  -2.561  -0.040  0.00  0.00    +0.084 A 
ATOM     23 CL   UNL     1       1.565  -3.243  -0.027  0.00  0.00    -0.080 Cl
ATOM     24 CL   UNL     1       6.927  -3.892  -0.083  0.00  0.00    -0.082 Cl
ATOM     25 CL   UNL     1       7.306  -0.796  -0.071  0.00  0.00    -0.082 Cl
ENDBRANCH  16  17
ENDBRANCH  15  16
ENDBRANCH   3  15
TORSDOF 4
