REMARK  Name = ZINC67295411
REMARK  5 active torsions:
REMARK  status: ('A' for Active; 'I' for Inactive)
REMARK    1  A    between atoms: C_8  and  C_21
REMARK    2  A    between atoms: N_10  and  C_11
REMARK    3  A    between atoms: C_14  and  C_17
REMARK    4  A    between atoms: N_23  and  C_24
REMARK    5  A    between atoms: C_24  and  C_25
REMARK                            x       y       z     vdW  Elec       q    Type
REMARK                         _______ _______ _______ _____ _____    ______ ____
ROOT
ATOM      1  C   UNL     1      -0.541   0.684  -0.018  0.00  0.00    +0.001 A 
ATOM      2  C   UNL     1       0.466   1.625   0.138  0.00  0.00    +0.004 A 
ATOM      3  C   UNL     1       1.791   1.239   0.175  0.00  0.00    +0.047 A 
ATOM      4  C   UNL     1       2.121  -0.103   0.056  0.00  0.00    +0.137 A 
ATOM      5  C   UNL     1       1.097  -1.057  -0.098  0.00  0.00    +0.018 A 
ATOM      6  C   UNL     1      -0.240  -0.643  -0.137  0.00  0.00    +0.011 A 
ATOM      7  C   UNL     1       1.448  -2.474  -0.212  0.00  0.00    +0.030 A 
ATOM      8  C   UNL     1       2.751  -2.837   0.106  0.00  0.00    +0.097 A 
ATOM      9  C   UNL     1       3.663  -1.759   0.531  0.00  0.00    +0.212 A 
ATOM     10  N   UNL     1       4.689  -2.009   1.320  0.00  0.00    -0.325 N 
ATOM     11  O   UNL     1       3.416  -0.502   0.084  0.00  0.00    -0.439 OA
ATOM     12  H   UNL     1       4.802  -2.893   1.703  0.00  0.00    +0.169 HD
ENDROOT
BRANCH  10  13
ATOM     13  C   UNL     1       5.591  -1.026   1.597  0.00  0.00    +0.042 A 
ATOM     14  C   UNL     1       6.073  -0.208   0.568  0.00  0.00    +0.026 A 
ATOM     15  C   UNL     1       6.976   0.776   0.846  0.00  0.00    +0.015 A 
ATOM     16  C   UNL     1       7.420   0.968   2.159  0.00  0.00    +0.037 A 
ATOM     17  C   UNL     1       6.939   0.151   3.188  0.00  0.00    +0.015 A 
ATOM     18  C   UNL     1       6.032  -0.831   2.912  0.00  0.00    +0.026 A 
BRANCH  16  19
ATOM     19  C   UNL     1       8.396   2.031   2.458  0.00  0.00    +0.242 C 
ATOM     20  O   UNL     1       8.815   2.741   1.565  0.00  0.00    -0.270 OA
ATOM     21  N   UNL     1       8.824   2.216   3.723  0.00  0.00    -0.325 N 
ATOM     22  H   UNL     1       8.490   1.650   4.436  0.00  0.00    +0.145 HD
ATOM     23  H   UNL     1       9.466   2.916   3.920  0.00  0.00    +0.145 HD
ENDBRANCH  16  19
ENDBRANCH  10  13
BRANCH   8  24
ATOM     24  C   UNL     1       3.200  -4.237   0.025  0.00  0.00    +0.250 C 
ATOM     25  O   UNL     1       4.375  -4.509   0.186  0.00  0.00    -0.270 OA
ATOM     26  N   UNL     1       2.311  -5.217  -0.229  0.00  0.00    -0.304 N 
ATOM     27  H   UNL     1       1.386  -4.995  -0.419  0.00  0.00    +0.149 HD
BRANCH  26  28
ATOM     28  C   UNL     1       2.740  -6.618  -0.217  0.00  0.00    +0.179 C 
BRANCH  28  29
ATOM     29  C   UNL     1       1.564  -7.507  -0.528  0.00  0.00    +0.122 A 
ATOM     30  C   UNL     1       1.187  -7.912  -1.754  0.00  0.00    +0.046 A 
ATOM     31  C   UNL     1       0.043  -8.726  -1.583  0.00  0.00    +0.041 A 
ATOM     32  C   UNL     1      -0.210  -8.769  -0.262  0.00  0.00    +0.195 A 
ATOM     33  O   UNL     1       0.718  -8.033   0.372  0.00  0.00    -0.466 OA
ENDBRANCH  28  29
ENDBRANCH  26  28
ENDBRANCH   8  24
TORSDOF 5
