REMARK  Name = ZINC35919984
REMARK  6 active torsions:
REMARK  status: ('A' for Active; 'I' for Inactive)
REMARK    1  A    between atoms: C_1  and  C_2
REMARK    2  A    between atoms: C_6  and  S_8
REMARK    3  A    between atoms: S_8  and  N_11
REMARK    4  A    between atoms: C_16  and  O_27
REMARK    5  A    between atoms: N_23  and  C_26
REMARK    6  A    between atoms: O_27  and  C_28
REMARK                            x       y       z     vdW  Elec       q    Type
REMARK                         _______ _______ _______ _____ _____    ______ ____
ROOT
ATOM      1  N   UNL     1       1.706  -3.276   3.165  0.00  0.00    -0.172 NA
ATOM      2  C   UNL     1       1.532  -4.454   4.030  0.00  0.00    +0.116 C 
ATOM      3  C   UNL     1       2.914  -4.901   4.505  0.00  0.00    +0.073 C 
ATOM      4  C   UNL     1       3.713  -3.727   5.001  0.00  0.00    +0.056 A 
ATOM      5  C   UNL     1       3.422  -2.428   4.660  0.00  0.00    +0.052 A 
ATOM      6  C   UNL     1       4.233  -1.405   5.159  0.00  0.00    +0.230 A 
ATOM      7  N   UNL     1       5.251  -1.713   5.952  0.00  0.00    -0.179 NA
ATOM      8  C   UNL     1       5.496  -2.976   6.267  0.00  0.00    +0.221 A 
ATOM      9  N   UNL     1       4.748  -3.964   5.804  0.00  0.00    -0.219 NA
ATOM     10  N   UNL     1       6.562  -3.269   7.100  0.00  0.00    -0.303 N 
ATOM     11  C   UNL     1       6.942  -4.663   7.380  0.00  0.00    +0.089 C 
ATOM     12  C   UNL     1       8.447  -4.814   7.135  0.00  0.00    -0.060 C 
ATOM     13  N   UNL     1       9.174  -3.817   7.930  0.00  0.00    +0.380 N 
ATOM     14  C   UNL     1       8.832  -2.465   7.469  0.00  0.00    -0.060 C 
ATOM     15  C   UNL     1       7.350  -2.197   7.726  0.00  0.00    +0.089 C 
ATOM     16  C   UNL     1      10.619  -4.033   7.781  0.00  0.00    -0.096 C 
ATOM     17  C   UNL     1       2.262  -2.064   3.780  0.00  0.00    +0.151 C 
ATOM     18  H   UNL     1       8.920  -3.913   8.902  0.00  0.00    -0.082 HD
ENDROOT
BRANCH   1  19
ATOM     19  S   UNL     1       1.298  -3.317   1.560  0.00  0.00    +0.061 S 
ATOM     20  O   UNL     1       1.055  -1.974   1.168  0.00  0.00    -0.153 OA
ATOM     21  O   UNL     1       0.325  -4.342   1.415  0.00  0.00    -0.153 OA
BRANCH  19  27
ATOM     22  C   UNL     1       5.746  -2.324  -0.999  0.00  0.00    +0.044 C 
ATOM     23  C   UNL     1       4.754  -3.338  -0.490  0.00  0.00    -0.049 A 
ATOM     24  C   UNL     1       4.963  -4.685  -0.718  0.00  0.00    +0.003 A 
ATOM     25  C   UNL     1       4.053  -5.614  -0.251  0.00  0.00    +0.002 A 
ATOM     26  C   UNL     1       2.934  -5.197   0.445  0.00  0.00    +0.028 A 
ATOM     27  C   UNL     1       2.725  -3.850   0.674  0.00  0.00    +0.106 A 
ATOM     28  C   UNL     1       3.638  -2.920   0.210  0.00  0.00    +0.032 A 
ENDBRANCH  19  27
ENDBRANCH   1  19
BRANCH   6  29
ATOM     29  O   UNL     1       3.982  -0.113   4.837  0.00  0.00    -0.437 OA
BRANCH  29  30
ATOM     30  C   UNL     1       4.795   0.844   5.358  0.00  0.00    +0.133 A 
ATOM     31  C   UNL     1       6.057   1.051   4.820  0.00  0.00    +0.049 A 
ATOM     32  C   UNL     1       6.883   2.024   5.349  0.00  0.00    +0.045 A 
ATOM     33  C   UNL     1       6.453   2.793   6.416  0.00  0.00    +0.159 A 
ATOM     34  C   UNL     1       5.192   2.589   6.955  0.00  0.00    +0.162 A 
ATOM     35  C   UNL     1       4.361   1.619   6.423  0.00  0.00    +0.087 A 
ATOM     36  F   UNL     1       4.773   3.340   7.997  0.00  0.00    -0.202 F 
ATOM     37  F   UNL     1       7.262   3.744   6.932  0.00  0.00    -0.202 F 
ENDBRANCH  29  30
ENDBRANCH   6  29
TORSDOF 4
