REMARK  Name = ZINC53211279
REMARK  6 active torsions:
REMARK  status: ('A' for Active; 'I' for Inactive)
REMARK    1  A    between atoms: C_3  and  S_23
REMARK    2  A    between atoms: C_6  and  N_7
REMARK    3  A    between atoms: C_8  and  C_10
REMARK    4  A    between atoms: C_10  and  N_11
REMARK    5  A    between atoms: C_15  and  C_17
REMARK    6  A    between atoms: S_23  and  N_26
REMARK                            x       y       z     vdW  Elec       q    Type
REMARK                         _______ _______ _______ _____ _____    ______ ____
ROOT
ATOM      1  N   UNL     1      -1.523  -1.127   1.787  0.00  0.00    -0.287 N 
ATOM      2  C   UNL     1      -1.435  -2.381   1.302  0.00  0.00    +0.201 C 
ATOM      3  O   UNL     1      -0.403  -3.007   1.420  0.00  0.00    -0.278 OA
ATOM      4  H   UNL     1      -2.367  -0.650   1.748  0.00  0.00    +0.155 HD
ENDROOT
BRANCH   1  10
ATOM      5  C   UNL     1      -0.197   0.851   2.188  0.00  0.00    +0.025 A 
ATOM      6  C   UNL     1       0.915   1.454   2.743  0.00  0.00    +0.030 A 
ATOM      7  C   UNL     1       1.828   0.699   3.458  0.00  0.00    +0.105 A 
ATOM      8  C   UNL     1       1.630  -0.660   3.620  0.00  0.00    +0.030 A 
ATOM      9  C   UNL     1       0.520  -1.268   3.067  0.00  0.00    +0.025 A 
ATOM     10  C   UNL     1      -0.398  -0.514   2.348  0.00  0.00    +0.033 A 
BRANCH   7  11
ATOM     11  S   UNL     1       3.245   1.472   4.164  0.00  0.00    +0.056 S 
ATOM     12  O   UNL     1       4.226   0.456   4.320  0.00  0.00    -0.153 OA
ATOM     13  O   UNL     1       3.484   2.651   3.408  0.00  0.00    -0.153 OA
BRANCH  11  14
ATOM     14  N   UNL     1       2.827   1.963   5.689  0.00  0.00    -0.204 NA
ATOM     15  H   UNL     1       1.931   1.799   6.022  0.00  0.00    +0.144 HD
ATOM     16  H   UNL     1       3.477   2.416   6.248  0.00  0.00    +0.144 HD
ENDBRANCH  11  14
ENDBRANCH   7  11
ENDBRANCH   1  10
BRANCH   2  17
ATOM     17  C   UNL     1      -2.620  -3.007   0.611  0.00  0.00    +0.019 C 
BRANCH  17  18
ATOM     18  N   UNL     1      -2.272  -4.366   0.177  0.00  0.00    +0.387 N 
ATOM     19  C   UNL     1      -1.208  -4.304  -0.848  0.00  0.00    -0.078 C 
ATOM     20  C   UNL     1      -1.543  -5.449  -1.836  0.00  0.00    -0.020 C 
ATOM     21  C   UNL     1      -3.093  -5.394  -1.866  0.00  0.00    -0.017 C 
ATOM     22  C   UNL     1      -3.456  -5.017  -0.414  0.00  0.00    -0.065 C 
ATOM     23  H   UNL     1      -1.949  -4.904   0.967  0.00  0.00    -0.081 HD
BRANCH  22  24
ATOM     24  C   UNL     1      -4.639  -4.047  -0.409  0.00  0.00    -0.025 C 
ATOM     25  C   UNL     1      -5.946  -4.836  -0.516  0.00  0.00    +0.002 C 
ATOM     26  C   UNL     1      -7.129  -3.867  -0.511  0.00  0.00    +0.000 C 
ATOM     27  C   UNL     1      -7.012  -2.912  -1.700  0.00  0.00    +0.000 C 
ATOM     28  C   UNL     1      -5.705  -2.122  -1.593  0.00  0.00    +0.000 C 
ATOM     29  C   UNL     1      -4.522  -3.092  -1.599  0.00  0.00    +0.002 C 
ENDBRANCH  22  24
ENDBRANCH  17  18
ENDBRANCH   2  17
TORSDOF 6
