REMARK  Name = ZINC32125430
REMARK  10 active torsions:
REMARK  status: ('A' for Active; 'I' for Inactive)
REMARK    1  A    between atoms: C_1  and  C_2
REMARK    2  A    between atoms: C_2  and  O_3
REMARK    3  A    between atoms: O_3  and  C_4
REMARK    4  A    between atoms: C_7  and  N_10
REMARK    5  A    between atoms: C_15  and  N_19
REMARK    6  A    between atoms: N_19  and  C_20
REMARK    7  A    between atoms: C_20  and  N_22
REMARK    8  A    between atoms: C_23  and  C_25
REMARK    9  A    between atoms: C_28  and  C_32
REMARK   10  A    between atoms: C_30  and  C_31
REMARK                            x       y       z     vdW  Elec       q    Type
REMARK                         _______ _______ _______ _____ _____    ______ ____
ROOT
ATOM      1  N   UNL     1       7.704   2.729   1.253  0.00  0.00    -0.149 N 
ATOM      2  N   UNL     1       7.012   3.801   1.076  0.00  0.00    -0.147 NA
ATOM      3  C   UNL     1       5.754   3.464   0.839  0.00  0.00    +0.113 A 
ATOM      4  C   UNL     1       4.551   4.143   0.576  0.00  0.00    +0.033 A 
ATOM      5  C   UNL     1       3.410   3.434   0.377  0.00  0.00    +0.025 A 
ATOM      6  C   UNL     1       3.397   2.034   0.427  0.00  0.00    +0.035 A 
ATOM      7  C   UNL     1       4.530   1.317   0.683  0.00  0.00    +0.055 A 
ATOM      8  C   UNL     1       5.743   1.994   0.892  0.00  0.00    +0.115 A 
ATOM      9  N   UNL     1       6.997   1.657   1.154  0.00  0.00    -0.147 NA
ENDROOT
BRANCH   1  13
ATOM     10  C   UNL     1      11.793   2.729   2.066  0.00  0.00    +0.121 A 
ATOM     11  C   UNL     1      11.121   3.931   1.886  0.00  0.00    +0.048 A 
ATOM     12  C   UNL     1       9.768   3.931   1.617  0.00  0.00    +0.033 A 
ATOM     13  C   UNL     1       9.078   2.729   1.526  0.00  0.00    +0.086 A 
ATOM     14  C   UNL     1       9.749   1.528   1.710  0.00  0.00    +0.033 A 
ATOM     15  C   UNL     1      11.104   1.528   1.974  0.00  0.00    +0.048 A 
BRANCH  10  16
ATOM     16  O   UNL     1      13.126   2.730   2.331  0.00  0.00    -0.492 OA
BRANCH  16  18
ATOM     17  C   UNL     1      15.242   1.658   2.792  0.00  0.00    +0.048 C 
ATOM     18  C   UNL     1      13.753   1.457   2.504  0.00  0.00    +0.225 C 
ENDBRANCH  16  18
ENDBRANCH  10  16
ENDBRANCH   1  13
BRANCH   6  19
ATOM     19  N   UNL     1       2.193   1.354   0.215  0.00  0.00    -0.297 N 
ATOM     20  H   UNL     1       1.262   1.730   0.666  0.00  0.00    +0.154 HD
BRANCH  19  21
ATOM     21  C   UNL     1       2.173   0.239  -0.541  0.00  0.00    +0.141 C 
ATOM     22  S   UNL     1       3.589  -0.267  -1.358  0.00  0.00    -0.018 S 
BRANCH  21  23
ATOM     23  N   UNL     1       1.037  -0.478  -0.655  0.00  0.00    -0.264 N 
ATOM     24  C   UNL     1       1.018  -1.596  -1.407  0.00  0.00    +0.250 C 
ATOM     25  O   UNL     1       2.024  -1.956  -1.986  0.00  0.00    -0.270 OA
ATOM     26  H   UNL     1       0.125  -0.150  -0.133  0.00  0.00    +0.157 HD
BRANCH  24  27
ATOM     27  C   UNL     1      -0.226  -2.386  -1.526  0.00  0.00    +0.040 A 
ATOM     28  C   UNL     1      -1.343  -2.055  -0.756  0.00  0.00    +0.013 A 
ATOM     29  C   UNL     1      -2.500  -2.796  -0.873  0.00  0.00    +0.004 A 
ATOM     30  C   UNL     1      -2.556  -3.865  -1.750  0.00  0.00    -0.050 A 
ATOM     31  C   UNL     1      -1.453  -4.198  -2.515  0.00  0.00    +0.007 A 
ATOM     32  C   UNL     1      -0.290  -3.462  -2.413  0.00  0.00    -0.038 A 
ATOM     33  C   UNL     1       0.908  -3.822  -3.252  0.00  0.00    +0.044 C 
ATOM     34  C   UNL     1      -3.825  -4.669  -1.872  0.00  0.00    +0.044 C 
ENDBRANCH  24  27
ENDBRANCH  21  23
ENDBRANCH  19  21
ENDBRANCH   6  19
TORSDOF 7
