REMARK  Name = ZINC61749421
REMARK  8 active torsions:
REMARK  status: ('A' for Active; 'I' for Inactive)
REMARK    1  A    between atoms: C_1  and  C_2
REMARK    2  A    between atoms: C_5  and  C_8
REMARK    3  A    between atoms: C_8  and  C_9
REMARK    4  A    between atoms: C_8  and  N_25
REMARK    5  A    between atoms: C_9  and  N_10
REMARK    6  A    between atoms: N_13  and  C_14
REMARK    7  A    between atoms: C_16  and  N_21
REMARK    8  A    between atoms: C_22  and  C_24
REMARK                            x       y       z     vdW  Elec       q    Type
REMARK                         _______ _______ _______ _____ _____    ______ ____
ROOT
ATOM      1  N   UNL     1      -2.668  -3.458  -0.906  0.00  0.00    -0.300 N 
ATOM      2  C   UNL     1      -3.932  -3.900  -1.060  0.00  0.00    +0.304 C 
ATOM      3  O   UNL     1      -4.484  -4.492  -0.152  0.00  0.00    -0.253 OA
ATOM      4  N   UNL     1      -4.583  -3.687  -2.220  0.00  0.00    -0.267 N 
ATOM      5  H   UNL     1      -2.227  -2.987  -1.629  0.00  0.00    +0.150 HD
ATOM      6  H   UNL     1      -4.169  -3.155  -2.918  0.00  0.00    +0.156 HD
ENDROOT
BRANCH   4   7
ATOM      7  C   UNL     1      -5.858  -4.233  -2.419  0.00  0.00    +0.072 A 
ATOM      8  C   UNL     1      -6.693  -4.458  -1.335  0.00  0.00    +0.049 A 
ATOM      9  C   UNL     1      -7.955  -4.999  -1.535  0.00  0.00    +0.035 A 
ATOM     10  C   UNL     1      -8.379  -5.313  -2.820  0.00  0.00    +0.026 A 
ATOM     11  C   UNL     1      -7.546  -5.087  -3.899  0.00  0.00    +0.042 A 
ATOM     12  C   UNL     1      -6.290  -4.544  -3.704  0.00  0.00    +0.145 A 
ATOM     13  F   UNL     1      -5.479  -4.319  -4.761  0.00  0.00    -0.204 F 
BRANCH   9  14
ATOM     14  N   UNL     1      -8.800  -5.229  -0.442  0.00  0.00    -0.286 N 
ATOM     15  C   UNL     1     -10.130  -5.052  -0.570  0.00  0.00    +0.214 C 
ATOM     16  O   UNL     1     -10.604  -4.775  -1.652  0.00  0.00    -0.276 OA
ATOM     17  C   UNL     1     -11.028  -5.198   0.631  0.00  0.00    +0.109 C 
ATOM     18  H   UNL     1      -8.428  -5.515   0.407  0.00  0.00    +0.155 HD
ENDBRANCH   9  14
ENDBRANCH   4   7
BRANCH   1  19
ATOM     19  C   UNL     1      -1.960  -3.691   0.356  0.00  0.00    +0.095 C 
BRANCH  19  20
ATOM     20  C   UNL     1      -0.605  -2.980   0.318  0.00  0.00    -0.020 C 
BRANCH  20  25
ATOM     21  C   UNL     1      -1.436   2.736   0.137  0.00  0.00    +0.044 C 
ATOM     22  C   UNL     1      -1.219   1.245   0.184  0.00  0.00    -0.050 A 
ATOM     23  C   UNL     1      -0.925   0.552  -0.975  0.00  0.00    +0.003 A 
ATOM     24  C   UNL     1      -0.726  -0.815  -0.932  0.00  0.00    +0.002 A 
ATOM     25  C   UNL     1      -0.821  -1.489   0.271  0.00  0.00    -0.059 A 
ATOM     26  C   UNL     1      -1.114  -0.796   1.431  0.00  0.00    +0.002 A 
ATOM     27  C   UNL     1      -1.309   0.572   1.388  0.00  0.00    +0.003 A 
ENDBRANCH  20  25
BRANCH  20  28
ATOM     28  N   UNL     1       0.163  -3.326   1.522  0.00  0.00    +0.385 N 
ATOM     29  C   UNL     1       0.468  -4.779   1.535  0.00  0.00    -0.078 C 
ATOM     30  C   UNL     1       1.690  -4.877   2.482  0.00  0.00    -0.020 C 
ATOM     31  C   UNL     1       2.494  -3.601   2.140  0.00  0.00    -0.020 C 
ATOM     32  C   UNL     1       1.472  -2.639   1.507  0.00  0.00    -0.078 C 
ATOM     33  H   UNL     1      -0.354  -3.071   2.350  0.00  0.00    -0.081 HD
ENDBRANCH  20  28
ENDBRANCH  19  20
ENDBRANCH   1  19
TORSDOF 6
