REMARK  Name = ZINC39631990
REMARK  12 active torsions:
REMARK  status: ('A' for Active; 'I' for Inactive)
REMARK    1  A    between atoms: C_1  and  C_2
REMARK    2  A    between atoms: C_2  and  C_4
REMARK    3  A    between atoms: C_2  and  N_11
REMARK    4  A    between atoms: C_4  and  C_5
REMARK    5  A    between atoms: C_5  and  C_6
REMARK    6  A    between atoms: C_6  and  C_7
REMARK    7  A    between atoms: C_7  and  C_8
REMARK    8  A    between atoms: C_7  and  C_9
REMARK    9  A    between atoms: C_7  and  O_10
REMARK   10  A    between atoms: C_12  and  C_14
REMARK   11  A    between atoms: C_25  and  C_27
REMARK   12  A    between atoms: C_30  and  C_32
REMARK                            x       y       z     vdW  Elec       q    Type
REMARK                         _______ _______ _______ _____ _____    ______ ____
ROOT
ATOM      1  C   UNL     1       0.712  -1.094  -3.598  0.00  0.00    +0.100 C 
ATOM      2  C   UNL     1       1.732  -0.041  -4.085  0.00  0.00    +0.121 C 
ATOM      3  N   UNL     1       1.653  -0.098  -5.564  0.00  0.00    -0.294 N 
ATOM      4  C   UNL     1       0.208  -0.272  -5.849  0.00  0.00    +0.115 C 
ATOM      5  C   UNL     1      -0.287  -1.243  -4.759  0.00  0.00    -0.004 C 
ATOM      6  C   UNL     1      -0.277  -2.675  -5.284  0.00  0.00    -0.010 C 
ATOM      7  C   UNL     1      -1.318  -2.812  -6.399  0.00  0.00    -0.082 C 
ATOM      8  N   UNL     1      -2.646  -2.470  -5.875  0.00  0.00    +0.379 N 
ATOM      9  C   UNL     1      -2.673  -1.063  -5.458  0.00  0.00    -0.082 C 
ATOM     10  C   UNL     1      -1.689  -0.852  -4.303  0.00  0.00    -0.010 C 
ATOM     11  C   UNL     1       2.665  -0.011  -6.449  0.00  0.00    +0.282 C 
ATOM     12  O   UNL     1       2.437  -0.076  -7.643  0.00  0.00    -0.267 OA
ATOM     13  H   UNL     1      -3.338  -2.620  -6.594  0.00  0.00    -0.086 HD
ATOM     14  H   UNL     1      -2.856  -3.059  -5.083  0.00  0.00    -0.086 HD
ENDROOT
BRANCH  11  15
ATOM     15  C   UNL     1       4.040   0.161  -5.974  0.00  0.00    +0.190 A 
ATOM     16  C   UNL     1       5.162   0.268  -6.767  0.00  0.00    +0.055 A 
ATOM     17  C   UNL     1       6.253   0.418  -5.905  0.00  0.00    +0.051 A 
ATOM     18  C   UNL     1       5.763   0.397  -4.630  0.00  0.00    +0.139 A 
ATOM     19  O   UNL     1       4.429   0.247  -4.684  0.00  0.00    -0.450 OA
BRANCH  18  20
ATOM     20  C   UNL     1       6.565   0.525  -3.397  0.00  0.00    +0.052 A 
ATOM     21  C   UNL     1       7.701  -0.267  -3.215  0.00  0.00    +0.014 A 
ATOM     22  C   UNL     1       8.446  -0.143  -2.061  0.00  0.00    +0.001 A 
ATOM     23  C   UNL     1       8.071   0.763  -1.083  0.00  0.00    +0.003 A 
ATOM     24  C   UNL     1       6.947   1.550  -1.255  0.00  0.00    +0.039 A 
ATOM     25  C   UNL     1       6.194   1.442  -2.409  0.00  0.00    +0.134 A 
ATOM     26  F   UNL     1       5.100   2.216  -2.579  0.00  0.00    -0.205 F 
ENDBRANCH  18  20
ENDBRANCH  11  15
BRANCH   1  28
ATOM     27  N   UNL     1      -0.447  -1.494  -1.450  0.00  0.00    -0.312 N 
ATOM     28  C   UNL     1       0.006  -0.608  -2.358  0.00  0.00    +0.218 C 
ATOM     29  O   UNL     1      -0.154   0.581  -2.179  0.00  0.00    -0.275 OA
ATOM     30  H   UNL     1      -0.318  -2.445  -1.594  0.00  0.00    +0.149 HD
BRANCH  27  32
ATOM     31  C   UNL     1      -0.098  -0.673   0.828  0.00  0.00    +0.028 C 
ATOM     32  C   UNL     1      -1.132  -1.022  -0.244  0.00  0.00    +0.070 C 
BRANCH  32  33
ATOM     33  C   UNL     1      -2.059  -2.121   0.279  0.00  0.00    +0.022 C 
BRANCH  33  34
ATOM     34  C   UNL     1      -3.168  -2.382  -0.741  0.00  0.00    +0.005 C 
BRANCH  34  35
ATOM     35  C   UNL     1      -4.095  -3.482  -0.218  0.00  0.00    +0.034 C 
BRANCH  35  36
ATOM     36  C   UNL     1      -5.204  -3.743  -1.238  0.00  0.00    +0.061 C 
ATOM     37  C   UNL     1      -6.200  -4.751  -0.662  0.00  0.00    +0.041 C 
ATOM     38  C   UNL     1      -5.928  -2.432  -1.551  0.00  0.00    +0.041 C 
BRANCH  36  39
ATOM     39  O   UNL     1      -4.633  -4.269  -2.438  0.00  0.00    -0.389 OA
ATOM     40  H   UNL     1      -4.157  -5.102  -2.315  0.00  0.00    +0.210 HD
ENDBRANCH  36  39
ENDBRANCH  35  36
ENDBRANCH  34  35
ENDBRANCH  33  34
ENDBRANCH  32  33
ENDBRANCH  27  32
ENDBRANCH   1  28
TORSDOF 9
