REMARK  Name = ZINC18118822
REMARK  7 active torsions:
REMARK  status: ('A' for Active; 'I' for Inactive)
REMARK    1  A    between atoms: C_1  and  C_2
REMARK    2  A    between atoms: C_2  and  O_3
REMARK    3  A    between atoms: O_3  and  C_4
REMARK    4  A    between atoms: C_7  and  C_11
REMARK    5  A    between atoms: C_11  and  N_12
REMARK    6  A    between atoms: N_12  and  C_13
REMARK    7  A    between atoms: C_22  and  O_25
REMARK                            x       y       z     vdW  Elec       q    Type
REMARK                         _______ _______ _______ _____ _____    ______ ____
ROOT
ATOM      1  N   UNL     1      -0.055  -6.537  -2.591  0.00  0.00    +0.386 N 
ATOM      2  H   UNL     1      -0.898  -6.326  -2.078  0.00  0.00    -0.085 HD
ATOM      3  H   UNL     1      -0.091  -6.092  -3.495  0.00  0.00    -0.085 HD
ENDROOT
BRANCH   1   4
ATOM      4  C   UNL     1       0.060  -7.992  -2.766  0.00  0.00    -0.065 C 
ATOM      5  C   UNL     1       1.337  -8.313  -3.543  0.00  0.00    -0.009 C 
ATOM      6  C   UNL     1       1.457  -9.827  -3.725  0.00  0.00    -0.009 C 
ATOM      7  C   UNL     1       1.511 -10.503  -2.354  0.00  0.00    +0.007 C 
ATOM      8  C   UNL     1       0.233 -10.182  -1.576  0.00  0.00    -0.009 C 
ATOM      9  C   UNL     1       0.114  -8.667  -1.394  0.00  0.00    -0.009 C 
ATOM     10  C   UNL     1      -0.980 -10.699  -2.352  0.00  0.00    +0.038 C 
ATOM     11  C   UNL     1      -1.034 -10.024  -3.723  0.00  0.00    +0.065 C 
ATOM     12  C   UNL     1       0.244 -10.345  -4.501  0.00  0.00    +0.038 C 
ATOM     13  C   UNL     1      -1.153  -8.509  -3.541  0.00  0.00    +0.022 C 
BRANCH  11  14
ATOM     14  O   UNL     1      -2.167 -10.507  -4.448  0.00  0.00    -0.389 OA
ATOM     15  H   UNL     1      -2.158 -11.462  -4.601  0.00  0.00    +0.210 HD
ENDBRANCH  11  14
ENDBRANCH   1   4
BRANCH   1  16
ATOM     16  C   UNL     1       1.110  -6.041  -1.846  0.00  0.00    -0.046 C 
BRANCH  16  20
ATOM     17  C   UNL     1       0.777  -1.810  -1.336  0.00  0.00    +0.134 A 
ATOM     18  C   UNL     1       0.243  -2.669  -0.387  0.00  0.00    +0.047 A 
ATOM     19  C   UNL     1       0.352  -4.036  -0.554  0.00  0.00    +0.005 A 
ATOM     20  C   UNL     1       0.992  -4.549  -1.667  0.00  0.00    -0.063 A 
ATOM     21  C   UNL     1       1.525  -3.696  -2.615  0.00  0.00    +0.020 A 
ATOM     22  C   UNL     1       1.414  -2.327  -2.455  0.00  0.00    +0.060 A 
ATOM     23 BR   UNL     1       2.136  -1.161  -3.757  0.00  0.00    -0.047 Br
BRANCH  17  24
ATOM     24  O   UNL     1       0.671  -0.465  -1.174  0.00  0.00    -0.491 OA
BRANCH  24  26
ATOM     25  C   UNL     1      -0.019   1.526   0.010  0.00  0.00    +0.048 C 
ATOM     26  C   UNL     1       0.002  -0.004   0.002  0.00  0.00    +0.226 C 
ENDBRANCH  24  26
ENDBRANCH  17  24
ENDBRANCH  16  20
ENDBRANCH   1  16
TORSDOF 6
