REMARK  Name = ZINC13277742
REMARK  9 active torsions:
REMARK  status: ('A' for Active; 'I' for Inactive)
REMARK    1  A    between atoms: C_4  and  C_7
REMARK    2  A    between atoms: C_7  and  N_8
REMARK    3  A    between atoms: C_9  and  C_30
REMARK    4  A    between atoms: C_12  and  S_13
REMARK    5  A    between atoms: S_13  and  C_14
REMARK    6  A    between atoms: C_14  and  C_15
REMARK    7  A    between atoms: N_17  and  C_18
REMARK    8  A    between atoms: C_27  and  C_28
REMARK    9  A    between atoms: C_30  and  C_31
REMARK                            x       y       z     vdW  Elec       q    Type
REMARK                         _______ _______ _______ _____ _____    ______ ____
ROOT
ATOM      1  C   UNL     1       5.129   4.940  -0.389  0.00  0.00    +0.173 C 
ENDROOT
BRANCH   1   2
ATOM      2  C   UNL     1       5.013   3.437  -0.409  0.00  0.00    +0.228 C 
ATOM      3  O   UNL     1       5.996   2.756  -0.609  0.00  0.00    -0.275 OA
ATOM      4  N   UNL     1       3.817   2.851  -0.205  0.00  0.00    -0.284 N 
ATOM      5  H   UNL     1       3.018   3.395  -0.121  0.00  0.00    +0.155 HD
BRANCH   4   6
ATOM      6  C   UNL     1       3.727   1.463  -0.113  0.00  0.00    +0.048 A 
ATOM      7  C   UNL     1       4.739   0.757   0.471  0.00  0.00    +0.032 A 
ATOM      8  C   UNL     1       4.655  -0.641   0.567  0.00  0.00    -0.016 A 
ATOM      9  C   UNL     1       5.686  -1.388   1.165  0.00  0.00    +0.008 A 
ATOM     10  C   UNL     1       5.578  -2.743   1.245  0.00  0.00    +0.001 A 
ATOM     11  C   UNL     1       4.460  -3.406   0.741  0.00  0.00    +0.001 A 
ATOM     12  C   UNL     1       3.443  -2.718   0.155  0.00  0.00    +0.008 A 
ATOM     13  C   UNL     1       3.517  -1.316   0.054  0.00  0.00    -0.017 A 
ATOM     14  C   UNL     1       2.482  -0.579  -0.538  0.00  0.00    +0.025 A 
ATOM     15  C   UNL     1       2.590   0.800  -0.626  0.00  0.00    +0.085 A 
BRANCH  15  16
ATOM     16  C   UNL     1       1.508   1.581  -1.253  0.00  0.00    +0.388 C 
ATOM     17  O   UNL     1       1.553   2.795  -1.248  0.00  0.00    -0.241 OA
ATOM     18  O   UNL     1       0.469   0.948  -1.833  0.00  0.00    -0.241 OA
ENDBRANCH  15  16
ENDBRANCH   4   6
ENDBRANCH   1   2
BRANCH   1  19
ATOM     19  S   UNL     1       6.849   5.416  -0.692  0.00  0.00    -0.077 S 
BRANCH  19  24
ATOM     20  N   UNL     1       7.706   8.078  -0.771  0.00  0.00    -0.301 N 
ATOM     21  C   UNL     1       7.121   9.307  -0.635  0.00  0.00    +0.145 A 
ATOM     22  N   UNL     1       5.854   9.110  -0.406  0.00  0.00    -0.133 NA
ATOM     23  N   UNL     1       5.598   7.850  -0.394  0.00  0.00    -0.122 NA
ATOM     24  C   UNL     1       6.699   7.170  -0.616  0.00  0.00    +0.192 A 
BRANCH  20  25
ATOM     25  C   UNL     1       9.120   7.796  -1.032  0.00  0.00    +0.160 C 
BRANCH  25  29
ATOM     26  C   UNL     1       9.785   7.634  -5.248  0.00  0.00    +0.000 A 
ATOM     27  C   UNL     1       9.911   8.835  -4.574  0.00  0.00    +0.000 A 
ATOM     28  C   UNL     1       9.695   8.887  -3.210  0.00  0.00    +0.005 A 
ATOM     29  C   UNL     1       9.354   7.739  -2.519  0.00  0.00    -0.028 A 
ATOM     30  C   UNL     1       9.234   6.537  -3.193  0.00  0.00    +0.005 A 
ATOM     31  C   UNL     1       9.445   6.486  -4.558  0.00  0.00    +0.000 A 
ENDBRANCH  25  29
ENDBRANCH  20  25
BRANCH  21  32
ATOM     32  C   UNL     1       7.815  10.642  -0.726  0.00  0.00    +0.201 C 
BRANCH  32  33
ATOM     33  C   UNL     1       8.304  11.048   0.640  0.00  0.00    +0.363 C 
ATOM     34  O   UNL     1       8.109  10.328   1.591  0.00  0.00    -0.246 OA
ATOM     35  O   UNL     1       8.956  12.210   0.802  0.00  0.00    -0.246 OA
ENDBRANCH  32  33
ENDBRANCH  21  32
ENDBRANCH  19  24
ENDBRANCH   1  19
TORSDOF 9
