REMARK  Name = ZINC32096964
REMARK  3 active torsions:
REMARK  status: ('A' for Active; 'I' for Inactive)
REMARK    1  A    between atoms: C_1  and  C_2
REMARK    2  A    between atoms: N_8  and  C_27
REMARK    3  A    between atoms: N_20  and  C_21
REMARK                            x       y       z     vdW  Elec       q    Type
REMARK                         _______ _______ _______ _____ _____    ______ ____
ROOT
ATOM      1  C   UNL     1      -0.534   1.484   0.107  0.00  0.00    +0.045 C 
ATOM      2  C   UNL     1      -0.445  -0.021   0.086  0.00  0.00    -0.029 A 
ATOM      3  C   UNL     1      -0.717  -0.744  -1.066  0.00  0.00    +0.005 A 
ATOM      4  C   UNL     1      -0.637  -2.120  -1.099  0.00  0.00    +0.001 A 
ATOM      5  C   UNL     1      -0.278  -2.853   0.029  0.00  0.00    +0.007 A 
ATOM      6  C   UNL     1      -0.008  -2.142   1.177  0.00  0.00    -0.006 A 
ATOM      7  C   UNL     1      -0.080  -0.743   1.222  0.00  0.00    +0.043 A 
ATOM      8  N   UNL     1       0.246  -0.285   2.487  0.00  0.00    -0.273 N 
ATOM      9  C   UNL     1       0.545  -1.296   3.330  0.00  0.00    +0.235 C 
ATOM     10  O   UNL     1       0.863  -1.193   4.496  0.00  0.00    -0.274 OA
ATOM     11  C   UNL     1       0.396  -2.583   2.547  0.00  0.00    +0.112 C 
ATOM     12  C   UNL     1       1.731  -3.323   2.520  0.00  0.00    +0.122 C 
ATOM     13  C   UNL     1       1.552  -4.755   2.097  0.00  0.00    +0.220 C 
ATOM     14  O   UNL     1       2.398  -5.270   1.397  0.00  0.00    -0.275 OA
ATOM     15  N   UNL     1       0.480  -5.485   2.470  0.00  0.00    -0.270 N 
ATOM     16  C   UNL     1      -0.576  -4.835   3.107  0.00  0.00    +0.133 A 
ATOM     17  C   UNL     1      -0.650  -3.467   3.167  0.00  0.00    +0.032 A 
ATOM     18  C   UNL     1      -1.802  -3.133   3.864  0.00  0.00    +0.141 A 
ATOM     19  N   UNL     1      -2.414  -4.242   4.206  0.00  0.00    -0.173 NA
ATOM     20  N   UNL     1      -1.665  -5.330   3.728  0.00  0.00    -0.218 N 
ATOM     21  C   UNL     1       0.265   1.130   2.866  0.00  0.00    +0.138 C 
ATOM     22  H   UNL     1       0.446  -6.439   2.299  0.00  0.00    +0.156 HD
ENDROOT
BRANCH  20  23
ATOM     23  C   UNL     1      -1.991  -6.685   3.873  0.00  0.00    +0.067 A 
ATOM     24  C   UNL     1      -1.679  -7.587   2.864  0.00  0.00    +0.028 A 
ATOM     25  C   UNL     1      -2.001  -8.922   3.009  0.00  0.00    +0.002 A 
ATOM     26  C   UNL     1      -2.635  -9.361   4.157  0.00  0.00    +0.000 A 
ATOM     27  C   UNL     1      -2.947  -8.466   5.163  0.00  0.00    +0.002 A 
ATOM     28  C   UNL     1      -2.622  -7.130   5.026  0.00  0.00    +0.028 A 
ENDBRANCH  20  23
TORSDOF 1
