REMARK  Name = ZINC09935196
REMARK  8 active torsions:
REMARK  status: ('A' for Active; 'I' for Inactive)
REMARK    1  A    between atoms: C_1  and  O_2
REMARK    2  A    between atoms: O_2  and  C_3
REMARK    3  A    between atoms: C_6  and  N_11
REMARK    4  A    between atoms: C_7  and  O_9
REMARK    5  A    between atoms: O_9  and  C_10
REMARK    6  A    between atoms: C_20  and  C_22
REMARK    7  A    between atoms: C_22  and  S_23
REMARK    8  A    between atoms: S_23  and  C_24
REMARK                            x       y       z     vdW  Elec       q    Type
REMARK                         _______ _______ _______ _____ _____    ______ ____
ROOT
ATOM      1  N   UNL     1      -2.912  -0.870  -0.136  0.00  0.00    -0.325 N 
ATOM      2  C   UNL     1      -2.184  -0.064   0.709  0.00  0.00    +0.180 C 
ATOM      3  N   UNL     1      -0.936  -0.466   1.140  0.00  0.00    -0.298 N 
ATOM      4  C   UNL     1      -0.209   0.338   1.983  0.00  0.00    +0.211 A 
ATOM      5  N   UNL     1       1.020  -0.069   2.400  0.00  0.00    -0.293 N 
ATOM      6  H   UNL     1       1.378  -0.920   2.102  0.00  0.00    +0.172 HD
ATOM      7  C   UNL     1       1.741   0.716   3.229  0.00  0.00    +0.253 A 
ATOM      8  O   UNL     1       2.845   0.367   3.612  0.00  0.00    -0.268 OA
ATOM      9  C   UNL     1       1.194   1.944   3.643  0.00  0.00    +0.094 A 
ATOM     10  C   UNL     1      -0.043   2.300   3.191  0.00  0.00    +0.060 A 
ATOM     11  N   UNL     1      -0.714   1.490   2.374  0.00  0.00    -0.218 NA
ATOM     12  H   UNL     1      -2.589  -1.757  -0.358  0.00  0.00    +0.169 HD
ATOM     13  H   UNL     1      -3.583   1.394   0.954  0.00  0.00    +0.159 HD
ATOM     14  H   UNL     1      -0.572  -1.316   0.847  0.00  0.00    +0.172 HD
ATOM     15  N   UNL     1      -2.620   1.111   1.137  0.00  0.00    -0.371 N 
ATOM     16  H   UNL     1      -1.990   1.736   1.652  0.00  0.00    +0.159 HD
ENDROOT
BRANCH   1  20
ATOM     17  C   UNL     1      -6.512   0.506  -1.743  0.00  0.00    +0.124 A 
ATOM     18  C   UNL     1      -5.471   1.392  -1.508  0.00  0.00    +0.048 A 
ATOM     19  C   UNL     1      -4.279   0.937  -0.976  0.00  0.00    +0.033 A 
ATOM     20  C   UNL     1      -4.122  -0.408  -0.676  0.00  0.00    +0.084 A 
ATOM     21  C   UNL     1      -5.164  -1.300  -0.915  0.00  0.00    +0.147 A 
ATOM     22  C   UNL     1      -6.359  -0.840  -1.444  0.00  0.00    +0.093 A 
BRANCH  17  24
ATOM     23  C   UNL     1      -7.771   2.354  -2.551  0.00  0.00    +0.277 C 
ATOM     24  O   UNL     1      -7.683   0.956  -2.267  0.00  0.00    -0.495 OA
ENDBRANCH  17  24
BRANCH  21  25
ATOM     25  O   UNL     1      -5.010  -2.620  -0.627  0.00  0.00    -0.493 OA
ATOM     26  C   UNL     1      -6.121  -3.477  -0.899  0.00  0.00    +0.277 C 
ENDBRANCH  21  25
ENDBRANCH   1  20
BRANCH  10  27
ATOM     27  C   UNL     1      -0.652   3.611   3.618  0.00  0.00    +0.130 C 
BRANCH  27  28
ATOM     28  S   UNL     1      -0.567   4.792   2.245  0.00  0.00    -0.119 S 
BRANCH  28  29
ATOM     29  C   UNL     1      -1.308   6.254   2.893  0.00  0.00    +0.008 A 
ATOM     30  C   UNL     1      -1.790   6.270   4.197  0.00  0.00    +0.016 A 
ATOM     31  C   UNL     1      -2.365   7.418   4.704  0.00  0.00    +0.021 A 
ATOM     32  C   UNL     1      -2.472   8.549   3.912  0.00  0.00    +0.041 A 
ATOM     33  C   UNL     1      -1.998   8.533   2.612  0.00  0.00    +0.021 A 
ATOM     34  C   UNL     1      -1.417   7.390   2.101  0.00  0.00    +0.016 A 
ATOM     35 CL   UNL     1      -3.201   9.988   4.552  0.00  0.00    -0.084 Cl
ENDBRANCH  28  29
ENDBRANCH  27  28
ENDBRANCH  10  27
TORSDOF 6
