REMARK  Name = ZINC63374879
REMARK  13 active torsions:
REMARK  status: ('A' for Active; 'I' for Inactive)
REMARK    1  A    between atoms: C_1  and  C_2
REMARK    2  A    between atoms: C_2  and  C_3
REMARK    3  A    between atoms: C_3  and  C_4
REMARK    4  A    between atoms: C_4  and  N_5
REMARK    5  A    between atoms: C_11  and  C_27
REMARK    6  A    between atoms: C_23  and  C_26
REMARK    7  A    between atoms: C_30  and  O_36
REMARK    8  A    between atoms: C_31  and  O_33
REMARK    9  A    between atoms: O_33  and  C_34
REMARK   10  A    between atoms: C_34  and  C_35
REMARK   11  A    between atoms: O_36  and  C_37
REMARK   12  A    between atoms: C_37  and  C_38
REMARK   13  A    between atoms: C_38  and  C_39
REMARK                            x       y       z     vdW  Elec       q    Type
REMARK                         _______ _______ _______ _____ _____    ______ ____
ROOT
ATOM      1  N   UNL     1      -2.783  -2.574   0.008  0.00  0.00    -0.291 N 
ATOM      2  C   UNL     1      -3.497  -2.841   1.270  0.00  0.00    +0.203 C 
ATOM      3  C   UNL     1      -4.884  -2.241   1.179  0.00  0.00    +0.234 C 
ATOM      4  O   UNL     1      -5.375  -1.632   2.107  0.00  0.00    -0.274 OA
ATOM      5  N   UNL     1      -5.559  -2.418  -0.005  0.00  0.00    -0.283 N 
ATOM      6  C   UNL     1      -6.792  -1.671  -0.180  0.00  0.00    +0.121 C 
ATOM      7  C   UNL     1      -7.663  -2.195  -1.325  0.00  0.00    +0.065 C 
ATOM      8  C   UNL     1      -6.716  -2.544  -2.446  0.00  0.00    -0.027 C 
ATOM      9  C   UNL     1      -6.600  -2.111  -3.692  0.00  0.00    -0.000 A 
ATOM     10  C   UNL     1      -7.434  -1.211  -4.504  0.00  0.00    +0.010 A 
ATOM     11  C   UNL     1      -6.995  -0.960  -5.766  0.00  0.00    +0.001 A 
ATOM     12  C   UNL     1      -5.821  -1.505  -6.294  0.00  0.00    +0.002 A 
ATOM     13  C   UNL     1      -4.998  -2.350  -5.623  0.00  0.00    +0.026 A 
ATOM     14  C   UNL     1      -5.362  -2.700  -4.291  0.00  0.00    +0.043 A 
ATOM     15  N   UNL     1      -4.784  -3.502  -3.444  0.00  0.00    -0.375 N 
ATOM     16  C   UNL     1      -5.614  -3.570  -2.242  0.00  0.00    +0.139 C 
ATOM     17  C   UNL     1      -4.893  -3.281  -0.964  0.00  0.00    +0.135 C 
ATOM     18  C   UNL     1      -3.472  -2.816  -1.148  0.00  0.00    +0.242 C 
ATOM     19  O   UNL     1      -2.974  -2.669  -2.244  0.00  0.00    -0.273 OA
ATOM     20  C   UNL     1      -4.759  -4.633  -0.259  0.00  0.00    +0.044 C 
ATOM     21  H   UNL     1      -3.948  -3.973  -3.585  0.00  0.00    +0.160 HD
ENDROOT
BRANCH   7  22
ATOM     22  C   UNL     1      -8.628  -1.127  -1.773  0.00  0.00    -0.035 A 
ATOM     23  C   UNL     1      -8.150   0.076  -2.258  0.00  0.00    +0.008 A 
ATOM     24  C   UNL     1      -9.031   1.058  -2.669  0.00  0.00    +0.050 A 
ATOM     25  C   UNL     1     -10.397   0.838  -2.596  0.00  0.00    +0.162 A 
ATOM     26  C   UNL     1     -10.879  -0.372  -2.108  0.00  0.00    +0.162 A 
ATOM     27  C   UNL     1      -9.990  -1.355  -1.702  0.00  0.00    +0.053 A 
BRANCH  26  28
ATOM     28  O   UNL     1     -12.219  -0.593  -2.035  0.00  0.00    -0.489 OA
BRANCH  28  29
ATOM     29  C   UNL     1     -12.640  -1.859  -1.524  0.00  0.00    +0.226 C 
ATOM     30  C   UNL     1     -14.169  -1.922  -1.517  0.00  0.00    +0.048 C 
ENDBRANCH  28  29
ENDBRANCH  26  28
BRANCH  25  31
ATOM     31  O   UNL     1     -11.265   1.804  -3.001  0.00  0.00    -0.488 OA
BRANCH  31  32
ATOM     32  C   UNL     1     -10.699   3.022  -3.490  0.00  0.00    +0.229 C 
BRANCH  32  33
ATOM     33  C   UNL     1     -11.822   3.979  -3.894  0.00  0.00    +0.038 C 
ATOM     34  C   UNL     1     -11.216   5.283  -4.418  0.00  0.00    +0.007 C 
ENDBRANCH  32  33
ENDBRANCH  31  32
ENDBRANCH  25  31
ENDBRANCH   7  22
BRANCH   1  35
ATOM     35  C   UNL     1      -1.408  -2.069  -0.007  0.00  0.00    +0.108 C 
BRANCH  35  36
ATOM     36  C   UNL     1      -1.426  -0.539   0.001  0.00  0.00    +0.019 C 
BRANCH  36  38
ATOM     37  C   UNL     1      -0.008   1.518  -0.006  0.00  0.00    +0.004 C 
ATOM     38  C   UNL     1       0.010  -0.012  -0.014  0.00  0.00    -0.002 C 
ENDBRANCH  36  38
ENDBRANCH  35  36
ENDBRANCH   1  35
TORSDOF 9
