REMARK  Name = ZINC34786255
REMARK  8 active torsions:
REMARK  status: ('A' for Active; 'I' for Inactive)
REMARK    1  A    between atoms: C_1  and  C_2
REMARK    2  A    between atoms: C_2  and  C_3
REMARK    3  A    between atoms: C_4  and  C_24
REMARK    4  A    between atoms: C_6  and  N_11
REMARK    5  A    between atoms: C_7  and  C_8
REMARK    6  A    between atoms: N_17  and  C_20
REMARK    7  A    between atoms: C_20  and  C_21
REMARK    8  A    between atoms: C_21  and  C_23
REMARK                            x       y       z     vdW  Elec       q    Type
REMARK                         _______ _______ _______ _____ _____    ______ ____
ROOT
ATOM      1  N   UNL     1      -4.340  -1.593  -2.062  0.00  0.00    -0.263 N 
ATOM      2  C   UNL     1      -5.566  -2.051  -1.740  0.00  0.00    +0.307 C 
ATOM      3  O   UNL     1      -5.850  -2.261  -0.576  0.00  0.00    -0.252 OA
ATOM      4  N   UNL     1      -6.478  -2.275  -2.707  0.00  0.00    -0.289 N 
ATOM      5  C   UNL     1      -6.121  -2.143  -4.128  0.00  0.00    +0.091 C 
ATOM      6  C   UNL     1      -6.574  -3.409  -4.862  0.00  0.00    -0.059 C 
ATOM      7  N   UNL     1      -8.004  -3.633  -4.614  0.00  0.00    +0.384 N 
ATOM      8  C   UNL     1      -8.228  -3.901  -3.188  0.00  0.00    -0.059 C 
ATOM      9  C   UNL     1      -7.856  -2.665  -2.371  0.00  0.00    +0.091 C 
ATOM     10  H   UNL     1      -4.089  -1.494  -2.994  0.00  0.00    +0.157 HD
ATOM     11  H   UNL     1      -8.523  -2.812  -4.886  0.00  0.00    -0.081 HD
ENDROOT
BRANCH   1  15
ATOM     12  C   UNL     1      -1.415  -0.517   0.014  0.00  0.00    -0.024 A 
ATOM     13  C   UNL     1      -2.076  -0.769   1.159  0.00  0.00    -0.008 A 
ATOM     14  S   UNL     1      -3.660  -1.355   0.598  0.00  0.00    -0.078 S 
ATOM     15  C   UNL     1      -3.438  -1.263  -1.062  0.00  0.00    +0.086 A 
ATOM     16  C   UNL     1      -2.147  -0.776  -1.205  0.00  0.00    +0.068 A 
ATOM     17  C   UNL     1      -1.591  -0.598   2.575  0.00  0.00    +0.052 C 
BRANCH  16  18
ATOM     18  C   UNL     1      -1.554  -0.541  -2.525  0.00  0.00    +0.244 C 
ATOM     19  O   UNL     1      -0.940  -1.431  -3.083  0.00  0.00    -0.270 OA
ATOM     20  N   UNL     1      -1.688   0.661  -3.120  0.00  0.00    -0.325 N 
ATOM     21  H   UNL     1      -2.177   1.371  -2.674  0.00  0.00    +0.145 HD
ATOM     22  H   UNL     1      -1.295   0.817  -3.993  0.00  0.00    +0.145 HD
ENDBRANCH  16  18
BRANCH  12  24
ATOM     23  C   UNL     1      -0.029   1.539   0.015  0.00  0.00    +0.009 C 
ATOM     24  C   UNL     1      -0.003   0.009   0.004  0.00  0.00    +0.033 C 
ENDBRANCH  12  24
ENDBRANCH   1  15
BRANCH   7  25
ATOM     25  C   UNL     1      -8.462  -4.783  -5.405  0.00  0.00    -0.048 C 
BRANCH  25  26
ATOM     26  C   UNL     1      -9.952  -4.939  -5.248  0.00  0.00    -0.096 C 
ATOM     27  C   UNL     1     -10.763  -4.408  -6.129  0.00  0.00    +0.005 C 
ATOM     28  C   UNL     1     -10.510  -5.706  -4.077  0.00  0.00    +0.036 C 
ENDBRANCH  25  26
ENDBRANCH   7  25
TORSDOF 5
