REMARK  Name = ZINC61368798
REMARK  5 active torsions:
REMARK  status: ('A' for Active; 'I' for Inactive)
REMARK    1  A    between atoms: C_6  and  N_11
REMARK    2  A    between atoms: N_11  and  S_12
REMARK    3  A    between atoms: S_12  and  C_15
REMARK    4  A    between atoms: C_15  and  C_16
REMARK    5  A    between atoms: C_16  and  C_17
REMARK                            x       y       z     vdW  Elec       q    Type
REMARK                         _______ _______ _______ _____ _____    ______ ____
ROOT
ATOM      1  S   UNL     1      -3.490   0.652  -0.280  0.00  0.00    +0.030 S 
ATOM      2  O   UNL     1      -4.329   0.934  -1.391  0.00  0.00    -0.158 OA
ATOM      3  O   UNL     1      -3.977  -0.098   0.824  0.00  0.00    -0.158 OA
ENDROOT
BRANCH   1   4
ATOM      4  N   UNL     1      -2.258  -0.263  -0.902  0.00  0.00    -0.187 NA
ATOM      5  H   UNL     1      -2.241  -0.474  -1.848  0.00  0.00    +0.148 HD
BRANCH   4  11
ATOM      6  C   UNL     1       0.526   0.310  -1.609  0.00  0.00    +0.013 A 
ATOM      7  C   UNL     1       1.720   0.260  -2.243  0.00  0.00    +0.046 A 
ATOM      8  S   UNL     1       2.373  -1.302  -1.675  0.00  0.00    -0.101 S 
ATOM      9  C   UNL     1       1.012  -1.768  -0.640  0.00  0.00    -0.005 A 
ATOM     10  C   UNL     1       0.137  -0.734  -0.770  0.00  0.00    -0.019 A 
ATOM     11  C   UNL     1      -1.194  -0.753  -0.023  0.00  0.00    +0.107 C 
ATOM     12  C   UNL     1      -1.499  -2.189   0.405  0.00  0.00    +0.025 C 
ATOM     13  C   UNL     1      -0.309  -2.772   1.173  0.00  0.00    +0.007 C 
ATOM     14  C   UNL     1       0.848  -3.001   0.188  0.00  0.00    +0.043 C 
ENDBRANCH   4  11
ENDBRANCH   1   4
BRANCH   1  15
ATOM     15  C   UNL     1      -2.692   2.174   0.302  0.00  0.00    +0.183 C 
BRANCH  15  16
ATOM     16  C   UNL     1      -3.726   3.054   1.008  0.00  0.00    +0.008 C 
BRANCH  16  17
ATOM     17  C   UNL     1      -3.054   4.337   1.499  0.00  0.00    -0.070 C 
ATOM     18  C   UNL     1      -4.111   5.272   2.092  0.00  0.00    -0.016 C 
ATOM     19  C   UNL     1      -3.433   6.555   2.581  0.00  0.00    -0.003 C 
ATOM     20  C   UNL     1      -2.345   6.191   3.596  0.00  0.00    -0.019 C 
ATOM     21  C   UNL     1      -1.354   5.222   2.948  0.00  0.00    -0.082 C 
ATOM     22  N   UNL     1      -2.059   4.005   2.526  0.00  0.00    +0.381 N 
ATOM     23  H   UNL     1      -2.522   3.593   3.321  0.00  0.00    -0.086 HD
ATOM     24  H   UNL     1      -1.394   3.347   2.148  0.00  0.00    -0.086 HD
ENDBRANCH  16  17
ENDBRANCH  15  16
ENDBRANCH   1  15
TORSDOF 5
