REMARK  Name = ZINC66244823
REMARK  6 active torsions:
REMARK  status: ('A' for Active; 'I' for Inactive)
REMARK    1  A    between atoms: C_1  and  C_2
REMARK    2  A    between atoms: C_3  and  C_19
REMARK    3  A    between atoms: C_5  and  C_7
REMARK    4  A    between atoms: C_7  and  N_8
REMARK    5  A    between atoms: N_10  and  C_11
REMARK    6  A    between atoms: C_11  and  C_12
REMARK                            x       y       z     vdW  Elec       q    Type
REMARK                         _______ _______ _______ _____ _____    ______ ____
ROOT
ATOM      1  C   UNL     1       1.071  -3.975  -0.011  0.00  0.00    +0.178 C 
ENDROOT
BRANCH   1   2
ATOM      2  N   UNL     1       1.100  -4.484  -1.384  0.00  0.00    -0.352 N 
ATOM      3  C   UNL     1       1.558  -5.756  -1.636  0.00  0.00    +0.169 C 
ATOM      4  N   UNL     1       1.584  -6.209  -2.858  0.00  0.00    -0.355 N 
ATOM      5  N   UNL     1       1.988  -6.550  -0.600  0.00  0.00    -0.371 N 
ATOM      6  H   UNL     1       0.797  -3.924  -2.116  0.00  0.00    +0.163 HD
ATOM      7  H   UNL     1       1.968  -6.213   0.310  0.00  0.00    +0.159 HD
ATOM      8  H   UNL     1       2.311  -7.447  -0.777  0.00  0.00    +0.159 HD
ATOM      9  H   UNL     1       1.281  -5.649  -3.590  0.00  0.00    +0.162 HD
BRANCH   4  10
ATOM     10  C   UNL     1       2.072  -7.564  -3.127  0.00  0.00    +0.147 C 
BRANCH  10  11
ATOM     11  C   UNL     1       1.998  -7.844  -4.629  0.00  0.00    +0.137 C 
ATOM     12  C   UNL     1       2.477  -9.286  -4.931  0.00  0.00    +0.035 C 
ATOM     13  C   UNL     1       1.743  -9.566  -6.271  0.00  0.00    +0.031 C 
ATOM     14  C   UNL     1       0.419  -8.794  -6.087  0.00  0.00    +0.160 C 
ATOM     15  O   UNL     1       0.635  -7.798  -5.079  0.00  0.00    -0.375 OA
ENDBRANCH  10  11
ENDBRANCH   4  10
ENDBRANCH   1   2
BRANCH   1  20
ATOM     16  C   UNL     1      -0.030   1.501  -0.105  0.00  0.00    +0.054 C 
ATOM     17  C   UNL     1      -0.003  -0.005  -0.050  0.00  0.00    +0.014 A 
ATOM     18  C   UNL     1      -1.035  -0.893   0.093  0.00  0.00    +0.081 A 
ATOM     19  N   UNL     1      -0.712  -2.178   0.108  0.00  0.00    -0.242 NA
ATOM     20  C   UNL     1       0.531  -2.568  -0.008  0.00  0.00    +0.098 A 
ATOM     21  S   UNL     1       1.383  -1.125  -0.161  0.00  0.00    -0.075 S 
BRANCH  18  22
ATOM     22  C   UNL     1      -2.442  -0.441   0.225  0.00  0.00    +0.001 A 
ATOM     23  C   UNL     1      -2.925   0.585  -0.585  0.00  0.00    +0.011 A 
ATOM     24  C   UNL     1      -4.235   1.002  -0.459  0.00  0.00    +0.020 A 
ATOM     25  C   UNL     1      -5.067   0.404   0.472  0.00  0.00    +0.041 A 
ATOM     26  C   UNL     1      -4.592  -0.615   1.279  0.00  0.00    +0.020 A 
ATOM     27  C   UNL     1      -3.286  -1.043   1.156  0.00  0.00    +0.011 A 
ATOM     28 CL   UNL     1      -6.713   0.935   0.627  0.00  0.00    -0.084 Cl
ENDBRANCH  18  22
ENDBRANCH   1  20
TORSDOF 5
