REMARK  Name = ZINC54805895
REMARK  12 active torsions:
REMARK  status: ('A' for Active; 'I' for Inactive)
REMARK    1  A    between atoms: C_1  and  C_2
REMARK    2  A    between atoms: N_6  and  C_8
REMARK    3  A    between atoms: C_8  and  C_9
REMARK    4  A    between atoms: C_8  and  C_10
REMARK    5  A    between atoms: C_8  and  C_11
REMARK    6  A    between atoms: C_11  and  N_12
REMARK    7  A    between atoms: N_15  and  C_16
REMARK    8  A    between atoms: C_16  and  C_17
REMARK    9  A    between atoms: C_21  and  N_23
REMARK   10  A    between atoms: C_24  and  C_26
REMARK   11  A    between atoms: C_26  and  O_27
REMARK   12  A    between atoms: O_27  and  C_28
REMARK                            x       y       z     vdW  Elec       q    Type
REMARK                         _______ _______ _______ _____ _____    ______ ____
ROOT
ATOM      1  N   UNL     1       2.168  -3.926   0.582  0.00  0.00    -0.301 N 
ATOM      2  C   UNL     1       2.318  -5.265   0.548  0.00  0.00    +0.300 C 
ATOM      3  O   UNL     1       1.940  -5.943   1.484  0.00  0.00    -0.253 OA
ATOM      4  N   UNL     1       2.888  -5.852  -0.523  0.00  0.00    -0.295 N 
ATOM      5  H   UNL     1       2.470  -3.385  -0.164  0.00  0.00    +0.150 HD
ATOM      6  H   UNL     1       3.189  -5.311  -1.270  0.00  0.00    +0.151 HD
ENDROOT
BRANCH   1   7
ATOM      7  C   UNL     1       1.550  -3.288   1.747  0.00  0.00    +0.093 C 
BRANCH   7   8
ATOM      8  C   UNL     1       1.501  -1.774   1.532  0.00  0.00    -0.055 C 
ATOM      9  C   UNL     1       2.922  -1.238   1.352  0.00  0.00    -0.008 C 
ATOM     10  C   UNL     1       0.855  -1.107   2.748  0.00  0.00    -0.008 C 
BRANCH   8  16
ATOM     11  C   UNL     1      -0.126   1.804  -1.387  0.00  0.00    +0.005 C 
ATOM     12  C   UNL     1      -0.085   0.290  -1.172  0.00  0.00    -0.031 C 
ATOM     13  C   UNL     1      -1.514  -0.250  -1.066  0.00  0.00    -0.001 C 
ATOM     14  C   UNL     1      -1.461  -1.753  -0.773  0.00  0.00    -0.018 C 
ATOM     15  C   UNL     1      -0.655  -1.989   0.506  0.00  0.00    -0.078 C 
ATOM     16  N   UNL     1       0.709  -1.475   0.332  0.00  0.00    +0.384 N 
ATOM     17  C   UNL     1       0.670  -0.022   0.122  0.00  0.00    -0.075 C 
ATOM     18  H   UNL     1       1.135  -1.918  -0.469  0.00  0.00    -0.081 HD
ENDBRANCH   8  16
ENDBRANCH   7   8
ENDBRANCH   1   7
BRANCH   4  19
ATOM     19  C   UNL     1       3.051  -7.308  -0.560  0.00  0.00    +0.141 C 
BRANCH  19  20
ATOM     20  C   UNL     1       3.708  -7.707  -1.856  0.00  0.00    -0.029 A 
ATOM     21  C   UNL     1       2.932  -7.992  -2.965  0.00  0.00    +0.005 A 
ATOM     22  C   UNL     1       3.532  -8.358  -4.156  0.00  0.00    +0.002 A 
ATOM     23  C   UNL     1       4.908  -8.440  -4.242  0.00  0.00    +0.023 A 
ATOM     24  C   UNL     1       5.689  -8.154  -3.130  0.00  0.00    +0.034 A 
ATOM     25  C   UNL     1       5.085  -7.782  -1.937  0.00  0.00    +0.028 A 
BRANCH  24  26
ATOM     26  N   UNL     1       7.084  -8.237  -3.214  0.00  0.00    -0.284 N 
ATOM     27  C   UNL     1       7.709  -7.927  -4.366  0.00  0.00    +0.243 C 
ATOM     28  O   UNL     1       7.075  -7.485  -5.301  0.00  0.00    -0.273 OA
ATOM     29  H   UNL     1       7.600  -8.518  -2.442  0.00  0.00    +0.155 HD
BRANCH  27  30
ATOM     30  C   UNL     1       9.197  -8.129  -4.494  0.00  0.00    +0.255 C 
BRANCH  30  31
ATOM     31  O   UNL     1       9.622  -7.730  -5.799  0.00  0.00    -0.374 OA
ATOM     32  C   UNL     1      11.024  -7.882  -6.026  0.00  0.00    +0.194 C 
ENDBRANCH  30  31
ENDBRANCH  27  30
ENDBRANCH  24  26
ENDBRANCH  19  20
ENDBRANCH   4  19
TORSDOF 8
