REMARK  Name = ZINC65315783
REMARK  14 active torsions:
REMARK  status: ('A' for Active; 'I' for Inactive)
REMARK    1  A    between atoms: C_1  and  C_2
REMARK    2  A    between atoms: C_2  and  N_3
REMARK    3  A    between atoms: N_3  and  C_4
REMARK    4  A    between atoms: N_3  and  C_6
REMARK    5  A    between atoms: C_4  and  C_5
REMARK    6  A    between atoms: C_6  and  C_7
REMARK    7  A    between atoms: C_7  and  C_8
REMARK    8  A    between atoms: C_8  and  N_9
REMARK    9  A    between atoms: N_9  and  C_10
REMARK   10  A    between atoms: N_9  and  C_20
REMARK   11  A    between atoms: C_10  and  C_11
REMARK   12  A    between atoms: C_20  and  N_22
REMARK   13  A    between atoms: N_22  and  C_23
REMARK   14  A    between atoms: C_28  and  C_29
REMARK                            x       y       z     vdW  Elec       q    Type
REMARK                         _______ _______ _______ _____ _____    ______ ____
ROOT
ATOM      1  N   UNL     1      -5.041  -4.956   1.075  0.00  0.00    -0.308 N 
ENDROOT
BRANCH   1   2
ATOM      2  C   UNL     1      -5.936  -4.999   2.082  0.00  0.00    +0.137 C 
ATOM      3  S   UNL     1      -7.365  -5.929   1.919  0.00  0.00    -0.018 S 
BRANCH   2   4
ATOM      4  N   UNL     1      -5.707  -4.309   3.217  0.00  0.00    -0.296 N 
ATOM      5  H   UNL     1      -4.936  -3.724   3.282  0.00  0.00    +0.154 HD
BRANCH   4   6
ATOM      6  C   UNL     1      -6.581  -4.438   4.302  0.00  0.00    +0.037 A 
ATOM      7  C   UNL     1      -7.954  -4.452   4.092  0.00  0.00    +0.023 A 
ATOM      8  C   UNL     1      -8.815  -4.579   5.164  0.00  0.00    +0.003 A 
ATOM      9  C   UNL     1      -8.311  -4.692   6.447  0.00  0.00    +0.020 A 
ATOM     10  C   UNL     1      -6.944  -4.679   6.661  0.00  0.00    +0.046 A 
ATOM     11  C   UNL     1      -6.078  -4.558   5.590  0.00  0.00    -0.011 A 
ATOM     12  C   UNL     1      -4.588  -4.551   5.822  0.00  0.00    +0.047 C 
ATOM     13 CL   UNL     1      -6.316  -4.820   8.273  0.00  0.00    -0.083 Cl
ENDBRANCH   4   6
ENDBRANCH   2   4
ENDBRANCH   1   2
BRANCH   1  14
ATOM     14  C   UNL     1      -3.773  -4.245   1.252  0.00  0.00    +0.105 C 
BRANCH  14  15
ATOM     15  C   UNL     1      -3.942  -2.786   0.823  0.00  0.00    +0.000 C 
BRANCH  15  16
ATOM     16  C   UNL     1      -2.618  -2.043   1.008  0.00  0.00    -0.077 C 
BRANCH  16  17
ATOM     17  N   UNL     1      -2.745  -0.677   0.483  0.00  0.00    +0.379 N 
ATOM     18  H   UNL     1      -3.077  -0.712  -0.469  0.00  0.00    -0.082 HD
BRANCH  17  20
ATOM     19  C   UNL     1      -3.926   1.458   0.689  0.00  0.00    -0.017 C 
ATOM     20  C   UNL     1      -3.699   0.077   1.307  0.00  0.00    -0.082 C 
ENDBRANCH  17  20
BRANCH  17  21
ATOM     21  C   UNL     1      -1.434  -0.014   0.520  0.00  0.00    -0.082 C 
ATOM     22  C   UNL     1      -0.481  -0.713  -0.452  0.00  0.00    -0.017 C 
ENDBRANCH  17  21
ENDBRANCH  16  17
ENDBRANCH  15  16
ENDBRANCH  14  15
ENDBRANCH   1  14
BRANCH   1  23
ATOM     23  C   UNL     1      -5.337  -5.621  -0.196  0.00  0.00    +0.140 C 
BRANCH  23  24
ATOM     24  C   UNL     1      -4.832  -7.040  -0.150  0.00  0.00    -0.024 C 
ATOM     25  C   UNL     1      -3.648  -7.498  -0.616  0.00  0.00    +0.000 A 
ATOM     26  C   UNL     1      -2.518  -6.836  -1.281  0.00  0.00    +0.010 A 
ATOM     27  C   UNL     1      -1.444  -7.575  -1.640  0.00  0.00    +0.001 A 
ATOM     28  C   UNL     1      -1.382  -8.954  -1.393  0.00  0.00    +0.002 A 
ATOM     29  C   UNL     1      -2.380  -9.632  -0.787  0.00  0.00    +0.026 A 
ATOM     30  C   UNL     1      -3.558  -8.954  -0.367  0.00  0.00    +0.043 A 
ATOM     31  N   UNL     1      -4.644  -9.380   0.230  0.00  0.00    -0.380 N 
ATOM     32  C   UNL     1      -5.545  -8.240   0.432  0.00  0.00    +0.146 C 
ATOM     33  H   UNL     1      -4.821 -10.296   0.497  0.00  0.00    +0.160 HD
ENDBRANCH  23  24
ENDBRANCH   1  23
TORSDOF 11
