REMARK  Name = ZINC39695814
REMARK  8 active torsions:
REMARK  status: ('A' for Active; 'I' for Inactive)
REMARK    1  A    between atoms: C_1  and  C_2
REMARK    2  A    between atoms: C_10  and  C_12
REMARK    3  A    between atoms: C_12  and  C_13
REMARK    4  A    between atoms: C_12  and  N_14
REMARK    5  A    between atoms: C_15  and  C_17
REMARK    6  A    between atoms: C_27  and  C_29
REMARK    7  A    between atoms: C_33  and  O_34
REMARK    8  A    between atoms: O_34  and  C_35
REMARK                            x       y       z     vdW  Elec       q    Type
REMARK                         _______ _______ _______ _____ _____    ______ ____
ROOT
ATOM      1  C   UNL     1       1.858  -8.733   0.990  0.00  0.00    +0.100 C 
ATOM      2  C   UNL     1       0.759  -9.492   0.215  0.00  0.00    +0.121 C 
ATOM      3  N   UNL     1       1.248 -10.890   0.144  0.00  0.00    -0.296 N 
ATOM      4  C   UNL     1       1.860 -11.133   1.472  0.00  0.00    +0.115 C 
ATOM      5  C   UNL     1       2.575  -9.815   1.815  0.00  0.00    -0.004 C 
ATOM      6  C   UNL     1       2.444  -9.517   3.306  0.00  0.00    -0.010 C 
ATOM      7  C   UNL     1       3.214 -10.573   4.103  0.00  0.00    -0.082 C 
ATOM      8  N   UNL     1       4.626 -10.558   3.703  0.00  0.00    +0.379 N 
ATOM      9  C   UNL     1       4.751 -10.937   2.290  0.00  0.00    -0.082 C 
ATOM     10  C   UNL     1       4.046  -9.895   1.416  0.00  0.00    -0.010 C 
ATOM     11  C   UNL     1       1.157 -11.745  -0.893  0.00  0.00    +0.251 C 
ATOM     12  O   UNL     1       0.711 -11.364  -1.959  0.00  0.00    -0.270 OA
ATOM     13  H   UNL     1       5.002  -9.630   3.835  0.00  0.00    -0.086 HD
ATOM     14  H   UNL     1       5.143 -11.211   4.272  0.00  0.00    -0.086 HD
ENDROOT
BRANCH  11  15
ATOM     15  C   UNL     1       1.596 -13.140  -0.737  0.00  0.00    +0.087 A 
ATOM     16  C   UNL     1       1.439 -13.817   0.453  0.00  0.00    +0.063 A 
ATOM     17  S   UNL     1       2.076 -15.339   0.151  0.00  0.00    -0.081 S 
ATOM     18  C   UNL     1       2.572 -15.139  -1.547  0.00  0.00    +0.120 A 
ATOM     19  C   UNL     1       2.209 -13.867  -1.825  0.00  0.00    +0.158 A 
ATOM     20 CL   UNL     1       3.331 -16.298  -2.593  0.00  0.00    -0.072 Cl
BRANCH  19  21
ATOM     21  O   UNL     1       2.412 -13.306  -3.049  0.00  0.00    -0.492 OA
ATOM     22  C   UNL     1       3.656 -12.634  -3.256  0.00  0.00    +0.277 C 
ENDBRANCH  19  21
ENDBRANCH  11  15
BRANCH   1  24
ATOM     23  N   UNL     1       1.982  -6.668   2.346  0.00  0.00    -0.305 N 
ATOM     24  C   UNL     1       1.242  -7.702   1.900  0.00  0.00    +0.219 C 
ATOM     25  O   UNL     1       0.079  -7.803   2.231  0.00  0.00    -0.275 OA
ATOM     26  H   UNL     1       2.912  -6.587   2.081  0.00  0.00    +0.149 HD
BRANCH  23  27
ATOM     27  C   UNL     1       1.383  -5.665   3.231  0.00  0.00    +0.136 C 
ATOM     28  C   UNL     1       0.671  -4.603   2.390  0.00  0.00    +0.036 C 
BRANCH  27  38
ATOM     29  C   UNL     1       5.733  -2.198   8.174  0.00  0.00    +0.044 C 
ATOM     30  C   UNL     1       5.259  -2.933   6.947  0.00  0.00    -0.048 A 
ATOM     31  C   UNL     1       6.165  -3.262   5.948  0.00  0.00    +0.005 A 
ATOM     32  C   UNL     1       5.755  -3.928   4.828  0.00  0.00    +0.030 A 
ATOM     33  C   UNL     1       4.412  -4.283   4.681  0.00  0.00    +0.089 A 
ATOM     34  C   UNL     1       3.494  -3.950   5.692  0.00  0.00    +0.067 A 
ATOM     35  C   UNL     1       3.930  -3.278   6.826  0.00  0.00    +0.031 A 
ATOM     36  N   UNL     1       2.270  -4.425   5.267  0.00  0.00    -0.340 N 
ATOM     37  H   UNL     1       1.428  -4.353   5.743  0.00  0.00    +0.167 HD
ATOM     38  C   UNL     1       2.462  -5.013   4.055  0.00  0.00    +0.128 A 
ATOM     39  N   UNL     1       3.715  -4.931   3.712  0.00  0.00    -0.231 NA
ENDBRANCH  27  38
ENDBRANCH  23  27
ENDBRANCH   1  24
TORSDOF 5
