REMARK  Name = ZINC17290458
REMARK  10 active torsions:
REMARK  status: ('A' for Active; 'I' for Inactive)
REMARK    1  A    between atoms: C_1  and  C_2
REMARK    2  A    between atoms: C_2  and  N_3
REMARK    3  A    between atoms: N_3  and  C_4
REMARK    4  A    between atoms: N_3  and  C_10
REMARK    5  A    between atoms: C_4  and  C_5
REMARK    6  A    between atoms: C_10  and  C_11
REMARK    7  A    between atoms: N_13  and  C_14
REMARK    8  A    between atoms: C_19  and  S_20
REMARK    9  A    between atoms: S_20  and  C_21
REMARK   10  A    between atoms: C_21  and  C_22
REMARK                            x       y       z     vdW  Elec       q    Type
REMARK                         _______ _______ _______ _____ _____    ______ ____
ROOT
ATOM      1  C   UNL     1      -1.904   1.480  -1.165  0.00  0.00    +0.201 C 
ATOM      2  O   UNL     1      -1.340   2.088  -0.280  0.00  0.00    -0.278 OA
ATOM      3  N   UNL     1      -2.457   2.149  -2.196  0.00  0.00    -0.286 N 
ATOM      4  H   UNL     1      -2.963   1.669  -2.870  0.00  0.00    +0.155 HD
ENDROOT
BRANCH   3   5
ATOM      5  C   UNL     1      -2.302   3.538  -2.293  0.00  0.00    +0.047 A 
ATOM      6  C   UNL     1      -1.141   4.142  -1.836  0.00  0.00    +0.024 A 
ATOM      7  C   UNL     1      -0.990   5.513  -1.933  0.00  0.00    +0.002 A 
ATOM      8  C   UNL     1      -1.995   6.286  -2.485  0.00  0.00    +0.001 A 
ATOM      9  C   UNL     1      -3.156   5.694  -2.944  0.00  0.00    +0.016 A 
ATOM     10  C   UNL     1      -3.314   4.317  -2.856  0.00  0.00    +0.030 A 
BRANCH  10  11
ATOM     11  S   UNL     1      -4.790   3.558  -3.446  0.00  0.00    -0.114 S 
BRANCH  11  12
ATOM     12  C   UNL     1      -5.778   4.944  -4.071  0.00  0.00    +0.169 C 
BRANCH  12  13
ATOM     13  C   UNL     1      -7.085   4.426  -4.613  0.00  0.00    +0.221 C 
ATOM     14  O   UNL     1      -7.327   3.238  -4.580  0.00  0.00    -0.275 OA
ATOM     15  N   UNL     1      -7.986   5.283  -5.133  0.00  0.00    -0.329 N 
ATOM     16  H   UNL     1      -7.793   6.233  -5.160  0.00  0.00    +0.145 HD
ATOM     17  H   UNL     1      -8.828   4.949  -5.482  0.00  0.00    +0.145 HD
ENDBRANCH  12  13
ENDBRANCH  11  12
ENDBRANCH  10  11
ENDBRANCH   3   5
BRANCH   1  18
ATOM     18  C   UNL     1      -1.987  -0.024  -1.112  0.00  0.00    +0.019 C 
BRANCH  18  19
ATOM     19  N   UNL     1      -1.246  -0.514   0.058  0.00  0.00    +0.388 N 
ATOM     20  H   UNL     1      -0.311  -0.133   0.049  0.00  0.00    -0.081 HD
BRANCH  19  22
ATOM     21  C   UNL     1      -0.346  -2.416  -1.194  0.00  0.00    -0.017 C 
ATOM     22  C   UNL     1      -1.176  -1.981   0.015  0.00  0.00    -0.081 C 
ENDBRANCH  19  22
BRANCH  19  23
ATOM     23  C   UNL     1      -1.934  -0.093   1.286  0.00  0.00    -0.035 C 
BRANCH  23  24
ATOM     24  C   UNL     1      -1.111  -0.488   2.484  0.00  0.00    -0.027 A 
ATOM     25  C   UNL     1      -0.148   0.216   3.129  0.00  0.00    +0.009 A 
ATOM     26  C   UNL     1       0.481  -0.354   4.220  0.00  0.00    +0.008 A 
ATOM     27  C   UNL     1       0.118  -1.599   4.613  0.00  0.00    +0.045 A 
ATOM     28  S   UNL     1      -1.155  -2.003   3.428  0.00  0.00    -0.103 S 
ENDBRANCH  23  24
ENDBRANCH  19  23
ENDBRANCH  18  19
ENDBRANCH   1  18
TORSDOF 9
