REMARK  Name = ZINC17180112
REMARK  9 active torsions:
REMARK  status: ('A' for Active; 'I' for Inactive)
REMARK    1  A    between atoms: C_1  and  C_2
REMARK    2  A    between atoms: C_2  and  O_3
REMARK    3  A    between atoms: O_3  and  C_4
REMARK    4  A    between atoms: C_7  and  N_10
REMARK    5  A    between atoms: C_14  and  N_15
REMARK    6  A    between atoms: N_15  and  C_16
REMARK    7  A    between atoms: C_17  and  C_29
REMARK    8  A    between atoms: N_18  and  C_28
REMARK    9  A    between atoms: N_19  and  C_22
REMARK                            x       y       z     vdW  Elec       q    Type
REMARK                         _______ _______ _______ _____ _____    ______ ____
ROOT
ATOM      1  N   UNL     1      -1.786  -6.452  -1.289  0.00  0.00    -0.217 N 
ATOM      2  C   UNL     1      -3.044  -6.866  -1.034  0.00  0.00    +0.263 C 
ATOM      3  O   UNL     1      -3.976  -6.084  -1.060  0.00  0.00    -0.269 OA
ATOM      4  C   UNL     1      -3.259  -8.290  -0.722  0.00  0.00    +0.113 C 
ATOM      5  C   UNL     1      -4.522  -8.787  -0.450  0.00  0.00    +0.090 C 
ATOM      6  C   UNL     1      -2.072  -9.162  -0.714  0.00  0.00    +0.256 C 
ATOM      7  O   UNL     1      -2.170 -10.349  -0.466  0.00  0.00    -0.270 OA
ATOM      8  N   UNL     1      -0.872  -8.609  -0.989  0.00  0.00    -0.263 N 
ATOM      9  C   UNL     1      -0.750  -7.304  -1.269  0.00  0.00    +0.150 C 
ATOM     10  S   UNL     1       0.811  -6.691  -1.613  0.00  0.00    -0.018 S 
ATOM     11  H   UNL     1      -0.081  -9.169  -0.987  0.00  0.00    +0.157 HD
ENDROOT
BRANCH   1  15
ATOM     12  C   UNL     1      -1.104  -2.434  -2.178  0.00  0.00    +0.121 A 
ATOM     13  C   UNL     1      -1.140  -3.374  -3.198  0.00  0.00    +0.047 A 
ATOM     14  C   UNL     1      -1.365  -4.704  -2.905  0.00  0.00    +0.027 A 
ATOM     15  C   UNL     1      -1.556  -5.101  -1.588  0.00  0.00    +0.043 A 
ATOM     16  C   UNL     1      -1.519  -4.161  -0.568  0.00  0.00    +0.027 A 
ATOM     17  C   UNL     1      -1.289  -2.831  -0.862  0.00  0.00    +0.047 A 
BRANCH  12  18
ATOM     18  O   UNL     1      -0.882  -1.125  -2.468  0.00  0.00    -0.492 OA
BRANCH  18  20
ATOM     19  C   UNL     1      -0.464   0.720  -3.973  0.00  0.00    +0.048 C 
ATOM     20  C   UNL     1      -0.700  -0.787  -3.845  0.00  0.00    +0.225 C 
ENDBRANCH  18  20
ENDBRANCH  12  18
ENDBRANCH   1  15
BRANCH   5  21
ATOM     21  N   UNL     1      -4.670 -10.059  -0.037  0.00  0.00    -0.314 N 
ATOM     22  H   UNL     1      -3.889 -10.605   0.144  0.00  0.00    +0.152 HD
BRANCH  21  23
ATOM     23  C   UNL     1      -5.958 -10.598   0.132  0.00  0.00    +0.119 A 
ATOM     24  C   UNL     1      -6.256 -11.852   0.544  0.00  0.00    +0.059 A 
ATOM     25  N   UNL     1      -7.617 -11.989   0.580  0.00  0.00    -0.282 N 
ATOM     26  N   UNL     1      -8.210 -10.786   0.179  0.00  0.00    -0.216 N 
ATOM     27  C   UNL     1      -7.227  -9.906  -0.099  0.00  0.00    +0.293 A 
ATOM     28  O   UNL     1      -7.367  -8.755  -0.473  0.00  0.00    -0.264 OA
ATOM     29  C   UNL     1      -8.339 -13.201   0.975  0.00  0.00    +0.171 C 
ATOM     30  C   UNL     1      -5.255 -12.921   0.903  0.00  0.00    +0.067 C 
BRANCH  26  31
ATOM     31  C   UNL     1      -9.584 -10.538   0.089  0.00  0.00    +0.067 A 
ATOM     32  C   UNL     1     -10.119 -10.004  -1.076  0.00  0.00    +0.028 A 
ATOM     33  C   UNL     1     -11.476  -9.761  -1.162  0.00  0.00    +0.002 A 
ATOM     34  C   UNL     1     -12.301 -10.048  -0.091  0.00  0.00    +0.000 A 
ATOM     35  C   UNL     1     -11.771 -10.580   1.071  0.00  0.00    +0.002 A 
ATOM     36  C   UNL     1     -10.416 -10.831   1.161  0.00  0.00    +0.028 A 
ENDBRANCH  26  31
ENDBRANCH  21  23
ENDBRANCH   5  21
TORSDOF 6
