REMARK  Name = ZINC16430246
REMARK  15 active torsions:
REMARK  status: ('A' for Active; 'I' for Inactive)
REMARK    1  A    between atoms: C_1  and  C_2
REMARK    2  A    between atoms: C_2  and  C_3
REMARK    3  A    between atoms: C_6  and  C_9
REMARK    4  A    between atoms: N_11  and  C_12
REMARK    5  A    between atoms: N_11  and  C_16
REMARK    6  A    between atoms: C_12  and  C_13
REMARK    7  A    between atoms: C_13  and  N_76
REMARK    8  A    between atoms: C_14  and  N_76
REMARK    9  A    between atoms: C_15  and  N_76
REMARK   10  A    between atoms: C_16  and  C_18
REMARK   11  A    between atoms: C_16  and  C_20
REMARK   12  A    between atoms: C_18  and  C_19
REMARK   13  A    between atoms: N_30  and  C_31
REMARK   14  A    between atoms: C_34  and  C_37
REMARK   15  A    between atoms: C_37  and  C_38
REMARK                            x       y       z     vdW  Elec       q    Type
REMARK                         _______ _______ _______ _____ _____    ______ ____
ROOT
ATOM      1  C   UNL     1       2.649  -3.668  -0.319  0.00  0.00    +0.143 C 
ENDROOT
BRANCH   1   2
ATOM      2  C   UNL     1       3.410  -4.262  -1.476  0.00  0.00    +0.138 A 
ATOM      3  N   UNL     1       4.636  -3.877  -1.669  0.00  0.00    -0.231 NA
ATOM      4  C   UNL     1       5.384  -4.372  -2.687  0.00  0.00    +0.078 A 
ATOM      5  C   UNL     1       6.703  -3.963  -2.892  0.00  0.00    +0.028 A 
ATOM      6  C   UNL     1       7.424  -4.487  -3.941  0.00  0.00    +0.002 A 
ATOM      7  C   UNL     1       6.856  -5.419  -4.800  0.00  0.00    +0.001 A 
ATOM      8  C   UNL     1       5.557  -5.838  -4.618  0.00  0.00    +0.015 A 
ATOM      9  C   UNL     1       4.809  -5.321  -3.562  0.00  0.00    +0.065 A 
ATOM     10  C   UNL     1       3.419  -5.731  -3.319  0.00  0.00    +0.266 A 
ATOM     11  O   UNL     1       2.865  -6.543  -4.037  0.00  0.00    -0.267 OA
ATOM     12  N   UNL     1       2.778  -5.169  -2.268  0.00  0.00    -0.263 N 
BRANCH  12  13
ATOM     13  C   UNL     1       1.452  -5.526  -1.993  0.00  0.00    +0.051 A 
ATOM     14  C   UNL     1       1.158  -6.316  -0.889  0.00  0.00    +0.026 A 
ATOM     15  C   UNL     1      -0.151  -6.662  -0.618  0.00  0.00    +0.005 A 
ATOM     16  C   UNL     1      -1.168  -6.230  -1.449  0.00  0.00    -0.047 A 
ATOM     17  C   UNL     1      -0.879  -5.447  -2.551  0.00  0.00    +0.005 A 
ATOM     18  C   UNL     1       0.428  -5.094  -2.825  0.00  0.00    +0.026 A 
BRANCH  16  19
ATOM     19  C   UNL     1      -2.595  -6.614  -1.153  0.00  0.00    +0.032 C 
ATOM     20  C   UNL     1      -2.926  -7.931  -1.857  0.00  0.00    +0.009 C 
ENDBRANCH  16  19
ENDBRANCH  12  13
ENDBRANCH   1   2
BRANCH   1  23
ATOM     21  C   UNL     1       1.190  -1.741  -0.622  0.00  0.00    +0.247 C 
ATOM     22  O   UNL     1       0.237  -2.457  -0.381  0.00  0.00    -0.270 OA
ATOM     23  N   UNL     1       2.441  -2.237  -0.553  0.00  0.00    -0.289 N 
BRANCH  21  27
ATOM     24  C   UNL     1       0.575   2.326  -1.683  0.00  0.00    -0.048 A 
ATOM     25  C   UNL     1      -0.401   1.386  -1.964  0.00  0.00    +0.004 A 
ATOM     26  C   UNL     1      -0.208   0.064  -1.622  0.00  0.00    +0.013 A 
ATOM     27  C   UNL     1       0.975  -0.325  -0.991  0.00  0.00    +0.037 A 
ATOM     28  C   UNL     1       1.955   0.628  -0.711  0.00  0.00    +0.013 A 
ATOM     29  C   UNL     1       1.749   1.947  -1.058  0.00  0.00    +0.004 A 
BRANCH  24  31
ATOM     30  C   UNL     1      -0.323   4.501  -0.901  0.00  0.00    +0.009 C 
ATOM     31  C   UNL     1       0.357   3.769  -2.059  0.00  0.00    +0.032 C 
ENDBRANCH  24  31
ENDBRANCH  21  27
BRANCH  23  32
ATOM     32  C   UNL     1       3.592  -1.346  -0.713  0.00  0.00    +0.090 C 
BRANCH  32  33
ATOM     33  C   UNL     1       4.104  -0.922   0.665  0.00  0.00    -0.060 C 
BRANCH  33  36
ATOM     34  C   UNL     1       5.016   1.216  -0.015  0.00  0.00    -0.097 C 
ATOM     35  C   UNL     1       6.064  -0.034   1.775  0.00  0.00    -0.097 C 
ATOM     36  N   UNL     1       5.343  -0.135   0.489  0.00  0.00    +0.377 N 
ATOM     37  H   UNL     1       5.945  -0.609  -0.194  0.00  0.00    -0.083 HD
ENDBRANCH  33  36
ENDBRANCH  32  33
ENDBRANCH  23  32
ENDBRANCH   1  23
BRANCH   1  38
ATOM     38  C   UNL     1       3.448  -3.862   0.971  0.00  0.00    +0.027 C 
ATOM     39  C   UNL     1       2.659  -3.293   2.151  0.00  0.00    +0.006 C 
ENDBRANCH   1  38
TORSDOF 10
