REMARK  Name = ZINC66556826
REMARK  6 active torsions:
REMARK  status: ('A' for Active; 'I' for Inactive)
REMARK    1  A    between atoms: C_1  and  C_2
REMARK    2  A    between atoms: C_2  and  N_3
REMARK    3  A    between atoms: C_9  and  C_16
REMARK    4  A    between atoms: N_18  and  N_19
REMARK    5  A    between atoms: C_20  and  C_22
REMARK    6  A    between atoms: C_23  and  C_27
REMARK                            x       y       z     vdW  Elec       q    Type
REMARK                         _______ _______ _______ _____ _____    ______ ____
ROOT
ATOM      1  N   UNL     1       0.688  -0.476  -1.203  0.00  0.00    -0.261 N 
ATOM      2  C   UNL     1      -0.026  -0.696  -2.329  0.00  0.00    +0.264 A 
ATOM      3  O   UNL     1      -1.227  -0.505  -2.352  0.00  0.00    -0.267 OA
ATOM      4  C   UNL     1       0.689  -1.171  -3.529  0.00  0.00    +0.063 A 
ATOM      5  C   UNL     1       0.020  -1.419  -4.726  0.00  0.00    +0.016 A 
ATOM      6  C   UNL     1       0.725  -1.862  -5.824  0.00  0.00    +0.014 A 
ATOM      7  C   UNL     1       2.106  -2.063  -5.740  0.00  0.00    +0.040 A 
ATOM      8  C   UNL     1       2.781  -1.818  -4.546  0.00  0.00    +0.039 A 
ATOM      9  C   UNL     1       2.077  -1.372  -3.439  0.00  0.00    +0.056 A 
ATOM     10  N   UNL     1       2.712  -1.116  -2.232  0.00  0.00    -0.307 N 
ATOM     11  H   UNL     1       3.670  -1.249  -2.155  0.00  0.00    +0.170 HD
ATOM     12  C   UNL     1       2.014  -0.678  -1.170  0.00  0.00    +0.330 A 
ATOM     13  O   UNL     1       2.610  -0.461  -0.132  0.00  0.00    -0.246 OA
ENDROOT
BRANCH   7  14
ATOM     14  C   UNL     1       2.854  -2.539  -6.925  0.00  0.00    +0.260 C 
ATOM     15  O   UNL     1       4.054  -2.716  -6.856  0.00  0.00    -0.269 OA
ATOM     16  N   UNL     1       2.204  -2.778  -8.082  0.00  0.00    -0.230 N 
ATOM     17  H   UNL     1       1.246  -2.637  -8.137  0.00  0.00    +0.173 HD
BRANCH  16  18
ATOM     18  N   UNL     1       2.912  -3.228  -9.203  0.00  0.00    -0.230 N 
ATOM     19  C   UNL     1       2.262  -3.467 -10.360  0.00  0.00    +0.267 C 
ATOM     20  O   UNL     1       1.060  -3.290 -10.429  0.00  0.00    -0.268 OA
ATOM     21  H   UNL     1       3.870  -3.369  -9.148  0.00  0.00    +0.173 HD
BRANCH  19  22
ATOM     22  C   UNL     1       3.002  -3.938 -11.533  0.00  0.00    +0.078 A 
ATOM     23  C   UNL     1       2.531  -4.234 -12.803  0.00  0.00    -0.031 A 
ATOM     24  C   UNL     1       3.476  -4.659 -13.706  0.00  0.00    +0.011 A 
ATOM     25  C   UNL     1       4.769  -4.760 -13.310  0.00  0.00    +0.046 A 
ATOM     26  S   UNL     1       4.745  -4.274 -11.702  0.00  0.00    -0.092 S 
ATOM     27  C   UNL     1       1.076  -4.098 -13.170  0.00  0.00    +0.045 C 
ENDBRANCH  19  22
ENDBRANCH  16  18
ENDBRANCH   7  14
BRANCH   1  29
ATOM     28  C   UNL     1      -0.019   1.526   0.010  0.00  0.00    +0.027 C 
ATOM     29  C   UNL     1       0.002  -0.004   0.002  0.00  0.00    +0.126 C 
ENDBRANCH   1  29
TORSDOF 4
