REMARK  Name = ZINC01961383
REMARK  6 active torsions:
REMARK  status: ('A' for Active; 'I' for Inactive)
REMARK    1  A    between atoms: C_1  and  C_2
REMARK    2  A    between atoms: C_2  and  C_3
REMARK    3  A    between atoms: C_2  and  C_4
REMARK    4  A    between atoms: C_2  and  C_5
REMARK    5  A    between atoms: N_16  and  C_19
REMARK    6  A    between atoms: C_19  and  C_20
REMARK                            x       y       z     vdW  Elec       q    Type
REMARK                         _______ _______ _______ _____ _____    ______ ____
ROOT
ATOM      1  C   UNL     1       0.002  -0.004   0.002  0.00  0.00    -0.000 C 
ATOM      2  C   UNL     1       0.742  -0.515   1.242  0.00  0.00    +0.009 C 
ATOM      3  C   UNL     1       0.985  -2.019   1.118  0.00  0.00    +0.037 C 
ATOM      4  C   UNL     1      -0.342  -2.711   0.817  0.00  0.00    -0.023 A 
ATOM      5  C   UNL     1      -1.391  -2.005   0.335  0.00  0.00    -0.004 A 
ATOM      6  S   UNL     1      -2.697  -3.192   0.137  0.00  0.00    -0.073 S 
ATOM      7  C   UNL     1      -1.836  -4.626   0.698  0.00  0.00    +0.116 A 
ATOM      8  C   UNL     1      -0.553  -4.133   1.023  0.00  0.00    +0.076 A 
ATOM      9  C   UNL     1       0.404  -5.081   1.520  0.00  0.00    +0.263 A 
ATOM     10  O   UNL     1       1.538  -4.758   1.828  0.00  0.00    -0.267 OA
ATOM     11  N   UNL     1      -0.035  -6.358   1.623  0.00  0.00    -0.290 N 
ATOM     12  C   UNL     1      -1.290  -6.738   1.285  0.00  0.00    +0.203 A 
ATOM     13  N   UNL     1      -2.194  -5.900   0.827  0.00  0.00    -0.230 NA
ATOM     14  C   UNL     1      -1.437  -0.539   0.034  0.00  0.00    +0.046 C 
ENDROOT
BRANCH   1  16
ATOM     15  C   UNL     1       1.417   2.055  -0.000  0.00  0.00    +0.011 C 
ATOM     16  C   UNL     1      -0.019   1.526   0.010  0.00  0.00    -0.035 C 
ATOM     17  C   UNL     1      -0.759   2.033  -1.229  0.00  0.00    +0.011 C 
ATOM     18  C   UNL     1      -0.735   2.019   1.269  0.00  0.00    +0.011 C 
ENDBRANCH   1  16
BRANCH  11  19
ATOM     19  C   UNL     1       0.892  -7.376   2.123  0.00  0.00    +0.222 C 
BRANCH  19  20
ATOM     20  C   UNL     1       0.775  -7.468   3.623  0.00  0.00    +0.235 C 
ATOM     21  O   UNL     1      -0.006  -6.754   4.215  0.00  0.00    -0.274 OA
ATOM     22  N   UNL     1       1.538  -8.345   4.306  0.00  0.00    -0.300 N 
ATOM     23  C   UNL     1       2.454  -9.186   3.570  0.00  0.00    +0.108 C 
ATOM     24  C   UNL     1       1.747 -10.490   3.147  0.00  0.00    +0.019 C 
ATOM     25  C   UNL     1       1.516 -11.349   4.319  0.00  0.00    +0.002 C 
ATOM     26  C   UNL     1       0.594 -10.741   5.371  0.00  0.00    +0.002 C 
ATOM     27  C   UNL     1       1.399  -9.860   6.293  0.00  0.00    +0.019 C 
ATOM     28  C   UNL     1       1.398  -8.410   5.774  0.00  0.00    +0.108 C 
ENDBRANCH  19  20
ENDBRANCH  11  19
TORSDOF 3
