REMARK  Name = ZINC65988965
REMARK  12 active torsions:
REMARK  status: ('A' for Active; 'I' for Inactive)
REMARK    1  A    between atoms: C_1  and  C_2
REMARK    2  A    between atoms: C_2  and  C_3
REMARK    3  A    between atoms: C_3  and  C_4
REMARK    4  A    between atoms: C_3  and  N_5
REMARK    5  A    between atoms: C_6  and  C_8
REMARK    6  A    between atoms: C_8  and  C_9
REMARK    7  A    between atoms: C_8  and  N_10
REMARK    8  A    between atoms: N_13  and  C_14
REMARK    9  A    between atoms: C_14  and  C_15
REMARK   10  A    between atoms: C_15  and  C_16
REMARK   11  A    between atoms: C_15  and  N_18
REMARK   12  A    between atoms: C_16  and  C_17
REMARK                            x       y       z     vdW  Elec       q    Type
REMARK                         _______ _______ _______ _____ _____    ______ ____
ROOT
ATOM      1  N   UNL     1       5.498   1.504   3.097  0.00  0.00    -0.288 N 
ATOM      2  C   UNL     1       6.665   0.947   3.477  0.00  0.00    +0.300 C 
ATOM      3  O   UNL     1       7.355   0.366   2.661  0.00  0.00    -0.253 OA
ATOM      4  N   UNL     1       7.068   1.034   4.760  0.00  0.00    -0.301 N 
ATOM      5  H   UNL     1       4.948   1.968   3.748  0.00  0.00    +0.151 HD
ATOM      6  H   UNL     1       6.517   1.498   5.410  0.00  0.00    +0.150 HD
ENDROOT
BRANCH   1   7
ATOM      7  C   UNL     1       5.061   1.410   1.702  0.00  0.00    +0.157 C 
ATOM      8  C   UNL     1       5.696   2.541   0.891  0.00  0.00    +0.038 C 
BRANCH   7  10
ATOM      9  N   UNL     1       2.930   1.467   0.447  0.00  0.00    -0.311 N 
ATOM     10  C   UNL     1       3.560   1.526   1.637  0.00  0.00    +0.233 C 
ATOM     11  O   UNL     1       2.918   1.674   2.656  0.00  0.00    -0.274 OA
ATOM     12  H   UNL     1       3.443   1.349  -0.367  0.00  0.00    +0.149 HD
BRANCH   9  13
ATOM     13  C   UNL     1       1.470   1.580   0.384  0.00  0.00    +0.070 C 
ATOM     14  C   UNL     1       0.842   0.206   0.621  0.00  0.00    +0.028 C 
BRANCH  13  16
ATOM     15  C   UNL     1       1.583   3.525  -1.181  0.00  0.00    +0.005 C 
ATOM     16  C   UNL     1       1.058   2.099  -0.995  0.00  0.00    +0.018 C 
ENDBRANCH  13  16
ENDBRANCH   9  13
ENDBRANCH   7  10
ENDBRANCH   1   7
BRANCH   4  17
ATOM     17  C   UNL     1       8.336   0.429   5.172  0.00  0.00    +0.090 C 
BRANCH  17  18
ATOM     18  C   UNL     1       8.475   0.521   6.693  0.00  0.00    -0.051 C 
BRANCH  18  19
ATOM     19  N   UNL     1       7.583  -0.460   7.327  0.00  0.00    +0.385 N 
ATOM     20  C   UNL     1       7.833  -1.792   6.756  0.00  0.00    -0.073 C 
ATOM     21  C   UNL     1       7.131  -2.835   7.627  0.00  0.00    +0.017 C 
ATOM     22  C   UNL     1       5.692  -2.438   7.837  0.00  0.00    -0.048 A 
ATOM     23  C   UNL     1       4.799  -3.394   8.295  0.00  0.00    +0.004 A 
ATOM     24  C   UNL     1       3.473  -3.067   8.502  0.00  0.00    +0.000 A 
ATOM     25  C   UNL     1       3.036  -1.780   8.252  0.00  0.00    +0.000 A 
ATOM     26  C   UNL     1       3.924  -0.828   7.794  0.00  0.00    +0.002 A 
ATOM     27  C   UNL     1       5.255  -1.155   7.584  0.00  0.00    -0.061 A 
ATOM     28  C   UNL     1       6.188  -0.087   7.077  0.00  0.00    -0.042 C 
ATOM     29  H   UNL     1       7.755  -0.479   8.321  0.00  0.00    -0.081 HD
ENDBRANCH  18  19
BRANCH  18  30
ATOM     30  C   UNL     1       9.922   0.227   7.092  0.00  0.00    -0.017 C 
ATOM     31  C   UNL     1      10.096   0.464   8.594  0.00  0.00    +0.002 C 
ENDBRANCH  18  30
ENDBRANCH  17  18
ENDBRANCH   4  17
TORSDOF 8
