REMARK  Name = ZINC06186871
REMARK  14 active torsions:
REMARK  status: ('A' for Active; 'I' for Inactive)
REMARK    1  A    between atoms: C_1  and  N_60
REMARK    2  A    between atoms: C_2  and  N_60
REMARK    3  A    between atoms: C_3  and  C_4
REMARK    4  A    between atoms: C_3  and  N_60
REMARK    5  A    between atoms: C_4  and  N_5
REMARK    6  A    between atoms: N_5  and  S_6
REMARK    7  A    between atoms: S_6  and  C_9
REMARK    8  A    between atoms: C_20  and  S_22
REMARK    9  A    between atoms: S_22  and  N_25
REMARK   10  A    between atoms: N_25  and  C_26
REMARK   11  A    between atoms: C_26  and  C_27
REMARK   12  A    between atoms: C_27  and  N_62
REMARK   13  A    between atoms: C_28  and  N_62
REMARK   14  A    between atoms: C_29  and  N_62
REMARK                            x       y       z     vdW  Elec       q    Type
REMARK                         _______ _______ _______ _____ _____    ______ ____
ROOT
ATOM      1  C   UNL     1      -0.017   1.379   0.010  0.00  0.00    +0.106 A 
ATOM      2  C   UNL     1       1.171   2.089   0.002  0.00  0.00    +0.029 A 
ATOM      3  C   UNL     1       2.378   1.423  -0.014  0.00  0.00    +0.011 A 
ATOM      4  C   UNL     1       2.405   0.027  -0.021  0.00  0.00    -0.014 A 
ATOM      5  C   UNL     1       1.205  -0.678  -0.013  0.00  0.00    -0.033 A 
ATOM      6  C   UNL     1       0.002  -0.004   0.002  0.00  0.00    +0.033 A 
ATOM      7  C   UNL     1       1.542  -2.149  -0.023  0.00  0.00    +0.071 C 
ATOM      8  C   UNL     1       3.049  -2.231  -0.038  0.00  0.00    -0.033 A 
ATOM      9  C   UNL     1       3.540  -0.929  -0.036  0.00  0.00    -0.014 A 
ATOM     10  C   UNL     1       4.920  -0.717  -0.047  0.00  0.00    +0.011 A 
ATOM     11  C   UNL     1       5.782  -1.794  -0.059  0.00  0.00    +0.029 A 
ATOM     12  C   UNL     1       5.284  -3.085  -0.061  0.00  0.00    +0.106 A 
ATOM     13  C   UNL     1       3.918  -3.302  -0.051  0.00  0.00    +0.033 A 
ENDROOT
BRANCH   1  14
ATOM     14  S   UNL     1      -1.555   2.238   0.022  0.00  0.00    +0.058 S 
ATOM     15  O   UNL     1      -1.305   3.526  -0.523  0.00  0.00    -0.153 OA
ATOM     16  O   UNL     1      -2.519   1.352  -0.529  0.00  0.00    -0.153 OA
BRANCH  14  17
ATOM     17  N   UNL     1      -1.975   2.468   1.607  0.00  0.00    -0.192 NA
ATOM     18  H   UNL     1      -2.766   2.037   1.967  0.00  0.00    +0.148 HD
BRANCH  17  19
ATOM     19  C   UNL     1      -1.152   3.324   2.466  0.00  0.00    +0.087 C 
BRANCH  19  20
ATOM     20  C   UNL     1      -1.931   3.671   3.736  0.00  0.00    -0.063 C 
BRANCH  20  23
ATOM     21  C   UNL     1      -0.867   5.833   3.966  0.00  0.00    -0.097 C 
ATOM     22  C   UNL     1      -1.720   4.689   5.922  0.00  0.00    -0.097 C 
ATOM     23  N   UNL     1      -1.081   4.516   4.601  0.00  0.00    +0.377 N 
ATOM     24  H   UNL     1      -0.172   4.055   4.728  0.00  0.00    -0.083 HD
ENDBRANCH  20  23
ENDBRANCH  19  20
ENDBRANCH  17  19
ENDBRANCH  14  17
ENDBRANCH   1  14
BRANCH  12  25
ATOM     25  S   UNL     1       6.392  -4.455  -0.077  0.00  0.00    +0.058 S 
ATOM     26  O   UNL     1       7.620  -3.990   0.465  0.00  0.00    -0.153 OA
ATOM     27  O   UNL     1       5.684  -5.557   0.474  0.00  0.00    -0.153 OA
BRANCH  25  28
ATOM     28  N   UNL     1       6.686  -4.829  -1.664  0.00  0.00    -0.192 NA
ATOM     29  H   UNL     1       6.395  -5.681  -2.023  0.00  0.00    +0.148 HD
BRANCH  28  30
ATOM     30  C   UNL     1       7.387  -3.872  -2.524  0.00  0.00    +0.087 C 
BRANCH  30  31
ATOM     31  C   UNL     1       7.859  -4.579  -3.795  0.00  0.00    -0.063 C 
BRANCH  31  34
ATOM     32  C   UNL     1       9.808  -3.162  -4.029  0.00  0.00    -0.097 C 
ATOM     33  C   UNL     1       8.821  -4.196  -5.984  0.00  0.00    -0.097 C 
ATOM     34  N   UNL     1       8.544  -3.597  -4.661  0.00  0.00    +0.377 N 
ATOM     35  H   UNL     1       7.935  -2.780  -4.786  0.00  0.00    -0.083 HD
ENDBRANCH  31  34
ENDBRANCH  30  31
ENDBRANCH  28  30
ENDBRANCH  25  28
ENDBRANCH  12  25
TORSDOF 10
