REMARK  Name = ZINC09046325
REMARK  7 active torsions:
REMARK  status: ('A' for Active; 'I' for Inactive)
REMARK    1  A    between atoms: C_1  and  N_41
REMARK    2  A    between atoms: C_7  and  N_13
REMARK    3  A    between atoms: C_8  and  C_9
REMARK    4  A    between atoms: C_9  and  O_11
REMARK    5  A    between atoms: O_11  and  C_12
REMARK    6  A    between atoms: C_14  and  C_15
REMARK    7  A    between atoms: C_20  and  O_21
REMARK                            x       y       z     vdW  Elec       q    Type
REMARK                         _______ _______ _______ _____ _____    ______ ____
ROOT
ATOM      1  C   UNL     1      -7.992  -5.790  -0.157  0.00  0.00    -0.096 C 
ATOM      2  C   UNL     1      -5.706  -6.278   0.476  0.00  0.00    -0.074 C 
ATOM      3  C   UNL     1      -4.254  -6.125   0.016  0.00  0.00    +0.018 C 
ATOM      4  C   UNL     1      -3.907  -4.638   0.016  0.00  0.00    -0.025 A 
ATOM      5  C   UNL     1      -4.904  -3.718   0.030  0.00  0.00    -0.021 A 
ATOM      6  S   UNL     1      -4.071  -2.155   0.039  0.00  0.00    -0.075 S 
ATOM      7  C   UNL     1      -2.391  -2.763   0.011  0.00  0.00    +0.115 A 
ATOM      8  C   UNL     1      -2.589  -4.151   0.005  0.00  0.00    +0.095 A 
ATOM      9  C   UNL     1      -6.374  -3.992   0.041  0.00  0.00    -0.036 C 
ATOM     10  N   UNL     1      -6.575  -5.410  -0.344  0.00  0.00    +0.381 N 
ATOM     11  H   UNL     1      -6.326  -5.526  -1.334  0.00  0.00    -0.082 HD
ENDROOT
BRANCH   8  12
ATOM     12  C   UNL     1      -1.449  -5.071  -0.011  0.00  0.00    +0.342 C 
ATOM     13  O   UNL     1      -0.965  -5.458   1.036  0.00  0.00    -0.245 OA
BRANCH  12  14
ATOM     14  O   UNL     1      -0.936  -5.488  -1.186  0.00  0.00    -0.464 OA
ATOM     15  C   UNL     1       0.193  -6.399  -1.126  0.00  0.00    +0.280 C 
ENDBRANCH  12  14
ENDBRANCH   8  12
BRANCH   7  16
ATOM     16  N   UNL     1      -1.234  -2.068   0.003  0.00  0.00    -0.247 NA
ATOM     17  C   UNL     1      -1.256  -0.760   0.011  0.00  0.00    +0.123 C 
BRANCH  17  18
ATOM     18  C   UNL     1       0.002  -0.004   0.002  0.00  0.00    +0.037 A 
ATOM     19  C   UNL     1      -0.017   1.396   0.010  0.00  0.00    +0.028 A 
ATOM     20  C   UNL     1       1.169   2.099   0.002  0.00  0.00    +0.020 A 
ATOM     21  C   UNL     1       2.381   1.426  -0.013  0.00  0.00    +0.034 A 
ATOM     22  C   UNL     1       2.414   0.044  -0.021  0.00  0.00    +0.061 A 
ATOM     23  C   UNL     1       1.232  -0.680  -0.013  0.00  0.00    +0.139 A 
ATOM     24 BR   UNL     1       4.076  -0.859  -0.041  0.00  0.00    -0.046 Br
ATOM     25 BR   UNL     1       1.142   3.989   0.012  0.00  0.00    -0.050 Br
BRANCH  23  26
ATOM     26  O   UNL     1       1.264  -2.037  -0.021  0.00  0.00    -0.505 OA
ATOM     27  H   UNL     1       1.265  -2.425  -0.907  0.00  0.00    +0.292 HD
ENDBRANCH  23  26
ENDBRANCH  17  18
ENDBRANCH   7  16
TORSDOF 5
