REMARK  Name = ZINC01693758
REMARK  2 active torsions:
REMARK  status: ('A' for Active; 'I' for Inactive)
REMARK    1  A    between atoms: C_1  and  N_2
REMARK    2  A    between atoms: C_10  and  C_11
REMARK                            x       y       z     vdW  Elec       q    Type
REMARK                         _______ _______ _______ _____ _____    ______ ____
ROOT
ATOM      1  C   UNL     1       1.715  -1.856  -0.024  0.00  0.00    +0.152 C 
ATOM      2  N   UNL     1       1.288  -0.455  -0.013  0.00  0.00    -0.318 N 
ATOM      3  C   UNL     1       0.002  -0.004   0.002  0.00  0.00    +0.201 A 
ATOM      4  N   UNL     1      -0.016   1.297   0.009  0.00  0.00    -0.232 NA
ATOM      5  C   UNL     1       1.256   1.766  -0.001  0.00  0.00    +0.138 A 
ATOM      6  C   UNL     1       2.110   0.644  -0.015  0.00  0.00    +0.165 A 
ATOM      7  N   UNL     1       3.422   0.834  -0.026  0.00  0.00    -0.198 NA
ATOM      8  C   UNL     1       3.920   2.054  -0.024  0.00  0.00    +0.225 A 
ATOM      9  N   UNL     1       3.154   3.131  -0.011  0.00  0.00    -0.211 NA
ATOM     10  C   UNL     1       1.835   3.036   0.001  0.00  0.00    +0.176 A 
ATOM     11 CL   UNL     1       5.645   2.254  -0.040  0.00  0.00    -0.041 Cl
ENDROOT
BRANCH  10  12
ATOM     12  C   UNL     1       0.975   4.273   0.015  0.00  0.00    +0.436 C 
ATOM     13  F   UNL     1       0.721   4.649   1.339  0.00  0.00    -0.164 F 
ATOM     14  F   UNL     1       1.640   5.311  -0.645  0.00  0.00    -0.164 F 
ATOM     15  F   UNL     1      -0.235   4.007  -0.635  0.00  0.00    -0.164 F 
ENDBRANCH  10  12
TORSDOF 1
