REMARK  Name = ZINC64048546
REMARK  5 active torsions:
REMARK  status: ('A' for Active; 'I' for Inactive)
REMARK    1  A    between atoms: C_1  and  C_2
REMARK    2  A    between atoms: C_4  and  C_13
REMARK    3  A    between atoms: N_15  and  N_16
REMARK    4  A    between atoms: C_17  and  C_19
REMARK    5  A    between atoms: C_20  and  C_24
REMARK                            x       y       z     vdW  Elec       q    Type
REMARK                         _______ _______ _______ _____ _____    ______ ____
ROOT
ATOM      1  C   UNL     1       0.344  -0.262  -2.642  0.00  0.00    +0.261 C 
ATOM      2  O   UNL     1       1.016  -0.728  -3.539  0.00  0.00    -0.269 OA
ATOM      3  N   UNL     1      -0.747   0.476  -2.929  0.00  0.00    -0.230 N 
ATOM      4  H   UNL     1      -1.284   0.848  -2.212  0.00  0.00    +0.173 HD
ENDROOT
BRANCH   1   7
ATOM      5  C   UNL     1      -0.019   1.526   0.010  0.00  0.00    +0.057 C 
ATOM      6  C   UNL     1       0.002  -0.004   0.002  0.00  0.00    +0.208 C 
ATOM      7  C   UNL     1       0.723  -0.506  -1.229  0.00  0.00    +0.073 C 
ATOM      8  C   UNL     1       1.784  -1.222  -0.784  0.00  0.00    +0.112 C 
ATOM      9  C   UNL     1       1.783  -1.207   0.691  0.00  0.00    +0.230 C 
ATOM     10  N   UNL     1       2.752  -1.859   1.312  0.00  0.00    -0.203 NA
ATOM     11  C   UNL     1       3.696  -2.506   0.647  0.00  0.00    +0.215 C 
ATOM     12  N   UNL     1       3.778  -2.576  -0.658  0.00  0.00    -0.164 NA
ATOM     13  C   UNL     1       2.876  -1.970  -1.452  0.00  0.00    +0.274 C 
ATOM     14  O   UNL     1       2.953  -2.035  -2.666  0.00  0.00    -0.268 OA
ATOM     15  O   UNL     1       0.734  -0.490   1.131  0.00  0.00    -0.468 OA
ENDBRANCH   1   7
BRANCH   3  16
ATOM     16  N   UNL     1      -1.105   0.706  -4.264  0.00  0.00    -0.230 N 
ATOM     17  C   UNL     1      -2.196   1.444  -4.552  0.00  0.00    +0.259 C 
ATOM     18  O   UNL     1      -2.869   1.910  -3.652  0.00  0.00    -0.269 OA
ATOM     19  H   UNL     1      -0.568   0.334  -4.981  0.00  0.00    +0.173 HD
BRANCH  17  20
ATOM     20  C   UNL     1      -2.558   1.676  -5.903  0.00  0.00    +0.056 C 
ATOM     21  C   UNL     1      -3.608   2.393  -6.337  0.00  0.00    +0.103 C 
ATOM     22  O   UNL     1      -3.705   2.430  -7.677  0.00  0.00    -0.496 OA
ATOM     23  C   UNL     1      -2.438   2.052  -8.248  0.00  0.00    +0.233 C 
ATOM     24  C   UNL     1      -1.828   1.169  -7.135  0.00  0.00    +0.085 C 
ATOM     25  C   UNL     1      -4.580   3.084  -5.415  0.00  0.00    +0.086 C 
ENDBRANCH  17  20
ENDBRANCH   3  16
TORSDOF 3
