REMARK  Name = ZINC39931911
REMARK  3 active torsions:
REMARK  status: ('A' for Active; 'I' for Inactive)
REMARK    1  A    between atoms: C_4  and  N_7
REMARK    2  A    between atoms: N_15  and  S_19
REMARK    3  A    between atoms: S_19  and  C_22
REMARK                            x       y       z     vdW  Elec       q    Type
REMARK                         _______ _______ _______ _____ _____    ______ ____
ROOT
ATOM      1  N   UNL     1       3.622  -0.651  -0.036  0.00  0.00    -0.236 N 
ATOM      2  C   UNL     1       3.823  -2.085  -0.052  0.00  0.00    +0.188 C 
ATOM      3  C   UNL     1       5.166  -2.192   0.730  0.00  0.00    +0.202 C 
ATOM      4  N   UNL     1       5.846  -1.013   0.223  0.00  0.00    -0.279 N 
ATOM      5  C   UNL     1       4.869  -0.103  -0.046  0.00  0.00    +0.309 C 
ATOM      6  O   UNL     1       5.085   1.073  -0.270  0.00  0.00    -0.252 OA
ATOM      7  N   UNL     1       5.668  -3.522   0.425  0.00  0.00    -0.152 NA
ATOM      8  C   UNL     1       4.760  -4.621   0.839  0.00  0.00    +0.127 C 
ATOM      9  C   UNL     1       3.339  -4.374   0.338  0.00  0.00    +0.100 C 
ATOM     10  N   UNL     1       2.905  -2.993   0.594  0.00  0.00    -0.294 NA
ATOM     11  H   UNL     1       6.801  -0.897   0.099  0.00  0.00    +0.152 HD
ATOM     12  H   UNL     1       2.852  -2.811   1.584  0.00  0.00    +0.124 HD
ENDROOT
BRANCH   1  16
ATOM     13  C   UNL     1      -0.017   1.379   0.010  0.00  0.00    +0.000 A 
ATOM     14  C   UNL     1       1.170   2.089   0.002  0.00  0.00    +0.002 A 
ATOM     15  C   UNL     1       2.377   1.419  -0.013  0.00  0.00    +0.023 A 
ATOM     16  C   UNL     1       2.400   0.031  -0.021  0.00  0.00    +0.039 A 
ATOM     17  C   UNL     1       1.207  -0.680  -0.013  0.00  0.00    +0.023 A 
ATOM     18  C   UNL     1       0.002  -0.004   0.002  0.00  0.00    +0.002 A 
ENDBRANCH   1  16
BRANCH   7  19
ATOM     19  S   UNL     1       7.124  -3.788  -0.318  0.00  0.00    +0.063 S 
ATOM     20  O   UNL     1       7.036  -5.062  -0.941  0.00  0.00    -0.153 OA
ATOM     21  O   UNL     1       7.431  -2.606  -1.044  0.00  0.00    -0.153 OA
BRANCH  19  22
ATOM     22  C   UNL     1       8.338  -3.931   0.950  0.00  0.00    +0.106 A 
ATOM     23  C   UNL     1       9.001  -2.805   1.403  0.00  0.00    +0.028 A 
ATOM     24  C   UNL     1       9.953  -2.917   2.398  0.00  0.00    +0.002 A 
ATOM     25  C   UNL     1      10.243  -4.154   2.942  0.00  0.00    +0.000 A 
ATOM     26  C   UNL     1       9.580  -5.280   2.490  0.00  0.00    +0.002 A 
ATOM     27  C   UNL     1       8.624  -5.167   1.498  0.00  0.00    +0.028 A 
ENDBRANCH  19  22
ENDBRANCH   7  19
TORSDOF 3
