REMARK  Name = ZINC19354132
REMARK  3 active torsions:
REMARK  status: ('A' for Active; 'I' for Inactive)
REMARK    1  A    between atoms: C_1  and  O_2
REMARK    2  A    between atoms: O_2  and  C_3
REMARK    3  A    between atoms: C_5  and  C_13
REMARK                            x       y       z     vdW  Elec       q    Type
REMARK                         _______ _______ _______ _____ _____    ______ ____
ROOT
ATOM      1  C   UNL     1      -4.838   1.477   3.744  0.00  0.00    +0.218 C 
ATOM      2  N   UNL     1      -6.123   2.174   3.552  0.00  0.00    -0.337 N 
ATOM      3  C   UNL     1      -7.215   1.483   3.101  0.00  0.00    +0.159 C 
ATOM      4  N   UNL     1      -7.374   0.197   3.360  0.00  0.00    -0.259 N 
ATOM      5  C   UNL     1      -6.389  -0.453   4.026  0.00  0.00    +0.205 A 
ATOM      6  N   UNL     1      -5.158   0.135   4.244  0.00  0.00    -0.286 N 
ATOM      7  C   UNL     1      -4.391  -0.754   4.960  0.00  0.00    +0.076 A 
ATOM      8  C   UNL     1      -3.098  -0.730   5.467  0.00  0.00    +0.077 A 
ATOM      9  C   UNL     1      -2.610  -1.821   6.159  0.00  0.00    +0.164 A 
ATOM     10  C   UNL     1      -3.406  -2.946   6.355  0.00  0.00    +0.164 A 
ATOM     11  C   UNL     1      -4.692  -2.987   5.860  0.00  0.00    +0.079 A 
ATOM     12  C   UNL     1      -5.199  -1.890   5.155  0.00  0.00    +0.095 A 
ATOM     13  N   UNL     1      -6.399  -1.645   4.561  0.00  0.00    -0.214 NA
ATOM     14  O   UNL     1      -2.904  -4.015   7.043  0.00  0.00    -0.488 OA
ATOM     15  C   UNL     1      -2.668  -3.807   8.437  0.00  0.00    +0.232 C 
ATOM     16  C   UNL     1      -1.309  -3.166   8.665  0.00  0.00    +0.082 C 
ATOM     17  C   UNL     1      -1.224  -1.765   8.080  0.00  0.00    +0.232 C 
ATOM     18  O   UNL     1      -1.338  -1.802   6.657  0.00  0.00    -0.488 OA
ATOM     19  N   UNL     1      -8.165   2.139   2.365  0.00  0.00    -0.332 N 
ATOM     20  H   UNL     1      -9.047   1.596   1.996  0.00  0.00    +0.145 HD
ATOM     21  H   UNL     1      -8.289  -0.321   3.036  0.00  0.00    +0.158 HD
ATOM     22  H   UNL     1      -8.045   3.210   2.142  0.00  0.00    +0.145 HD
ATOM     23  H   UNL     1      -6.204   3.249   3.772  0.00  0.00    +0.164 HD
ENDROOT
BRANCH   1  26
ATOM     24  C   UNL     1      -4.137   1.059   0.054  0.00  0.00    +0.166 A 
ATOM     25  C   UNL     1      -4.809   1.153   1.263  0.00  0.00    +0.057 A 
ATOM     26  C   UNL     1      -4.105   1.376   2.431  0.00  0.00    +0.003 A 
ATOM     27  C   UNL     1      -2.729   1.507   2.398  0.00  0.00    +0.057 A 
ATOM     28  C   UNL     1      -2.049   1.415   1.192  0.00  0.00    +0.166 A 
ATOM     29  C   UNL     1      -2.753   1.189   0.017  0.00  0.00    +0.204 A 
ATOM     30  O   UNL     1      -2.104   1.092  -1.177  0.00  0.00    -0.482 OA
ATOM     31  C   UNL     1      -0.767   1.600  -1.226  0.00  0.00    +0.270 C 
ATOM     32  C   UNL     1      -0.013   1.086   0.008  0.00  0.00    +0.270 C 
ATOM     33  O   UNL     1      -0.694   1.553   1.177  0.00  0.00    -0.485 OA
BRANCH  24  35
ATOM     34  C   UNL     1      -6.250   0.717  -0.982  0.00  0.00    +0.277 C 
ATOM     35  O   UNL     1      -4.831   0.841  -1.095  0.00  0.00    -0.491 OA
ENDBRANCH  24  35
ENDBRANCH   1  26
TORSDOF 2
