REMARK  Name = ZINC37615095
REMARK  8 active torsions:
REMARK  status: ('A' for Active; 'I' for Inactive)
REMARK    1  A    between atoms: C_1  and  C_2
REMARK    2  A    between atoms: C_2  and  O_3
REMARK    3  A    between atoms: O_3  and  C_4
REMARK    4  A    between atoms: C_5  and  N_12
REMARK    5  A    between atoms: C_13  and  C_15
REMARK    6  A    between atoms: C_15  and  C_16
REMARK    7  A    between atoms: C_15  and  C_17
REMARK    8  A    between atoms: C_15  and  N_20
REMARK                            x       y       z     vdW  Elec       q    Type
REMARK                         _______ _______ _______ _____ _____    ______ ____
ROOT
ATOM      1  N   UNL     1      -1.511  -1.838  -2.414  0.00  0.00    -0.284 N 
ATOM      2  C   UNL     1      -1.495  -2.513  -3.581  0.00  0.00    +0.206 C 
ATOM      3  O   UNL     1      -1.636  -3.717  -3.587  0.00  0.00    -0.277 OA
ATOM      4  H   UNL     1      -1.462  -0.869  -2.414  0.00  0.00    +0.155 HD
ENDROOT
BRANCH   1   6
ATOM      5  C   UNL     1      -0.936  -2.059  -0.073  0.00  0.00    +0.156 A 
ATOM      6  C   UNL     1      -1.598  -2.536  -1.202  0.00  0.00    +0.078 A 
ATOM      7  C   UNL     1      -2.344  -3.703  -1.124  0.00  0.00    +0.047 A 
ATOM      8  C   UNL     1      -2.429  -4.391   0.073  0.00  0.00    +0.044 A 
ATOM      9  C   UNL     1      -1.772  -3.916   1.194  0.00  0.00    +0.039 A 
ATOM     10  C   UNL     1      -1.021  -2.756   1.122  0.00  0.00    +0.063 A 
ATOM     11 BR   UNL     1      -0.118  -2.117   2.655  0.00  0.00    -0.046 Br
ATOM     12 CL   UNL     1      -3.362  -5.851   0.169  0.00  0.00    -0.083 Cl
BRANCH   5  13
ATOM     13  O   UNL     1      -0.203  -0.916  -0.145  0.00  0.00    -0.489 OA
BRANCH  13  15
ATOM     14  C   UNL     1       1.830   0.333  -0.530  0.00  0.00    +0.048 C 
ATOM     15  C   UNL     1       1.174  -1.049  -0.501  0.00  0.00    +0.226 C 
ENDBRANCH  13  15
ENDBRANCH   5  13
ENDBRANCH   1   6
BRANCH   2  16
ATOM     16  C   UNL     1      -1.300  -1.771  -4.878  0.00  0.00    +0.007 C 
ATOM     17  C   UNL     1       0.195  -1.579  -5.137  0.00  0.00    -0.001 C 
BRANCH  16  18
ATOM     18  N   UNL     1      -1.955  -0.458  -4.794  0.00  0.00    +0.388 N 
ATOM     19  H   UNL     1      -1.548   0.073  -4.038  0.00  0.00    -0.089 HD
ATOM     20  H   UNL     1      -1.825   0.039  -5.662  0.00  0.00    -0.089 HD
ATOM     21  H   UNL     1      -2.941  -0.585  -4.623  0.00  0.00    -0.089 HD
ENDBRANCH  16  18
BRANCH  16  22
ATOM     22  C   UNL     1      -1.917  -2.576  -6.024  0.00  0.00    -0.014 C 
ATOM     23  C   UNL     1      -0.960  -3.289  -6.981  0.00  0.00    +0.003 C 
ATOM     24  C   UNL     1      -1.721  -2.045  -7.445  0.00  0.00    +0.003 C 
ENDBRANCH  16  22
ENDBRANCH   2  16
TORSDOF 6
