REMARK  Name = ZINC08531606
REMARK  8 active torsions:
REMARK  status: ('A' for Active; 'I' for Inactive)
REMARK    1  A    between atoms: C_1  and  C_2
REMARK    2  A    between atoms: C_6  and  N_9
REMARK    3  A    between atoms: C_7  and  C_8
REMARK    4  A    between atoms: C_13  and  C_15
REMARK    5  A    between atoms: C_15  and  N_16
REMARK    6  A    between atoms: N_16  and  C_17
REMARK    7  A    between atoms: C_17  and  C_19
REMARK    8  A    between atoms: C_17  and  C_20
REMARK                            x       y       z     vdW  Elec       q    Type
REMARK                         _______ _______ _______ _____ _____    ______ ____
ROOT
ATOM      1  N   UNL     1       0.050  -2.797   2.393  0.00  0.00    -0.269 N 
ATOM      2  C   UNL     1      -0.034  -4.143   2.385  0.00  0.00    +0.310 C 
ATOM      3  O   UNL     1      -0.031  -4.746   1.331  0.00  0.00    -0.252 OA
ATOM      4  N   UNL     1      -0.121  -4.818   3.548  0.00  0.00    -0.241 N 
ATOM      5  C   UNL     1      -0.206  -6.163   3.541  0.00  0.00    +0.203 C 
ATOM      6  O   UNL     1      -0.203  -6.766   2.489  0.00  0.00    -0.277 OA
ATOM      7  H   UNL     1       0.131  -2.321   3.234  0.00  0.00    +0.156 HD
ATOM      8  H   UNL     1      -0.123  -4.337   4.390  0.00  0.00    +0.159 HD
ENDROOT
BRANCH   1  14
ATOM      9  C   UNL     1       1.201   1.236  -0.173  0.00  0.00    +0.044 C 
ATOM     10  C   UNL     1       0.573  -0.131  -0.085  0.00  0.00    -0.046 A 
ATOM     11  C   UNL     1      -0.033  -0.686  -1.198  0.00  0.00    +0.004 A 
ATOM     12  C   UNL     1      -0.611  -1.939  -1.121  0.00  0.00    +0.002 A 
ATOM     13  C   UNL     1      -0.585  -2.642   0.068  0.00  0.00    +0.023 A 
ATOM     14  C   UNL     1       0.022  -2.088   1.187  0.00  0.00    +0.038 A 
ATOM     15  C   UNL     1       0.607  -0.831   1.105  0.00  0.00    -0.026 A 
ATOM     16  C   UNL     1       1.273  -0.229   2.315  0.00  0.00    +0.046 C 
ENDBRANCH   1  14
BRANCH   5  17
ATOM     17  C   UNL     1      -0.303  -6.919   4.841  0.00  0.00    +0.016 C 
BRANCH  17  18
ATOM     18  N   UNL     1      -0.384  -8.360   4.565  0.00  0.00    +0.389 N 
ATOM     19  H   UNL     1      -1.200  -8.550   4.004  0.00  0.00    -0.084 HD
ATOM     20  H   UNL     1       0.443  -8.653   4.067  0.00  0.00    -0.084 HD
BRANCH  18  21
ATOM     21  C   UNL     1      -0.479  -9.097   5.833  0.00  0.00    -0.042 C 
ATOM     22  C   UNL     1      -1.794  -8.744   6.530  0.00  0.00    -0.009 C 
BRANCH  21  23
ATOM     23  C   UNL     1      -0.437 -10.578   5.557  0.00  0.00    -0.043 A 
ATOM     24  C   UNL     1      -0.732 -11.054   4.293  0.00  0.00    +0.005 A 
ATOM     25  C   UNL     1      -0.694 -12.412   4.040  0.00  0.00    +0.020 A 
ATOM     26  C   UNL     1      -0.360 -13.296   5.051  0.00  0.00    +0.042 A 
ATOM     27  C   UNL     1      -0.065 -12.820   6.315  0.00  0.00    +0.040 A 
ATOM     28  C   UNL     1      -0.098 -11.460   6.567  0.00  0.00    +0.044 A 
ATOM     29 CL   UNL     1       0.279 -10.861   8.152  0.00  0.00    -0.083 Cl
ATOM     30 CL   UNL     1      -0.313 -15.002   4.732  0.00  0.00    -0.083 Cl
ENDBRANCH  21  23
ENDBRANCH  18  21
ENDBRANCH  17  18
ENDBRANCH   5  17
TORSDOF 5
