REMARK  Name = ZINC39760483
REMARK  9 active torsions:
REMARK  status: ('A' for Active; 'I' for Inactive)
REMARK    1  A    between atoms: C_1  and  C_2
REMARK    2  A    between atoms: C_2  and  C_3
REMARK    3  A    between atoms: C_2  and  C_4
REMARK    4  A    between atoms: C_2  and  N_5
REMARK    5  A    between atoms: C_9  and  C_11
REMARK    6  A    between atoms: C_11  and  S_12
REMARK    7  A    between atoms: S_12  and  C_13
REMARK    8  A    between atoms: C_17  and  C_22
REMARK    9  A    between atoms: N_18  and  C_19
REMARK                            x       y       z     vdW  Elec       q    Type
REMARK                         _______ _______ _______ _____ _____    ______ ____
ROOT
ATOM      1  C   UNL     1       7.043  -0.731  -5.601  0.00  0.00    +0.237 C 
ATOM      2  N   UNL     1       7.084  -2.198  -5.717  0.00  0.00    -0.237 N 
ATOM      3  N   UNL     1       6.151  -2.545  -6.701  0.00  0.00    -0.169 NA
ATOM      4  C   UNL     1       5.558  -1.486  -7.188  0.00  0.00    +0.147 C 
ATOM      5  N   UNL     1       6.030  -0.314  -6.585  0.00  0.00    -0.282 N 
ATOM      6  H   UNL     1       7.647  -2.804  -5.212  0.00  0.00    +0.171 HD
ENDROOT
BRANCH   4   7
ATOM      7  C   UNL     1       4.576  -1.520  -8.189  0.00  0.00    +0.022 C 
ATOM      8  C   UNL     1       3.992  -2.651  -8.760  0.00  0.00    +0.006 A 
ATOM      9  C   UNL     1       4.176  -4.033  -8.541  0.00  0.00    +0.010 A 
ATOM     10  C   UNL     1       3.453  -4.931  -9.258  0.00  0.00    +0.001 A 
ATOM     11  C   UNL     1       2.523  -4.523 -10.216  0.00  0.00    +0.002 A 
ATOM     12  C   UNL     1       2.294  -3.213 -10.478  0.00  0.00    +0.026 A 
ATOM     13  C   UNL     1       3.012  -2.216  -9.769  0.00  0.00    +0.043 A 
ATOM     14  N   UNL     1       2.974  -0.899  -9.836  0.00  0.00    -0.380 N 
ATOM     15  C   UNL     1       3.923  -0.338  -8.870  0.00  0.00    +0.152 C 
ATOM     16  H   UNL     1       2.404  -0.384 -10.428  0.00  0.00    +0.160 HD
ENDBRANCH   4   7
BRANCH   5  17
ATOM     17  C   UNL     1       5.603   1.057  -6.875  0.00  0.00    +0.078 C 
ATOM     18  C   UNL     1       6.330   2.192  -6.152  0.00  0.00    +0.024 C 
ATOM     19  C   UNL     1       4.898   1.828  -5.757  0.00  0.00    +0.024 C 
ENDBRANCH   5  17
BRANCH   1  20
ATOM     20  S   UNL     1       6.541  -0.240  -3.928  0.00  0.00    -0.109 S 
BRANCH  20  21
ATOM     21  C   UNL     1       4.937  -1.056  -3.694  0.00  0.00    +0.168 C 
BRANCH  21  26
ATOM     22  N   UNL     1       1.547  -1.431  -0.307  0.00  0.00    -0.294 N 
ATOM     23  C   UNL     1       2.734  -0.932  -0.704  0.00  0.00    +0.306 C 
ATOM     24  O   UNL     1       3.373  -0.216   0.043  0.00  0.00    -0.252 OA
ATOM     25  N   UNL     1       3.214  -1.226  -1.928  0.00  0.00    -0.240 N 
ATOM     26  C   UNL     1       4.401  -0.727  -2.325  0.00  0.00    +0.230 C 
ATOM     27  O   UNL     1       5.038  -0.012  -1.580  0.00  0.00    -0.274 OA
ATOM     28  H   UNL     1       1.038  -2.002  -0.902  0.00  0.00    +0.151 HD
ATOM     29  H   UNL     1       2.705  -1.797  -2.524  0.00  0.00    +0.159 HD
BRANCH  22  31
ATOM     30  C   UNL     1       0.852   0.404   1.153  0.00  0.00    +0.031 C 
ATOM     31  C   UNL     1       1.026  -1.111   1.024  0.00  0.00    +0.028 C 
ATOM     32  C   UNL     1       2.009  -1.604   2.089  0.00  0.00    +0.031 C 
ATOM     33  C   UNL     1      -0.326  -1.799   1.222  0.00  0.00    +0.031 C 
ENDBRANCH  22  31
ENDBRANCH  21  26
ENDBRANCH  20  21
ENDBRANCH   1  20
TORSDOF 6
