REMARK  Name = ZINC13574044
REMARK  5 active torsions:
REMARK  status: ('A' for Active; 'I' for Inactive)
REMARK    1  A    between atoms: C_1  and  C_2
REMARK    2  A    between atoms: C_3  and  C_34
REMARK    3  A    between atoms: C_6  and  C_28
REMARK    4  A    between atoms: C_11  and  C_22
REMARK    5  A    between atoms: C_14  and  C_16
REMARK                            x       y       z     vdW  Elec       q    Type
REMARK                         _______ _______ _______ _____ _____    ______ ____
ROOT
ATOM      1  C   UNL     1       0.595  -2.078  -1.643  0.00  0.00    +0.019 C 
ATOM      2  C   UNL     1       0.553  -0.557  -1.478  0.00  0.00    +0.037 C 
ATOM      3  C   UNL     1       0.019  -0.153  -0.094  0.00  0.00    -0.025 C 
ATOM      4  N   UNL     1       0.012   1.310   0.013  0.00  0.00    +0.389 N 
ATOM      5  C   UNL     1       1.362   1.880  -0.063  0.00  0.00    -0.028 C 
ATOM      6  C   UNL     1       1.946   1.589  -1.455  0.00  0.00    +0.067 C 
ATOM      7  C   UNL     1       1.941   0.061  -1.607  0.00  0.00    +0.143 C 
ATOM      8  O   UNL     1       2.934  -0.593  -1.819  0.00  0.00    -0.297 OA
ATOM      9  C   UNL     1       0.990   2.148  -2.522  0.00  0.00    +0.093 C 
ATOM     10  N   UNL     1      -0.340   1.557  -2.337  0.00  0.00    -0.301 NA
ATOM     11  C   UNL     1      -0.337   0.104  -2.542  0.00  0.00    +0.096 C 
ATOM     12  H   UNL     1      -0.584   1.736  -0.808  0.00  0.00    -0.084 HD
ATOM     13  H   UNL     1      -0.691   1.755  -1.313  0.00  0.00    +0.123 HD
ATOM     14  H   UNL     1      -0.428   1.606   0.977  0.00  0.00    -0.084 HD
ENDROOT
BRANCH  11  15
ATOM     15  C   UNL     1      -1.744  -0.424  -2.421  0.00  0.00    -0.030 A 
ATOM     16  C   UNL     1      -2.588   0.075  -1.447  0.00  0.00    +0.005 A 
ATOM     17  C   UNL     1      -3.879  -0.406  -1.339  0.00  0.00    +0.000 A 
ATOM     18  C   UNL     1      -4.323  -1.394  -2.198  0.00  0.00    +0.000 A 
ATOM     19  C   UNL     1      -3.477  -1.897  -3.169  0.00  0.00    +0.000 A 
ATOM     20  C   UNL     1      -2.187  -1.412  -3.280  0.00  0.00    +0.005 A 
ENDBRANCH  11  15
BRANCH   9  21
ATOM     21  C   UNL     1       1.508   1.802  -3.894  0.00  0.00    -0.030 A 
ATOM     22  C   UNL     1       2.842   1.484  -4.069  0.00  0.00    +0.005 A 
ATOM     23  C   UNL     1       3.316   1.161  -5.326  0.00  0.00    +0.000 A 
ATOM     24  C   UNL     1       2.459   1.167  -6.411  0.00  0.00    +0.000 A 
ATOM     25  C   UNL     1       1.127   1.491  -6.237  0.00  0.00    +0.000 A 
ATOM     26  C   UNL     1       0.651   1.808  -4.978  0.00  0.00    +0.005 A 
ENDBRANCH   9  21
BRANCH   5  27
ATOM     27  C   UNL     1       1.291   3.372   0.138  0.00  0.00    -0.061 A 
ATOM     28  C   UNL     1       0.267   4.099  -0.439  0.00  0.00    +0.002 A 
ATOM     29  C   UNL     1       0.198   5.467  -0.251  0.00  0.00    +0.000 A 
ATOM     30  C   UNL     1       1.160   6.109   0.506  0.00  0.00    +0.000 A 
ATOM     31  C   UNL     1       2.187   5.383   1.079  0.00  0.00    +0.000 A 
ATOM     32  C   UNL     1       2.253   4.015   0.895  0.00  0.00    +0.002 A 
ENDBRANCH   5  27
BRANCH   3  33
ATOM     33  C   UNL     1       0.906  -0.732   0.978  0.00  0.00    -0.060 A 
ATOM     34  C   UNL     1       0.359  -1.504   1.986  0.00  0.00    +0.002 A 
ATOM     35  C   UNL     1       1.174  -2.038   2.966  0.00  0.00    +0.000 A 
ATOM     36  C   UNL     1       2.535  -1.794   2.943  0.00  0.00    +0.000 A 
ATOM     37  C   UNL     1       3.081  -1.018   1.938  0.00  0.00    +0.000 A 
ATOM     38  C   UNL     1       2.267  -0.487   0.955  0.00  0.00    +0.002 A 
ENDBRANCH   3  33
TORSDOF 4
