REMARK  Name = ZINC61788440
REMARK  6 active torsions:
REMARK  status: ('A' for Active; 'I' for Inactive)
REMARK    1  A    between atoms: C_1  and  C_2
REMARK    2  A    between atoms: C_7  and  C_11
REMARK    3  A    between atoms: C_11  and  N_12
REMARK    4  A    between atoms: N_15  and  C_16
REMARK    5  A    between atoms: C_21  and  C_22
REMARK    6  A    between atoms: C_22  and  N_23
REMARK                            x       y       z     vdW  Elec       q    Type
REMARK                         _______ _______ _______ _____ _____    ______ ____
ROOT
ATOM      1  N   UNL     1       1.980  -5.188   3.093  0.00  0.00    -0.294 N 
ATOM      2  C   UNL     1       2.102  -6.412   3.643  0.00  0.00    +0.304 C 
ATOM      3  O   UNL     1       1.308  -6.781   4.487  0.00  0.00    -0.252 OA
ATOM      4  N   UNL     1       3.104  -7.227   3.258  0.00  0.00    -0.269 N 
ATOM      5  H   UNL     1       2.613  -4.893   2.419  0.00  0.00    +0.151 HD
ATOM      6  H   UNL     1       3.694  -6.962   2.536  0.00  0.00    +0.156 HD
ENDROOT
BRANCH   4   7
ATOM      7  C   UNL     1       3.291  -8.457   3.899  0.00  0.00    +0.036 A 
ATOM      8  C   UNL     1       2.196  -9.172   4.366  0.00  0.00    +0.023 A 
ATOM      9  C   UNL     1       2.385 -10.386   4.998  0.00  0.00    +0.002 A 
ATOM     10  C   UNL     1       3.662 -10.888   5.167  0.00  0.00    +0.000 A 
ATOM     11  C   UNL     1       4.754 -10.177   4.705  0.00  0.00    +0.003 A 
ATOM     12  C   UNL     1       4.572  -8.966   4.066  0.00  0.00    -0.043 A 
BRANCH  12  13
ATOM     13  C   UNL     1       5.763  -8.195   3.556  0.00  0.00    -0.041 C 
BRANCH  13  14
ATOM     14  N   UNL     1       6.071  -7.100   4.485  0.00  0.00    +0.383 N 
ATOM     15  C   UNL     1       7.100  -6.244   3.893  0.00  0.00    -0.068 C 
ATOM     16  C   UNL     1       7.171  -4.913   4.652  0.00  0.00    +0.050 C 
ATOM     17  S   UNL     1       7.649  -5.264   6.373  0.00  0.00    -0.164 S 
ATOM     18  C   UNL     1       6.489  -6.584   6.847  0.00  0.00    +0.050 C 
ATOM     19  C   UNL     1       6.520  -7.664   5.760  0.00  0.00    -0.068 C 
ATOM     20  H   UNL     1       5.237  -6.554   4.641  0.00  0.00    -0.081 HD
ENDBRANCH  13  14
ENDBRANCH  12  13
ENDBRANCH   4   7
BRANCH   1  21
ATOM     21  C   UNL     1       0.891  -4.301   3.512  0.00  0.00    +0.160 C 
BRANCH  21  28
ATOM     22  C   UNL     1       2.023   2.517   0.894  0.00  0.00    +0.045 C 
ATOM     23  C   UNL     1       1.564   1.085   0.991  0.00  0.00    -0.034 A 
ATOM     24  C   UNL     1       0.844   0.508  -0.068  0.00  0.00    +0.008 A 
ATOM     25  C   UNL     1       0.432  -0.785   0.023  0.00  0.00    +0.045 A 
ATOM     26  C   UNL     1       0.736  -1.527   1.182  0.00  0.00    +0.115 A 
ATOM     27  N   UNL     1       0.468  -2.775   1.538  0.00  0.00    -0.342 N 
ATOM     28  C   UNL     1       0.979  -3.003   2.751  0.00  0.00    +0.051 A 
ATOM     29  C   UNL     1       1.587  -1.877   3.182  0.00  0.00    +0.115 A 
ATOM     30  N   UNL     1       1.440  -0.937   2.199  0.00  0.00    -0.308 N 
ATOM     31  C   UNL     1       1.852   0.360   2.092  0.00  0.00    +0.096 A 
ATOM     32  H   UNL     1      -0.020  -3.420   1.004  0.00  0.00    +0.167 HD
ENDBRANCH  21  28
ENDBRANCH   1  21
TORSDOF 5
