REMARK  Name = ZINC28048935
REMARK  6 active torsions:
REMARK  status: ('A' for Active; 'I' for Inactive)
REMARK    1  A    between atoms: C_1  and  O_2
REMARK    2  A    between atoms: O_2  and  C_3
REMARK    3  A    between atoms: C_7  and  N_9
REMARK    4  A    between atoms: N_12  and  C_13
REMARK    5  A    between atoms: C_22  and  O_23
REMARK    6  A    between atoms: N_24  and  C_25
REMARK                            x       y       z     vdW  Elec       q    Type
REMARK                         _______ _______ _______ _____ _____    ______ ____
ROOT
ATOM      1  C   UNL     1       3.817   3.150   0.188  0.00  0.00    +0.140 A 
ATOM      2  C   UNL     1       2.703   3.776  -0.341  0.00  0.00    +0.075 A 
ATOM      3  C   UNL     1       1.421   3.054  -0.294  0.00  0.00    +0.042 A 
ATOM      4  C   UNL     1       0.255   3.625  -0.809  0.00  0.00    +0.013 A 
ATOM      5  C   UNL     1      -0.929   2.924  -0.750  0.00  0.00    +0.001 A 
ATOM      6  C   UNL     1      -0.965   1.656  -0.188  0.00  0.00    +0.004 A 
ATOM      7  C   UNL     1       0.179   1.084   0.328  0.00  0.00    +0.047 A 
ATOM      8  C   UNL     1       1.384   1.773   0.279  0.00  0.00    +0.141 A 
ATOM      9  O   UNL     1       2.512   1.222   0.777  0.00  0.00    -0.424 OA
ATOM     10  C   UNL     1       3.690   1.865   0.744  0.00  0.00    +0.309 A 
ATOM     11  N   UNL     1       2.790   5.039  -0.896  0.00  0.00    -0.380 N 
ATOM     12  H   UNL     1       2.734   5.928  -0.252  0.00  0.00    +0.160 HD
ENDROOT
BRANCH   1  16
ATOM     13  N   UNL     1       7.395   3.684   0.013  0.00  0.00    -0.269 N 
ATOM     14  C   UNL     1       6.192   3.077  -0.028  0.00  0.00    +0.308 C 
ATOM     15  O   UNL     1       6.121   1.882  -0.244  0.00  0.00    -0.252 OA
ATOM     16  N   UNL     1       5.068   3.794   0.169  0.00  0.00    -0.262 N 
ATOM     17  H   UNL     1       7.465   4.748   0.285  0.00  0.00    +0.156 HD
ATOM     18  H   UNL     1       5.128   4.883   0.316  0.00  0.00    +0.157 HD
BRANCH  13  23
ATOM     19  C   UNL     1       9.640   1.158  -1.442  0.00  0.00    +0.122 A 
ATOM     20  C   UNL     1      10.854   1.535  -0.882  0.00  0.00    +0.046 A 
ATOM     21  C   UNL     1      10.915   2.620  -0.030  0.00  0.00    +0.005 A 
ATOM     22  C   UNL     1       9.771   3.337   0.264  0.00  0.00    +0.023 A 
ATOM     23  C   UNL     1       8.554   2.962  -0.289  0.00  0.00    +0.038 A 
ATOM     24  C   UNL     1       8.490   1.871  -1.145  0.00  0.00    +0.069 A 
BRANCH  19  26
ATOM     25  C   UNL     1      10.806  -0.598  -2.542  0.00  0.00    +0.277 C 
ATOM     26  O   UNL     1       9.581   0.091  -2.281  0.00  0.00    -0.495 OA
ENDBRANCH  19  26
ENDBRANCH  13  23
ENDBRANCH   1  16
BRANCH  11  27
ATOM     27  C   UNL     1       2.953   4.963  -2.354  0.00  0.00    +0.079 C 
ATOM     28  C   UNL     1       4.437   4.731  -2.708  0.00  0.00    +0.024 C 
ATOM     29  C   UNL     1       4.655   5.571  -3.992  0.00  0.00    +0.002 C 
ATOM     30  C   UNL     1       3.802   6.835  -3.724  0.00  0.00    +0.002 C 
ATOM     31  C   UNL     1       2.549   6.300  -3.000  0.00  0.00    +0.024 C 
ENDBRANCH  11  27
BRANCH  10  32
ATOM     32  O   UNL     1       4.676   1.319   1.208  0.00  0.00    -0.479 OA
ATOM     33  H   UNL     1       4.593   0.314   1.647  0.00  0.00    +0.295 HD
ENDBRANCH  10  32
TORSDOF 5
