REMARK  Name = ZINC29678667
REMARK  12 active torsions:
REMARK  status: ('A' for Active; 'I' for Inactive)
REMARK    1  A    between atoms: C_1  and  C_2
REMARK    2  A    between atoms: C_5  and  O_28
REMARK    3  A    between atoms: C_6  and  C_8
REMARK    4  A    between atoms: C_8  and  C_10
REMARK    5  A    between atoms: C_8  and  N_11
REMARK    6  A    between atoms: N_11  and  C_12
REMARK    7  A    between atoms: C_12  and  C_14
REMARK    8  A    between atoms: C_12  and  C_15
REMARK    9  A    between atoms: N_17  and  C_18
REMARK   10  A    between atoms: C_22  and  N_24
REMARK   11  A    between atoms: C_25  and  C_27
REMARK   12  A    between atoms: O_28  and  C_29
REMARK                            x       y       z     vdW  Elec       q    Type
REMARK                         _______ _______ _______ _____ _____    ______ ____
ROOT
ATOM      1  C   UNL     1      -0.435  -7.360  -4.644  0.00  0.00    +0.014 C 
ATOM      2  C   UNL     1      -1.740  -6.972  -5.342  0.00  0.00    -0.004 C 
ENDROOT
BRANCH   1   3
ATOM      3  C   UNL     1      -0.263  -6.524  -3.402  0.00  0.00    +0.203 C 
ATOM      4  O   UNL     1      -0.186  -7.060  -2.316  0.00  0.00    -0.277 OA
ATOM      5  N   UNL     1      -0.194  -5.182  -3.497  0.00  0.00    -0.287 N 
ATOM      6  H   UNL     1      -0.187  -4.700  -4.486  0.00  0.00    +0.155 HD
BRANCH   5   7
ATOM      7  C   UNL     1      -0.132  -4.401  -2.338  0.00  0.00    +0.035 A 
ATOM      8  C   UNL     1      -0.758  -3.161  -2.300  0.00  0.00    +0.023 A 
ATOM      9  C   UNL     1      -0.697  -2.389  -1.156  0.00  0.00    +0.004 A 
ATOM     10  C   UNL     1      -0.013  -2.847  -0.046  0.00  0.00    +0.023 A 
ATOM     11  C   UNL     1       0.615  -4.085  -0.077  0.00  0.00    +0.035 A 
ATOM     12  C   UNL     1       0.560  -4.860  -1.227  0.00  0.00    +0.046 A 
BRANCH  11  13
ATOM     13  N   UNL     1       1.308  -4.548   1.047  0.00  0.00    -0.286 N 
ATOM     14  C   UNL     1       0.854  -4.260   2.284  0.00  0.00    +0.214 C 
ATOM     15  O   UNL     1      -0.105  -3.531   2.423  0.00  0.00    -0.276 OA
ATOM     16  C   UNL     1       1.539  -4.844   3.492  0.00  0.00    +0.109 C 
ATOM     17  H   UNL     1       2.222  -5.146   0.922  0.00  0.00    +0.155 HD
ENDBRANCH  11  13
ENDBRANCH   5   7
ENDBRANCH   1   3
BRANCH   1  18
ATOM     18  N   UNL     1      -0.481  -8.781  -4.276  0.00  0.00    +0.391 N 
ATOM     19  H   UNL     1      -1.512  -9.038  -3.989  0.00  0.00    -0.084 HD
ATOM     20  H   UNL     1       0.189  -8.945  -3.419  0.00  0.00    -0.084 HD
BRANCH  18  21
ATOM     21  C   UNL     1      -0.059  -9.630  -5.398  0.00  0.00    -0.039 C 
ATOM     22  C   UNL     1       1.466  -9.748  -5.402  0.00  0.00    -0.009 C 
BRANCH  21  28
ATOM     23  C   UNL     1      -2.181 -13.139  -2.531  0.00  0.00    +0.044 C 
ATOM     24  C   UNL     1      -1.684 -12.680  -3.877  0.00  0.00    -0.050 A 
ATOM     25  C   UNL     1      -1.788 -13.517  -4.973  0.00  0.00    +0.007 A 
ATOM     26  C   UNL     1      -1.334 -13.098  -6.209  0.00  0.00    +0.046 A 
ATOM     27  C   UNL     1      -0.777 -11.835  -6.351  0.00  0.00    +0.122 A 
ATOM     28  C   UNL     1      -0.669 -11.000  -5.249  0.00  0.00    -0.020 A 
ATOM     29  C   UNL     1      -1.125 -11.423  -4.015  0.00  0.00    +0.009 A 
BRANCH  27  30
ATOM     30  O   UNL     1      -0.334 -11.419  -7.566  0.00  0.00    -0.495 OA
ATOM     31  C   UNL     1      -0.477 -12.332  -8.656  0.00  0.00    +0.277 C 
ENDBRANCH  27  30
ENDBRANCH  21  28
ENDBRANCH  18  21
ENDBRANCH   1  18
TORSDOF 7
