REMARK  Name = ZINC43286928
REMARK  12 active torsions:
REMARK  status: ('A' for Active; 'I' for Inactive)
REMARK    1  A    between atoms: C_1  and  C_2
REMARK    2  A    between atoms: C_2  and  C_3
REMARK    3  A    between atoms: C_3  and  N_4
REMARK    4  A    between atoms: C_5  and  C_7
REMARK    5  A    between atoms: C_7  and  N_8
REMARK    6  A    between atoms: N_8  and  C_9
REMARK    7  A    between atoms: N_8  and  C_10
REMARK    8  A    between atoms: C_10  and  C_12
REMARK    9  A    between atoms: C_10  and  C_18
REMARK   10  A    between atoms: C_18  and  C_20
REMARK   11  A    between atoms: C_18  and  N_22
REMARK   12  A    between atoms: C_20  and  C_21
REMARK                            x       y       z     vdW  Elec       q    Type
REMARK                         _______ _______ _______ _____ _____    ______ ____
ROOT
ATOM      1  C   UNL     1      -3.910  -6.168   0.127  0.00  0.00    -0.045 C 
ENDROOT
BRANCH   1   2
ATOM      2  C   UNL     1      -5.324  -6.690   0.138  0.00  0.00    -0.024 A 
ATOM      3  C   UNL     1      -5.830  -7.794  -0.463  0.00  0.00    +0.024 A 
ATOM      4  C   UNL     1      -7.175  -8.081  -0.315  0.00  0.00    +0.025 A 
ATOM      5  C   UNL     1      -7.946  -7.248   0.427  0.00  0.00    +0.060 A 
ATOM      6  S   UNL     1      -6.764  -6.018   0.951  0.00  0.00    -0.102 S 
ATOM      7 BR   UNL     1      -7.927  -9.610  -1.135  0.00  0.00    -0.050 Br
ENDBRANCH   1   2
BRANCH   1   8
ATOM      8  N   UNL     1      -3.929  -4.704   0.014  0.00  0.00    +0.387 N 
ATOM      9  C   UNL     1      -4.603  -4.317  -1.232  0.00  0.00    -0.095 C 
ATOM     10  H   UNL     1      -4.426  -4.312   0.800  0.00  0.00    -0.081 HD
BRANCH   8  11
ATOM     11  C   UNL     1      -2.551  -4.195   0.004  0.00  0.00    +0.019 C 
BRANCH  11  13
ATOM     12  N   UNL     1      -1.413  -1.998   0.005  0.00  0.00    -0.317 N 
ATOM     13  C   UNL     1      -2.571  -2.688   0.012  0.00  0.00    +0.196 C 
ATOM     14  O   UNL     1      -3.630  -2.096   0.025  0.00  0.00    -0.278 OA
ATOM     15  H   UNL     1      -0.567  -2.472  -0.006  0.00  0.00    +0.149 HD
BRANCH  12  16
ATOM     16  C   UNL     1      -1.433  -0.534   0.013  0.00  0.00    +0.104 C 
BRANCH  16  18
ATOM     17  C   UNL     1      -0.019   1.526   0.010  0.00  0.00    +0.005 C 
ATOM     18  C   UNL     1       0.002  -0.004   0.002  0.00  0.00    +0.015 C 
ENDBRANCH  16  18
ENDBRANCH  12  16
ENDBRANCH  11  13
ENDBRANCH   8  11
ENDBRANCH   1   8
BRANCH   1  19
ATOM     19  C   UNL     1      -3.208  -6.571   1.426  0.00  0.00    -0.085 C 
BRANCH  19  20
ATOM     20  N   UNL     1      -3.294  -8.027   1.597  0.00  0.00    +0.379 N 
ATOM     21  H   UNL     1      -4.263  -8.304   1.639  0.00  0.00    -0.090 HD
ATOM     22  H   UNL     1      -2.846  -8.485   0.818  0.00  0.00    -0.090 HD
ATOM     23  H   UNL     1      -2.831  -8.292   2.454  0.00  0.00    -0.090 HD
ENDBRANCH  19  20
BRANCH  19  24
ATOM     24  C   UNL     1      -3.886  -5.877   2.608  0.00  0.00    -0.021 C 
ATOM     25  C   UNL     1      -3.110  -6.179   3.891  0.00  0.00    +0.002 C 
ENDBRANCH  19  24
ENDBRANCH   1  19
TORSDOF 9
