REMARK  Name = ZINC36213542
REMARK  10 active torsions:
REMARK  status: ('A' for Active; 'I' for Inactive)
REMARK    1  A    between atoms: C_1  and  C_2
REMARK    2  A    between atoms: C_2  and  C_4
REMARK    3  A    between atoms: C_2  and  S_10
REMARK    4  A    between atoms: S_10  and  C_11
REMARK    5  A    between atoms: N_24  and  C_25
REMARK    6  A    between atoms: C_25  and  C_26
REMARK    7  A    between atoms: C_26  and  C_27
REMARK    8  A    between atoms: C_27  and  N_28
REMARK    9  A    between atoms: N_28  and  C_29
REMARK   10  A    between atoms: N_28  and  C_30
REMARK                            x       y       z     vdW  Elec       q    Type
REMARK                         _______ _______ _______ _____ _____    ______ ____
ROOT
ATOM      1  C   UNL     1      -2.335  -0.110   1.573  0.00  0.00    +0.173 A 
ATOM      2  N   UNL     1      -1.566   0.581   2.390  0.00  0.00    -0.216 NA
ATOM      3  C   UNL     1      -2.019   0.987   3.571  0.00  0.00    +0.117 A 
ATOM      4  C   UNL     1      -3.325   0.706   4.006  0.00  0.00    +0.076 A 
ATOM      5  C   UNL     1      -3.680   1.219   5.331  0.00  0.00    -0.023 A 
ATOM      6  C   UNL     1      -2.730   1.904   5.998  0.00  0.00    -0.004 A 
ATOM      7  S   UNL     1      -1.324   1.909   4.918  0.00  0.00    -0.073 S 
ATOM      8  C   UNL     1      -2.843   2.526   7.356  0.00  0.00    +0.043 C 
ATOM      9  C   UNL     1      -4.329   2.589   7.738  0.00  0.00    +0.005 C 
ATOM     10  C   UNL     1      -4.967   1.226   7.456  0.00  0.00    +0.005 C 
ATOM     11  C   UNL     1      -5.059   0.997   5.947  0.00  0.00    +0.037 C 
ATOM     12  C   UNL     1      -4.137  -0.045   3.099  0.00  0.00    +0.263 A 
ATOM     13  O   UNL     1      -5.284  -0.335   3.392  0.00  0.00    -0.267 OA
ATOM     14  N   UNL     1      -3.619  -0.422   1.916  0.00  0.00    -0.287 N 
ENDROOT
BRANCH   1  15
ATOM     15  S   UNL     1      -1.700  -0.632   0.015  0.00  0.00    -0.075 S 
BRANCH  15  17
ATOM     16  C   UNL     1      -0.019   1.526   0.010  0.00  0.00    +0.029 C 
ATOM     17  C   UNL     1       0.002  -0.004   0.002  0.00  0.00    +0.137 C 
BRANCH  17  18
ATOM     18  C   UNL     1       0.707  -0.490  -1.238  0.00  0.00    +0.233 C 
ATOM     19  O   UNL     1       0.067  -0.782  -2.225  0.00  0.00    -0.274 OA
ATOM     20  N   UNL     1       2.051  -0.601  -1.250  0.00  0.00    -0.239 N 
ATOM     21  C   UNL     1       2.682  -1.035  -2.358  0.00  0.00    +0.303 C 
ATOM     22  O   UNL     1       2.039  -1.327  -3.348  0.00  0.00    -0.253 OA
ATOM     23  N   UNL     1       4.025  -1.146  -2.370  0.00  0.00    -0.313 N 
ATOM     24  H   UNL     1       2.563  -0.367  -0.460  0.00  0.00    +0.159 HD
ATOM     25  H   UNL     1       4.537  -0.912  -1.580  0.00  0.00    +0.146 HD
ATOM     26  H   UNL     1       4.479  -1.458  -3.168  0.00  0.00    +0.146 HD
ENDBRANCH  17  18
ENDBRANCH  15  17
ENDBRANCH   1  15
BRANCH  14  27
ATOM     27  C   UNL     1      -4.447  -1.186   0.979  0.00  0.00    +0.125 C 
BRANCH  27  28
ATOM     28  C   UNL     1      -4.277  -2.682   1.252  0.00  0.00    +0.003 C 
BRANCH  28  29
ATOM     29  C   UNL     1      -5.141  -3.480   0.274  0.00  0.00    -0.078 C 
BRANCH  29  30
ATOM     30  N   UNL     1      -4.978  -4.916   0.536  0.00  0.00    +0.376 N 
ATOM     31  C   UNL     1      -5.897  -5.678  -0.321  0.00  0.00    -0.097 C 
ATOM     32  C   UNL     1      -3.594  -5.313   0.244  0.00  0.00    -0.097 C 
ATOM     33  H   UNL     1      -5.186  -5.107   1.504  0.00  0.00    -0.083 HD
ENDBRANCH  29  30
ENDBRANCH  28  29
ENDBRANCH  27  28
ENDBRANCH  14  27
TORSDOF 7
