REMARK  Name = ZINC60342665
REMARK  5 active torsions:
REMARK  status: ('A' for Active; 'I' for Inactive)
REMARK    1  A    between atoms: C_1  and  N_2
REMARK    2  A    between atoms: N_14  and  C_17
REMARK    3  A    between atoms: C_17  and  N_18
REMARK    4  A    between atoms: N_18  and  C_19
REMARK    5  A    between atoms: C_19  and  C_25
REMARK                            x       y       z     vdW  Elec       q    Type
REMARK                         _______ _______ _______ _____ _____    ______ ____
ROOT
ATOM      1  C   UNL     1       0.227  -1.054   4.864  0.00  0.00    +0.069 C 
ENDROOT
BRANCH   1  15
ATOM      2  C   UNL     1       0.069   1.821   0.178  0.00  0.00    +0.155 C 
ATOM      3  N   UNL     1       0.311   0.376   0.141  0.00  0.00    -0.280 N 
ATOM      4  C   UNL     1       0.498  -0.234  -1.046  0.00  0.00    +0.263 A 
ATOM      5  O   UNL     1       0.467   0.404  -2.081  0.00  0.00    -0.267 OA
ATOM      6  C   UNL     1       0.740  -1.689  -1.071  0.00  0.00    +0.064 A 
ATOM      7  C   UNL     1       0.940  -2.367  -2.272  0.00  0.00    +0.015 A 
ATOM      8  C   UNL     1       1.165  -3.728  -2.256  0.00  0.00    +0.001 A 
ATOM      9  C   UNL     1       1.192  -4.420  -1.055  0.00  0.00    +0.002 A 
ATOM     10  C   UNL     1       0.995  -3.758   0.141  0.00  0.00    +0.027 A 
ATOM     11  C   UNL     1       0.768  -2.390   0.144  0.00  0.00    +0.064 A 
ATOM     12  N   UNL     1       0.568  -1.700   1.337  0.00  0.00    -0.257 N 
ATOM     13  C   UNL     1       0.349  -0.340   1.329  0.00  0.00    +0.238 A 
ATOM     14  N   UNL     1       0.199   0.060   2.563  0.00  0.00    -0.133 NA
ATOM     15  N   UNL     1       0.326  -1.054   3.402  0.00  0.00    -0.256 N 
ATOM     16  C   UNL     1       0.546  -2.127   2.617  0.00  0.00    +0.182 A 
ATOM     17  S   UNL     1       0.774  -3.739   3.149  0.00  0.00    -0.011 S 
ENDBRANCH   1  15
BRANCH   1  18
ATOM     18  N   UNL     1      -1.181  -0.919   5.259  0.00  0.00    +0.398 N 
ATOM     19  H   UNL     1      -1.531  -0.021   4.958  0.00  0.00    -0.082 HD
ATOM     20  H   UNL     1      -1.724  -1.652   4.827  0.00  0.00    -0.082 HD
BRANCH  18  21
ATOM     21  C   UNL     1      -1.292  -1.023   6.720  0.00  0.00    -0.040 C 
ATOM     22  C   UNL     1      -2.750  -0.817   7.137  0.00  0.00    -0.008 C 
ATOM     23  C   UNL     1      -3.217   0.569   6.688  0.00  0.00    -0.001 C 
ATOM     24  C   UNL     1      -2.343   1.640   7.343  0.00  0.00    -0.000 C 
ATOM     25  C   UNL     1      -0.885   1.433   6.926  0.00  0.00    -0.001 C 
ATOM     26  C   UNL     1      -0.418   0.048   7.376  0.00  0.00    -0.008 C 
BRANCH  21  27
ATOM     27  C   UNL     1      -0.832  -2.388   7.163  0.00  0.00    -0.058 A 
ATOM     28  C   UNL     1      -0.279  -2.557   8.419  0.00  0.00    +0.004 A 
ATOM     29  C   UNL     1       0.143  -3.809   8.825  0.00  0.00    +0.020 A 
ATOM     30  C   UNL     1       0.013  -4.893   7.975  0.00  0.00    +0.041 A 
ATOM     31  C   UNL     1      -0.540  -4.723   6.718  0.00  0.00    +0.020 A 
ATOM     32  C   UNL     1      -0.967  -3.471   6.315  0.00  0.00    +0.004 A 
ATOM     33 CL   UNL     1       0.544  -6.465   8.484  0.00  0.00    -0.084 Cl
ENDBRANCH  21  27
ENDBRANCH  18  21
ENDBRANCH   1  18
TORSDOF 4
