REMARK  Name = ZINC48026808
REMARK  7 active torsions:
REMARK  status: ('A' for Active; 'I' for Inactive)
REMARK    1  A    between atoms: C_1  and  C_2
REMARK    2  A    between atoms: C_3  and  N_9
REMARK    3  A    between atoms: C_10  and  C_12
REMARK    4  A    between atoms: C_12  and  C_14
REMARK    5  A    between atoms: C_12  and  N_15
REMARK    6  A    between atoms: C_18  and  C_21
REMARK    7  A    between atoms: C_21  and  C_22
REMARK                            x       y       z     vdW  Elec       q    Type
REMARK                         _______ _______ _______ _____ _____    ______ ____
ROOT
ATOM      1  C   UNL     1       0.192   0.111  -4.876  0.00  0.00    +0.016 C 
ATOM      2  C   UNL     1      -1.025   1.033  -4.966  0.00  0.00    -0.004 C 
ENDROOT
BRANCH   1   3
ATOM      3  N   UNL     1       0.176  -0.832  -6.003  0.00  0.00    +0.387 N 
ATOM      4  C   UNL     1       0.141  -0.083  -7.265  0.00  0.00    -0.078 C 
ATOM      5  C   UNL     1       0.043  -1.059  -8.439  0.00  0.00    -0.015 C 
ATOM      6  C   UNL     1       1.262  -1.986  -8.428  0.00  0.00    -0.006 C 
ATOM      7  C   UNL     1       1.330  -2.707  -7.079  0.00  0.00    -0.015 C 
ATOM      8  C   UNL     1       1.381  -1.669  -5.955  0.00  0.00    -0.078 C 
ATOM      9  H   UNL     1      -0.642  -1.418  -5.939  0.00  0.00    -0.081 HD
BRANCH   6  10
ATOM     10  C   UNL     1       1.131  -3.017  -9.552  0.00  0.00    +0.099 C 
BRANCH  10  11
ATOM     11  C   UNL     1       2.385  -3.849  -9.618  0.00  0.00    +0.211 C 
ATOM     12  O   UNL     1       3.294  -3.639  -8.843  0.00  0.00    -0.276 OA
ATOM     13  N   UNL     1       2.497  -4.827 -10.539  0.00  0.00    -0.329 N 
ATOM     14  H   UNL     1       1.770  -4.995 -11.159  0.00  0.00    +0.145 HD
ATOM     15  H   UNL     1       3.304  -5.363 -10.582  0.00  0.00    +0.145 HD
ENDBRANCH  10  11
ENDBRANCH   6  10
ENDBRANCH   1   3
BRANCH   1  17
ATOM     16  N   UNL     1       0.692  -0.128  -2.466  0.00  0.00    -0.287 N 
ATOM     17  C   UNL     1       0.147  -0.656  -3.580  0.00  0.00    +0.203 C 
ATOM     18  O   UNL     1      -0.380  -1.747  -3.538  0.00  0.00    -0.277 OA
ATOM     19  H   UNL     1       1.048   0.774  -2.481  0.00  0.00    +0.155 HD
BRANCH  16  22
ATOM     20  C   UNL     1       1.016   1.254   0.001  0.00  0.00    +0.047 C 
ATOM     21  C   UNL     1       0.901  -0.247  -0.062  0.00  0.00    -0.011 A 
ATOM     22  C   UNL     1       0.744  -0.881  -1.288  0.00  0.00    +0.038 A 
ATOM     23  C   UNL     1       0.638  -2.265  -1.342  0.00  0.00    +0.023 A 
ATOM     24  C   UNL     1       0.689  -3.006  -0.177  0.00  0.00    +0.003 A 
ATOM     25  C   UNL     1       0.845  -2.373   1.042  0.00  0.00    +0.020 A 
ATOM     26  C   UNL     1       0.957  -0.995   1.099  0.00  0.00    +0.046 A 
ATOM     27 CL   UNL     1       1.161  -0.204   2.631  0.00  0.00    -0.083 Cl
ENDBRANCH  16  22
ENDBRANCH   1  17
TORSDOF 5
