REMARK  Name = ZINC25305701
REMARK  14 active torsions:
REMARK  status: ('A' for Active; 'I' for Inactive)
REMARK    1  A    between atoms: C_1  and  C_2
REMARK    2  A    between atoms: C_4  and  O_12
REMARK    3  A    between atoms: C_5  and  C_9
REMARK    4  A    between atoms: C_9  and  C_10
REMARK    5  A    between atoms: C_9  and  C_11
REMARK    6  A    between atoms: O_12  and  C_13
REMARK    7  A    between atoms: C_13  and  C_14
REMARK    8  A    between atoms: C_14  and  C_16
REMARK    9  A    between atoms: C_14  and  O_32
REMARK   10  A    between atoms: C_16  and  N_17
REMARK   11  A    between atoms: N_20  and  C_23
REMARK   12  A    between atoms: C_23  and  C_25
REMARK   13  A    between atoms: C_23  and  C_26
REMARK   14  A    between atoms: N_28  and  C_29
REMARK                            x       y       z     vdW  Elec       q    Type
REMARK                         _______ _______ _______ _____ _____    ______ ____
ROOT
ATOM      1  C   UNL     1       2.376   4.247   0.128  0.00  0.00    +0.119 C 
ENDROOT
BRANCH   1   2
ATOM      2  N   UNL     1       2.164   5.700   0.138  0.00  0.00    -0.303 NA
ATOM      3  C   UNL     1       3.403   6.415  -0.198  0.00  0.00    +0.066 C 
ATOM      4  C   UNL     1       3.122   7.919  -0.255  0.00  0.00    -0.062 C 
ATOM      5  N   UNL     1       2.594   8.365   1.042  0.00  0.00    +0.389 N 
ATOM      6  C   UNL     1       1.355   7.650   1.377  0.00  0.00    -0.062 C 
ATOM      7  C   UNL     1       1.636   6.146   1.435  0.00  0.00    +0.066 C 
ATOM      8  H   UNL     1       3.342   8.129   1.813  0.00  0.00    -0.081 HD
BRANCH   5   9
ATOM      9  C   UNL     1       2.381   9.819   1.052  0.00  0.00    +0.016 C 
ATOM     10  C   UNL     1       1.403  10.199  -0.061  0.00  0.00    -0.004 C 
BRANCH   9  11
ATOM     11  C   UNL     1       3.696  10.520   0.826  0.00  0.00    +0.199 C 
ATOM     12  O   UNL     1       4.710   9.873   0.672  0.00  0.00    -0.278 OA
ATOM     13  N   UNL     1       3.745  11.866   0.795  0.00  0.00    -0.314 N 
ATOM     14  H   UNL     1       2.826  12.454   0.935  0.00  0.00    +0.149 HD
BRANCH  13  15
ATOM     15  C   UNL     1       5.023  12.548   0.575  0.00  0.00    +0.073 C 
ATOM     16  C   UNL     1       5.338  13.760   1.454  0.00  0.00    +0.024 C 
ATOM     17  C   UNL     1       4.979  13.956  -0.021  0.00  0.00    +0.024 C 
ENDBRANCH  13  15
ENDBRANCH   9  11
ENDBRANCH   5   9
ENDBRANCH   1   2
BRANCH   1  18
ATOM     18  C   UNL     1       1.029   3.535  -0.010  0.00  0.00    +0.166 C 
BRANCH  18  19
ATOM     19  O   UNL     1       0.408   3.924  -1.237  0.00  0.00    -0.387 OA
ATOM     20  H   UNL     1       0.170   4.982  -1.422  0.00  0.00    +0.210 HD
ENDBRANCH  18  19
BRANCH  18  21
ATOM     21  C   UNL     1       1.248   2.021  -0.007  0.00  0.00    +0.261 C 
BRANCH  21  22
ATOM     22  O   UNL     1      -0.016   1.356  -0.018  0.00  0.00    -0.489 OA
BRANCH  22  26
ATOM     23  C   UNL     1       2.540  -2.802   0.006  0.00  0.00    +0.045 C 
ATOM     24  C   UNL     1       1.226  -2.063  -0.006  0.00  0.00    -0.029 A 
ATOM     25  C   UNL     1       1.210  -0.682  -0.011  0.00  0.00    +0.050 A 
ATOM     26  C   UNL     1       0.001  -0.003  -0.017  0.00  0.00    +0.124 A 
ATOM     27  C   UNL     1      -1.191  -0.713  -0.028  0.00  0.00    -0.002 A 
ATOM     28  C   UNL     1      -1.171  -2.094  -0.027  0.00  0.00    +0.027 A 
ATOM     29  C   UNL     1       0.036  -2.769  -0.016  0.00  0.00    +0.044 A 
ATOM     30 CL   UNL     1       0.058  -4.505  -0.015  0.00  0.00    -0.083 Cl
BRANCH  27  31
ATOM     31  C   UNL     1      -2.506   0.023  -0.040  0.00  0.00    +0.016 C 
ATOM     32  C   UNL     1      -3.292  -0.359  -1.296  0.00  0.00    +0.012 C 
ATOM     33  C   UNL     1      -3.315  -0.357   1.202  0.00  0.00    +0.012 C 
ENDBRANCH  27  31
ENDBRANCH  22  26
ENDBRANCH  21  22
ENDBRANCH  18  21
ENDBRANCH   1  18
TORSDOF 10
