REMARK  Name = ZINC10279427
REMARK  8 active torsions:
REMARK  status: ('A' for Active; 'I' for Inactive)
REMARK    1  A    between atoms: C_4  and  N_7
REMARK    2  A    between atoms: C_8  and  C_10
REMARK    3  A    between atoms: C_15  and  O_16
REMARK    4  A    between atoms: O_16  and  C_17
REMARK    5  A    between atoms: C_17  and  C_18
REMARK    6  A    between atoms: N_20  and  C_21
REMARK    7  A    between atoms: C_21  and  C_22
REMARK    8  A    between atoms: N_24  and  C_25
REMARK                            x       y       z     vdW  Elec       q    Type
REMARK                         _______ _______ _______ _____ _____    ______ ____
ROOT
ATOM      1  C   UNL     1       8.458   2.056  -0.761  0.00  0.00    +0.324 C 
ENDROOT
BRANCH   1   2
ATOM      2  C   UNL     1       8.267   3.547  -0.664  0.00  0.00    +0.251 C 
ATOM      3  O   UNL     1       7.156   4.008  -0.509  0.00  0.00    -0.272 OA
ATOM      4  N   UNL     1       9.332   4.370  -0.749  0.00  0.00    -0.304 N 
ATOM      5  H   UNL     1      10.220   4.002  -0.873  0.00  0.00    +0.149 HD
BRANCH   4   6
ATOM      6  C   UNL     1       9.146   5.820  -0.654  0.00  0.00    +0.200 C 
BRANCH   6   7
ATOM      7  C   UNL     1      10.482   6.507  -0.779  0.00  0.00    +0.234 C 
ATOM      8  O   UNL     1      11.489   5.849  -0.932  0.00  0.00    -0.274 OA
ATOM      9  N   UNL     1      10.556   7.851  -0.720  0.00  0.00    -0.282 N 
ATOM     10  H   UNL     1       9.763   8.373  -0.520  0.00  0.00    +0.155 HD
BRANCH   9  11
ATOM     11  C   UNL     1      11.780   8.495  -0.948  0.00  0.00    +0.072 A 
ATOM     12  C   UNL     1      12.784   7.850  -1.657  0.00  0.00    +0.029 A 
ATOM     13  C   UNL     1      13.988   8.487  -1.885  0.00  0.00    +0.043 A 
ATOM     14  C   UNL     1      14.200   9.766  -1.400  0.00  0.00    +0.161 A 
ATOM     15  C   UNL     1      13.202  10.413  -0.687  0.00  0.00    +0.195 A 
ATOM     16  C   UNL     1      11.992   9.779  -0.460  0.00  0.00    +0.182 A 
ATOM     17  F   UNL     1      11.018  10.409   0.234  0.00  0.00    -0.200 F 
ATOM     18  F   UNL     1      13.410  11.661  -0.213  0.00  0.00    -0.199 F 
ATOM     19  F   UNL     1      15.380  10.385  -1.620  0.00  0.00    -0.202 F 
ENDBRANCH   9  11
ENDBRANCH   6   7
ENDBRANCH   4   6
ENDBRANCH   1   2
BRANCH   1  20
ATOM     20  O   UNL     1       7.191   1.405  -0.643  0.00  0.00    -0.482 OA
BRANCH  20  26
ATOM     21  C   UNL     1       5.981  -0.656  -0.603  0.00  0.00    +0.080 A 
ATOM     22  C   UNL     1       5.988  -2.051  -0.679  0.00  0.00    +0.036 A 
ATOM     23  C   UNL     1       7.178  -2.724  -0.855  0.00  0.00    +0.042 A 
ATOM     24  C   UNL     1       8.370  -2.022  -0.957  0.00  0.00    +0.023 A 
ATOM     25  C   UNL     1       8.376  -0.643  -0.882  0.00  0.00    +0.048 A 
ATOM     26  C   UNL     1       7.187   0.050  -0.711  0.00  0.00    +0.133 A 
ATOM     27 CL   UNL     1       7.186  -4.457  -0.950  0.00  0.00    -0.084 Cl
BRANCH  21  29
ATOM     28  N   UNL     1       3.552  -0.612  -0.318  0.00  0.00    -0.281 N 
ATOM     29  C   UNL     1       4.711   0.070  -0.415  0.00  0.00    +0.252 C 
ATOM     30  O   UNL     1       4.709   1.284  -0.349  0.00  0.00    -0.270 OA
ATOM     31  H   UNL     1       3.561  -1.581  -0.294  0.00  0.00    +0.155 HD
BRANCH  28  35
ATOM     32  C   UNL     1      -0.065   1.444  -0.117  0.00  0.00    +0.000 A 
ATOM     33  C   UNL     1       0.091   0.253   0.569  0.00  0.00    +0.002 A 
ATOM     34  C   UNL     1       1.289  -0.431   0.504  0.00  0.00    +0.023 A 
ATOM     35  C   UNL     1       2.338   0.079  -0.250  0.00  0.00    +0.034 A 
ATOM     36  C   UNL     1       2.178   1.275  -0.937  0.00  0.00    +0.023 A 
ATOM     37  C   UNL     1       0.978   1.954  -0.868  0.00  0.00    +0.002 A 
ENDBRANCH  28  35
ENDBRANCH  21  29
ENDBRANCH  20  26
ENDBRANCH   1  20
TORSDOF 8
