REMARK  Name = ZINC50671376
REMARK  3 active torsions:
REMARK  status: ('A' for Active; 'I' for Inactive)
REMARK    1  A    between atoms: C_4  and  N_20
REMARK    2  A    between atoms: C_6  and  S_7
REMARK    3  A    between atoms: S_7  and  N_10
REMARK                            x       y       z     vdW  Elec       q    Type
REMARK                         _______ _______ _______ _____ _____    ______ ____
ROOT
ATOM      1  S   UNL     1      -1.500  -0.925   0.012  0.00  0.00    +0.101 S 
ATOM      2  O   UNL     1      -1.189  -2.202   0.553  0.00  0.00    -0.146 OA
ATOM      3  O   UNL     1      -2.492  -0.079   0.577  0.00  0.00    -0.146 OA
ENDROOT
BRANCH   1   4
ATOM      4  N   UNL     1      -1.933  -1.173  -1.567  0.00  0.00    -0.103 NA
ATOM      5  C   UNL     1      -3.025  -1.839  -1.850  0.00  0.00    +0.192 A 
ATOM      6  N   UNL     1      -3.945  -2.407  -1.002  0.00  0.00    -0.336 N 
ATOM      7  C   UNL     1      -5.036  -3.071  -1.521  0.00  0.00    +0.028 A 
ATOM      8  C   UNL     1      -5.145  -3.130  -2.854  0.00  0.00    +0.012 A 
ATOM      9  S   UNL     1      -3.723  -2.248  -3.444  0.00  0.00    -0.053 S 
ATOM     10  C   UNL     1      -6.221  -3.785  -3.659  0.00  0.00    +0.044 C 
ATOM     11  C   UNL     1      -7.024  -4.713  -2.736  0.00  0.00    +0.006 C 
ATOM     12  C   UNL     1      -7.362  -3.948  -1.452  0.00  0.00    +0.006 C 
ATOM     13  C   UNL     1      -6.092  -3.723  -0.632  0.00  0.00    +0.054 C 
ATOM     14  H   UNL     1      -3.827  -2.341  -0.041  0.00  0.00    +0.168 HD
ENDBRANCH   1   4
BRANCH   1  20
ATOM     15  C   UNL     1      -0.017   1.384   0.010  0.00  0.00    +0.046 A 
ATOM     16  C   UNL     1       1.178   2.077   0.002  0.00  0.00    +0.086 A 
ATOM     17  N   UNL     1       2.331   1.436  -0.013  0.00  0.00    -0.350 N 
ATOM     18  C   UNL     1       2.391   0.113  -0.021  0.00  0.00    +0.095 A 
ATOM     19  C   UNL     1       1.226  -0.648  -0.014  0.00  0.00    +0.070 A 
ATOM     20  C   UNL     1       0.002  -0.004   0.002  0.00  0.00    +0.117 A 
ATOM     21  H   UNL     1       3.156   1.947  -0.018  0.00  0.00    +0.166 HD
BRANCH  18  22
ATOM     22  N   UNL     1       3.628  -0.520  -0.036  0.00  0.00    -0.345 N 
ATOM     23  H   UNL     1       4.442   0.006  -0.041  0.00  0.00    +0.144 HD
ATOM     24  H   UNL     1       3.677  -1.489  -0.042  0.00  0.00    +0.144 HD
ENDBRANCH  18  22
ENDBRANCH   1  20
TORSDOF 3
