REMARK  Name = ZINC20212396
REMARK  7 active torsions:
REMARK  status: ('A' for Active; 'I' for Inactive)
REMARK    1  A    between atoms: C_7  and  C_14
REMARK    2  A    between atoms: N_9  and  C_10
REMARK    3  A    between atoms: C_10  and  C_11
REMARK    4  A    between atoms: C_14  and  N_15
REMARK    5  A    between atoms: C_19  and  C_22
REMARK    6  A    between atoms: C_22  and  N_23
REMARK    7  A    between atoms: C_24  and  C_26
REMARK                            x       y       z     vdW  Elec       q    Type
REMARK                         _______ _______ _______ _____ _____    ______ ____
ROOT
ATOM      1  N   UNL     1       2.000   3.702  -1.361  0.00  0.00    +0.383 N 
ATOM      2  C   UNL     1       0.823   3.674  -2.239  0.00  0.00    -0.078 C 
ATOM      3  C   UNL     1       1.251   3.968  -3.678  0.00  0.00    -0.018 C 
ATOM      4  C   UNL     1       1.922   5.343  -3.736  0.00  0.00    +0.001 C 
ATOM      5  C   UNL     1       3.115   5.361  -2.777  0.00  0.00    -0.011 C 
ATOM      6  C   UNL     1       2.633   5.027  -1.364  0.00  0.00    -0.073 C 
ATOM      7  H   UNL     1       2.731   2.981  -1.757  0.00  0.00    -0.081 HD
ENDROOT
BRANCH   1   8
ATOM      8  C   UNL     1       1.649   3.289   0.004  0.00  0.00    -0.041 C 
BRANCH   8  15
ATOM      9  C   UNL     1       4.066  -0.727  -0.042  0.00  0.00    +0.001 A 
ATOM     10  C   UNL     1       3.249  -1.850  -0.040  0.00  0.00    +0.002 A 
ATOM     11  C   UNL     1       1.878  -1.721  -0.025  0.00  0.00    +0.026 A 
ATOM     12  C   UNL     1       1.303  -0.455  -0.013  0.00  0.00    +0.050 A 
ATOM     13  C   UNL     1       2.135   0.680  -0.015  0.00  0.00    +0.001 A 
ATOM     14  C   UNL     1       3.523   0.526  -0.030  0.00  0.00    +0.010 A 
ATOM     15  C   UNL     1       1.239   1.839   0.000  0.00  0.00    -0.039 A 
ATOM     16  C   UNL     1      -0.017   1.364   0.009  0.00  0.00    +0.089 A 
ATOM     17  N   UNL     1       0.002  -0.004   0.002  0.00  0.00    -0.338 N 
BRANCH  17  18
ATOM     18  C   UNL     1      -1.185  -0.862   0.009  0.00  0.00    +0.217 C 
BRANCH  18  19
ATOM     19  C   UNL     1      -1.506  -1.264   1.425  0.00  0.00    +0.230 C 
ATOM     20  O   UNL     1      -0.811  -0.873   2.339  0.00  0.00    -0.274 OA
ATOM     21  N   UNL     1      -2.566  -2.059   1.676  0.00  0.00    -0.328 N 
ATOM     22  H   UNL     1      -2.800  -2.353   2.710  0.00  0.00    +0.145 HD
ATOM     23  H   UNL     1      -3.196  -2.414   0.848  0.00  0.00    +0.145 HD
ENDBRANCH  18  19
ENDBRANCH  17  18
ENDBRANCH   8  15
ENDBRANCH   1   8
BRANCH   5  24
ATOM     24  C   UNL     1       3.755   6.751  -2.784  0.00  0.00    +0.106 C 
BRANCH  24  25
ATOM     25  N   UNL     1       4.318   7.023  -4.109  0.00  0.00    -0.311 N 
ATOM     26  C   UNL     1       4.936   8.196  -4.350  0.00  0.00    +0.244 C 
ATOM     27  O   UNL     1       5.027   9.029  -3.468  0.00  0.00    -0.270 OA
ATOM     28  H   UNL     1       4.237   6.270  -4.906  0.00  0.00    +0.149 HD
BRANCH  26  29
ATOM     29  C   UNL     1       5.504   8.470  -5.685  0.00  0.00    +0.040 A 
ATOM     30  C   UNL     1       5.406   7.513  -6.697  0.00  0.00    +0.017 A 
ATOM     31  C   UNL     1       5.931   7.773  -7.944  0.00  0.00    +0.050 A 
ATOM     32  C   UNL     1       6.569   8.980  -8.196  0.00  0.00    +0.166 A 
ATOM     33  C   UNL     1       6.675   9.939  -7.187  0.00  0.00    +0.167 A 
ATOM     34  C   UNL     1       6.145   9.686  -5.937  0.00  0.00    +0.062 A 
ATOM     35  O   UNL     1       7.338  11.024  -7.685  0.00  0.00    -0.453 OA
ATOM     36  C   UNL     1       7.993  10.557  -8.880  0.00  0.00    +0.466 C 
ATOM     37  O   UNL     1       7.164   9.467  -9.322  0.00  0.00    -0.453 OA
ENDBRANCH  26  29
ENDBRANCH  24  25
ENDBRANCH   5  24
TORSDOF 7
