REMARK  Name = ZINC32579232
REMARK  13 active torsions:
REMARK  status: ('A' for Active; 'I' for Inactive)
REMARK    1  A    between atoms: C_1  and  C_2
REMARK    2  A    between atoms: C_4  and  O_5
REMARK    3  A    between atoms: N_13  and  C_14
REMARK    4  A    between atoms: C_14  and  N_16
REMARK    5  A    between atoms: N_16  and  N_17
REMARK    6  A    between atoms: C_18  and  C_20
REMARK    7  A    between atoms: C_20  and  C_22
REMARK    8  A    between atoms: C_20  and  O_23
REMARK    9  A    between atoms: O_23  and  C_24
REMARK   10  A    between atoms: C_27  and  C_30
REMARK   11  A    between atoms: C_30  and  C_31
REMARK   12  A    between atoms: C_30  and  C_32
REMARK   13  A    between atoms: C_30  and  C_33
REMARK                            x       y       z     vdW  Elec       q    Type
REMARK                         _______ _______ _______ _____ _____    ______ ____
ROOT
ATOM      1  N   UNL     1      -3.221  -0.122   1.184  0.00  0.00    -0.246 N 
ATOM      2  H   UNL     1      -4.007   0.614   0.956  0.00  0.00    +0.172 HD
ENDROOT
BRANCH   1   3
ATOM      3  N   UNL     1      -1.888   0.290   1.300  0.00  0.00    -0.232 N 
ATOM      4  C   UNL     1      -1.567   1.589   1.133  0.00  0.00    +0.270 C 
ATOM      5  O   UNL     1      -2.433   2.400   0.881  0.00  0.00    -0.270 OA
ATOM      6  H   UNL     1      -1.102  -0.445   1.528  0.00  0.00    +0.173 HD
BRANCH   4   7
ATOM      7  C   UNL     1      -0.132   2.033   1.258  0.00  0.00    +0.257 C 
ATOM      8  C   UNL     1       0.697   1.400   0.138  0.00  0.00    +0.062 C 
BRANCH   7   9
ATOM      9  O   UNL     1      -0.063   3.456   1.155  0.00  0.00    -0.480 OA
BRANCH   9  10
ATOM     10  C   UNL     1       1.017   4.064   1.713  0.00  0.00    +0.122 A 
ATOM     11  C   UNL     1       2.002   3.303   2.326  0.00  0.00    +0.046 A 
ATOM     12  C   UNL     1       3.102   3.922   2.887  0.00  0.00    +0.008 A 
ATOM     13  C   UNL     1       3.217   5.300   2.847  0.00  0.00    -0.042 A 
ATOM     14  C   UNL     1       2.234   6.060   2.241  0.00  0.00    +0.008 A 
ATOM     15  C   UNL     1       1.135   5.445   1.674  0.00  0.00    +0.046 A 
BRANCH  13  16
ATOM     16  C   UNL     1       4.415   5.973   3.465  0.00  0.00    -0.013 C 
ATOM     17  C   UNL     1       3.952   6.927   4.568  0.00  0.00    +0.015 C 
ATOM     18  C   UNL     1       5.343   4.914   4.063  0.00  0.00    +0.015 C 
ATOM     19  C   UNL     1       5.167   6.762   2.391  0.00  0.00    +0.015 C 
ENDBRANCH  13  16
ENDBRANCH   9  10
ENDBRANCH   7   9
ENDBRANCH   4   7
ENDBRANCH   1   3
BRANCH   1  20
ATOM     20  C   UNL     1      -3.542  -1.420   1.351  0.00  0.00    +0.151 C 
ATOM     21  S   UNL     1      -5.172  -1.925   1.209  0.00  0.00    -0.017 S 
BRANCH  20  33
ATOM     22  C   UNL     1      -5.084  -8.261   2.732  0.00  0.00    +0.045 C 
ATOM     23  C   UNL     1      -3.867  -7.786   1.981  0.00  0.00    -0.033 A 
ATOM     24  C   UNL     1      -3.040  -8.669   1.362  0.00  0.00    +0.091 A 
ATOM     25  C   UNL     1      -1.908  -8.200   0.665  0.00  0.00    +0.285 A 
ATOM     26  O   UNL     1      -1.617  -6.892   0.592  0.00  0.00    -0.425 OA
ATOM     27  C   UNL     1      -2.397  -5.962   1.185  0.00  0.00    +0.141 A 
ATOM     28  C   UNL     1      -3.543  -6.361   1.898  0.00  0.00    +0.021 A 
ATOM     29  C   UNL     1      -4.356  -5.401   2.513  0.00  0.00    +0.013 A 
ATOM     30  C   UNL     1      -4.029  -4.079   2.425  0.00  0.00    +0.024 A 
ATOM     31  C   UNL     1      -2.897  -3.677   1.716  0.00  0.00    +0.036 A 
ATOM     32  C   UNL     1      -2.082  -4.615   1.100  0.00  0.00    +0.070 A 
ATOM     33  N   UNL     1      -2.580  -2.322   1.631  0.00  0.00    -0.296 N 
ATOM     34  H   UNL     1      -1.544  -1.988   1.791  0.00  0.00    +0.154 HD
BRANCH  25  35
ATOM     35  O   UNL     1      -1.176  -9.002   0.114  0.00  0.00    -0.480 OA
ATOM     36  H   UNL     1      -0.289  -8.652  -0.434  0.00  0.00    +0.295 HD
ENDBRANCH  25  35
ENDBRANCH  20  33
ENDBRANCH   1  20
TORSDOF 8
