REMARK  Name = ZINC61871364
REMARK  3 active torsions:
REMARK  status: ('A' for Active; 'I' for Inactive)
REMARK    1  A    between atoms: C_3  and  C_8
REMARK    2  A    between atoms: N_9  and  N_10
REMARK    3  A    between atoms: N_11  and  C_12
REMARK                            x       y       z     vdW  Elec       q    Type
REMARK                         _______ _______ _______ _____ _____    ______ ____
ROOT
ATOM      1  C   UNL     1       3.695   2.080  -0.457  0.00  0.00    +0.135 C 
ATOM      2  N   UNL     1       3.707   3.336  -0.114  0.00  0.00    -0.299 N 
ATOM      3  N   UNL     1       4.852   1.310  -0.326  0.00  0.00    -0.325 N 
ATOM      4  H   UNL     1       4.844   0.374  -0.582  0.00  0.00    +0.148 HD
ATOM      5  H   UNL     1       4.542   3.764   0.132  0.00  0.00    +0.185 HD
ENDROOT
BRANCH   1   8
ATOM      6  C   UNL     1       1.234  -0.464  -1.692  0.00  0.00    +0.019 A 
ATOM      7  C   UNL     1       2.400   0.092  -1.197  0.00  0.00    +0.032 A 
ATOM      8  C   UNL     1       2.458   1.471  -0.986  0.00  0.00    +0.103 A 
ATOM      9  N   UNL     1       1.408   2.239  -1.256  0.00  0.00    -0.251 NA
ATOM     10  C   UNL     1       0.286   1.734  -1.729  0.00  0.00    +0.126 A 
ATOM     11  C   UNL     1       0.161   0.376  -1.962  0.00  0.00    +0.036 A 
ATOM     12 BR   UNL     1      -1.456  -0.331  -2.640  0.00  0.00    -0.049 Br
ENDBRANCH   1   8
BRANCH   2  13
ATOM     13  N   UNL     1       2.513   4.069  -0.099  0.00  0.00    -0.304 N 
ATOM     14  H   UNL     1       1.668   3.617   0.053  0.00  0.00    +0.162 HD
ATOM     15  H   UNL     1       2.532   5.029  -0.239  0.00  0.00    +0.162 HD
ENDBRANCH   2  13
BRANCH   3  16
ATOM     16  C   UNL     1       6.080   1.915   0.198  0.00  0.00    +0.072 C 
ATOM     17  C   UNL     1       7.391   1.582  -0.515  0.00  0.00    +0.024 C 
ATOM     18  C   UNL     1       7.097   0.985   0.862  0.00  0.00    +0.024 C 
ENDBRANCH   3  16
TORSDOF 3
