REMARK  Name = ZINC63350623
REMARK  11 active torsions:
REMARK  status: ('A' for Active; 'I' for Inactive)
REMARK    1  A    between atoms: C_1  and  O_2
REMARK    2  A    between atoms: O_2  and  C_3
REMARK    3  A    between atoms: C_6  and  C_9
REMARK    4  A    between atoms: C_22  and  C_38
REMARK    5  A    between atoms: N_27  and  C_28
REMARK    6  A    between atoms: C_31  and  O_36
REMARK    7  A    between atoms: C_33  and  O_34
REMARK    8  A    between atoms: O_34  and  C_35
REMARK    9  A    between atoms: O_36  and  C_37
REMARK   10  A    between atoms: C_38  and  O_40
REMARK   11  A    between atoms: O_40  and  C_41
REMARK                            x       y       z     vdW  Elec       q    Type
REMARK                         _______ _______ _______ _____ _____    ______ ____
ROOT
ATOM      1  C   UNL     1       2.794  -2.541  -4.553  0.00  0.00    +0.135 C 
ATOM      2  C   UNL     1       1.568  -2.668  -5.464  0.00  0.00    +0.131 C 
ATOM      3  C   UNL     1       1.814  -3.878  -6.357  0.00  0.00    -0.034 C 
ATOM      4  C   UNL     1       1.712  -3.447  -7.609  0.00  0.00    -0.001 A 
ATOM      5  C   UNL     1       1.780  -4.156  -8.897  0.00  0.00    +0.010 A 
ATOM      6  C   UNL     1       1.643  -3.389 -10.011  0.00  0.00    +0.001 A 
ATOM      7  C   UNL     1       1.448  -2.004  -9.972  0.00  0.00    +0.002 A 
ATOM      8  C   UNL     1       1.368  -1.272  -8.832  0.00  0.00    +0.026 A 
ATOM      9  C   UNL     1       1.494  -1.968  -7.595  0.00  0.00    +0.043 A 
ATOM     10  N   UNL     1       1.431  -1.515  -6.355  0.00  0.00    -0.375 N 
ATOM     11  C   UNL     1       2.176  -5.234  -5.803  0.00  0.00    +0.067 C 
ATOM     12  C   UNL     1       3.351  -5.017  -4.831  0.00  0.00    +0.191 C 
ATOM     13  N   UNL     1       3.064  -3.865  -3.970  0.00  0.00    -0.262 N 
ATOM     14  C   UNL     1       3.046  -4.021  -2.631  0.00  0.00    +0.308 C 
ATOM     15  O   UNL     1       2.378  -3.276  -1.941  0.00  0.00    -0.252 OA
ATOM     16  N   UNL     1       3.770  -5.002  -2.057  0.00  0.00    -0.266 N 
ATOM     17  H   UNL     1       4.351  -5.557  -2.601  0.00  0.00    +0.156 HD
ATOM     18  H   UNL     1       1.319  -0.593  -6.077  0.00  0.00    +0.160 HD
ENDROOT
BRANCH   1  22
ATOM     19  C   UNL     1       1.996   0.275  -1.439  0.00  0.00    +0.120 A 
ATOM     20  C   UNL     1       0.947  -0.367  -2.081  0.00  0.00    +0.046 A 
ATOM     21  C   UNL     1       1.208  -1.277  -3.087  0.00  0.00    +0.009 A 
ATOM     22  C   UNL     1       2.513  -1.548  -3.455  0.00  0.00    -0.024 A 
ATOM     23  C   UNL     1       3.560  -0.909  -2.817  0.00  0.00    +0.009 A 
ATOM     24  C   UNL     1       3.304   0.006  -1.814  0.00  0.00    +0.046 A 
BRANCH  19  26
ATOM     25  C   UNL     1       0.372   1.398  -0.116  0.00  0.00    +0.277 C 
ATOM     26  O   UNL     1       1.742   1.171  -0.449  0.00  0.00    -0.495 OA
ENDBRANCH  19  26
ENDBRANCH   1  22
BRANCH  16  27
ATOM     27  C   UNL     1       3.683  -5.222  -0.674  0.00  0.00    +0.077 A 
ATOM     28  C   UNL     1       2.655  -4.644   0.057  0.00  0.00    +0.030 A 
ATOM     29  C   UNL     1       2.569  -4.860   1.419  0.00  0.00    +0.047 A 
ATOM     30  C   UNL     1       3.510  -5.654   2.059  0.00  0.00    +0.124 A 
ATOM     31  C   UNL     1       4.539  -6.233   1.332  0.00  0.00    +0.093 A 
ATOM     32  C   UNL     1       4.625  -6.024  -0.034  0.00  0.00    +0.145 A 
BRANCH  32  33
ATOM     33  O   UNL     1       5.630  -6.596  -0.749  0.00  0.00    -0.493 OA
ATOM     34  C   UNL     1       6.560  -7.406  -0.028  0.00  0.00    +0.277 C 
ENDBRANCH  32  33
BRANCH  30  35
ATOM     35  O   UNL     1       3.423  -5.864   3.399  0.00  0.00    -0.495 OA
ATOM     36  C   UNL     1       2.337  -5.236   4.085  0.00  0.00    +0.277 C 
ENDBRANCH  30  35
ENDBRANCH  16  27
BRANCH  12  37
ATOM     37  C   UNL     1       3.535  -6.247  -3.981  0.00  0.00    +0.328 C 
ATOM     38  O   UNL     1       2.679  -6.570  -3.192  0.00  0.00    -0.249 OA
BRANCH  37  39
ATOM     39  O   UNL     1       4.650  -6.984  -4.101  0.00  0.00    -0.467 OA
ATOM     40  C   UNL     1       4.591  -8.331  -3.626  0.00  0.00    +0.280 C 
ENDBRANCH  37  39
ENDBRANCH  12  37
TORSDOF 7
