REMARK  Name = ZINC33486518
REMARK  10 active torsions:
REMARK  status: ('A' for Active; 'I' for Inactive)
REMARK    1  A    between atoms: C_1  and  C_2
REMARK    2  A    between atoms: C_5  and  O_12
REMARK    3  A    between atoms: C_6  and  C_8
REMARK    4  A    between atoms: C_8  and  C_9
REMARK    5  A    between atoms: C_8  and  C_10
REMARK    6  A    between atoms: C_8  and  C_11
REMARK    7  A    between atoms: O_12  and  C_13
REMARK    8  A    between atoms: C_13  and  C_14
REMARK    9  A    between atoms: C_14  and  C_15
REMARK   10  A    between atoms: C_18  and  C_22
REMARK                            x       y       z     vdW  Elec       q    Type
REMARK                         _______ _______ _______ _____ _____    ______ ____
ROOT
ATOM      1  O   UNK     1      -2.649   2.902   4.642  0.00  0.00    -0.492 OA
ENDROOT
BRANCH   1   6
ATOM      2  C   UNK     1      -0.013   1.086   0.008  0.00  0.00    +0.044 C 
ATOM      3  C   UNK     1      -0.718   1.572   1.248  0.00  0.00    -0.050 A 
ATOM      4  C   UNK     1       0.002   1.805   2.405  0.00  0.00    +0.007 A 
ATOM      5  C   UNK     1      -0.642   2.250   3.543  0.00  0.00    +0.046 A 
ATOM      6  C   UNK     1      -2.013   2.463   3.524  0.00  0.00    +0.124 A 
ATOM      7  C   UNK     1      -2.733   2.229   2.362  0.00  0.00    -0.000 A 
ATOM      8  C   UNK     1      -2.083   1.789   1.225  0.00  0.00    +0.011 A 
BRANCH   7   9
ATOM      9  C   UNK     1      -4.222   2.460   2.338  0.00  0.00    -0.009 C 
ATOM     10  C   UNK     1      -4.767   2.129   0.947  0.00  0.00    +0.015 C 
ATOM     11  C   UNK     1      -4.895   1.560   3.377  0.00  0.00    +0.015 C 
ATOM     12  C   UNK     1      -4.516   3.925   2.665  0.00  0.00    +0.015 C 
ENDBRANCH   7   9
ENDBRANCH   1   6
BRANCH   1  13
ATOM     13  C   UNK     1      -1.844   3.123   5.802  0.00  0.00    +0.228 C 
BRANCH  13  14
ATOM     14  C   UNK     1      -2.729   3.610   6.952  0.00  0.00    +0.036 C 
BRANCH  14  15
ATOM     15  C   UNK     1      -1.867   3.846   8.193  0.00  0.00    -0.008 C 
ATOM     16  N   UNK     1      -2.711   4.148   9.389  0.00  0.00    +0.396 N 
ATOM     17  C   UNK     1      -1.948   3.894  10.625  0.00  0.00    +0.055 C 
ATOM     18  C   UNK     1      -1.272   2.500  10.564  0.00  0.00    +0.063 C 
ATOM     19  S   UNK     1      -1.052   2.288   8.747  0.00  0.00    -0.178 S 
ATOM     20  H   UNK     1      -3.018   5.204   9.364  0.00  0.00    -0.083 HD
ATOM     21  H   UNK     1      -3.605   3.506   9.378  0.00  0.00    -0.083 HD
BRANCH  17  22
ATOM     22  C   UNK     1      -2.882   3.945  11.806  0.00  0.00    +0.343 C 
ATOM     23  O   UNK     1      -4.064   4.126  11.635  0.00  0.00    -0.248 OA
ATOM     24  O   UNK     1      -2.400   3.788  13.050  0.00  0.00    -0.248 OA
ENDBRANCH  17  22
ENDBRANCH  14  15
ENDBRANCH  13  14
ENDBRANCH   1  13
TORSDOF 6
