REMARK  Name = ZINC22916066
REMARK  9 active torsions:
REMARK  status: ('A' for Active; 'I' for Inactive)
REMARK    1  A    between atoms: C_1  and  C_2
REMARK    2  A    between atoms: C_7  and  N_12
REMARK    3  A    between atoms: C_9  and  C_11
REMARK    4  A    between atoms: C_13  and  C_15
REMARK    5  A    between atoms: C_15  and  N_16
REMARK    6  A    between atoms: N_19  and  C_22
REMARK    7  A    between atoms: C_22  and  C_23
REMARK    8  A    between atoms: N_25  and  C_26
REMARK    9  A    between atoms: C_30  and  C_32
REMARK                            x       y       z     vdW  Elec       q    Type
REMARK                         _______ _______ _______ _____ _____    ______ ____
ROOT
ATOM      1  N   UNL     1      -1.292   1.772   0.974  0.00  0.00    +0.387 N 
ATOM      2  C   UNL     1      -1.229   3.232   1.134  0.00  0.00    -0.063 C 
ATOM      3  C   UNL     1      -1.860   3.623   2.473  0.00  0.00    +0.066 C 
ATOM      4  N   UNL     1      -1.147   2.944   3.564  0.00  0.00    -0.298 NA
ATOM      5  C   UNL     1      -1.210   1.485   3.403  0.00  0.00    +0.066 C 
ATOM      6  C   UNL     1      -0.579   1.094   2.065  0.00  0.00    -0.063 C 
ATOM      7  H   UNL     1      -2.349   1.471   1.019  0.00  0.00    -0.081 HD
ENDROOT
BRANCH   1   8
ATOM      8  C   UNL     1      -0.763   1.363  -0.335  0.00  0.00    +0.019 C 
BRANCH   8  10
ATOM      9  N   UNL     1      -1.378   1.625  -2.716  0.00  0.00    -0.314 N 
ATOM     10  C   UNL     1      -1.667   1.880  -1.425  0.00  0.00    +0.197 C 
ATOM     11  O   UNL     1      -2.653   2.525  -1.140  0.00  0.00    -0.278 OA
ATOM     12  H   UNL     1      -0.483   1.040  -2.975  0.00  0.00    +0.149 HD
BRANCH   9  18
ATOM     13  C   UNL     1      -2.887   0.886  -7.366  0.00  0.00    +0.008 C 
ATOM     14  C   UNL     1      -3.030   1.769  -6.125  0.00  0.00    -0.009 C 
ATOM     15  C   UNL     1      -2.638   3.206  -6.473  0.00  0.00    +0.003 C 
ATOM     16  C   UNL     1      -2.780   4.089  -5.232  0.00  0.00    +0.002 C 
ATOM     17  C   UNL     1      -1.864   3.564  -4.125  0.00  0.00    +0.022 C 
ATOM     18  C   UNL     1      -2.256   2.127  -3.776  0.00  0.00    +0.076 C 
ATOM     19  C   UNL     1      -2.113   1.244  -5.018  0.00  0.00    +0.009 C 
ATOM     20  C   UNL     1      -0.661   1.274  -5.501  0.00  0.00    +0.009 C 
ENDBRANCH   9  18
ENDBRANCH   8  10
ENDBRANCH   1   8
BRANCH   4  21
ATOM     21  C   UNL     1      -1.675   3.353   4.872  0.00  0.00    +0.180 C 
BRANCH  21  22
ATOM     22  C   UNL     1      -1.373   4.811   5.103  0.00  0.00    +0.231 C 
ATOM     23  O   UNL     1      -0.776   5.448   4.260  0.00  0.00    -0.274 OA
ATOM     24  N   UNL     1      -1.766   5.409   6.245  0.00  0.00    -0.284 N 
ATOM     25  H   UNL     1      -2.382   4.857   6.971  0.00  0.00    +0.155 HD
BRANCH  24  26
ATOM     26  C   UNL     1      -1.391   6.731   6.508  0.00  0.00    +0.034 A 
ATOM     27  C   UNL     1      -0.162   7.207   6.068  0.00  0.00    +0.025 A 
ATOM     28  C   UNL     1       0.203   8.513   6.325  0.00  0.00    +0.022 A 
ATOM     29  C   UNL     1      -0.648   9.346   7.030  0.00  0.00    +0.053 A 
ATOM     30  C   UNL     1      -1.871   8.873   7.474  0.00  0.00    +0.075 A 
ATOM     31  C   UNL     1      -2.244   7.569   7.215  0.00  0.00    +0.037 A 
ATOM     32 CL   UNL     1      -0.182  10.986   7.357  0.00  0.00    -0.083 Cl
BRANCH  30  33
ATOM     33  C   UNL     1      -2.796   9.783   8.241  0.00  0.00    +0.419 C 
ATOM     34  F   UNL     1      -3.960   9.085   8.579  0.00  0.00    -0.166 F 
ATOM     35  F   UNL     1      -2.159  10.221   9.407  0.00  0.00    -0.166 F 
ATOM     36  F   UNL     1      -3.127  10.887   7.447  0.00  0.00    -0.166 F 
ENDBRANCH  30  33
ENDBRANCH  24  26
ENDBRANCH  21  22
ENDBRANCH   4  21
TORSDOF 7
