REMARK  Name = ZINC34983047
REMARK  10 active torsions:
REMARK  status: ('A' for Active; 'I' for Inactive)
REMARK    1  A    between atoms: C_1  and  C_2
REMARK    2  A    between atoms: C_5  and  C_8
REMARK    3  A    between atoms: C_9  and  N_32
REMARK    4  A    between atoms: C_11  and  C_13
REMARK    5  A    between atoms: C_13  and  C_30
REMARK    6  A    between atoms: C_14  and  C_15
REMARK    7  A    between atoms: C_18  and  C_20
REMARK    8  A    between atoms: C_23  and  S_26
REMARK    9  A    between atoms: S_26  and  N_29
REMARK   10  A    between atoms: C_33  and  C_35
REMARK                            x       y       z     vdW  Elec       q    Type
REMARK                         _______ _______ _______ _____ _____    ______ ____
ROOT
ATOM      1  C   UNL     1      -1.231  -7.168  -1.930  0.00  0.00    +0.087 C 
ATOM      2  C   UNL     1      -1.100  -8.535  -1.775  0.00  0.00    +0.067 C 
ENDROOT
BRANCH   1   6
ATOM      3  C   UNL     1       0.060  -4.254  -0.021  0.00  0.00    +0.100 A 
ATOM      4  C   UNL     1       0.756  -4.957   0.954  0.00  0.00    +0.100 A 
ATOM      5  S   UNL     1       0.428  -6.640   0.446  0.00  0.00    -0.051 S 
ATOM      6  C   UNL     1      -0.579  -6.253  -0.979  0.00  0.00    +0.121 A 
ATOM      7  N   UNL     1      -0.589  -4.929  -0.952  0.00  0.00    -0.236 NA
BRANCH   3  12
ATOM      8  C   UNL     1      -0.018   1.503   0.010  0.00  0.00    +0.044 C 
ATOM      9  C   UNL     1       0.002  -0.004   0.002  0.00  0.00    -0.050 A 
ATOM     10  C   UNL     1       0.006  -0.686  -1.202  0.00  0.00    +0.004 A 
ATOM     11  C   UNL     1       0.024  -2.066  -1.216  0.00  0.00    +0.010 A 
ATOM     12  C   UNL     1       0.040  -2.773  -0.013  0.00  0.00    +0.003 A 
ATOM     13  C   UNL     1       0.037  -2.079   1.197  0.00  0.00    +0.010 A 
ATOM     14  C   UNL     1       0.023  -0.699   1.198  0.00  0.00    +0.004 A 
ENDBRANCH   3  12
BRANCH   4  15
ATOM     15  N   UNL     1       1.503  -4.483   2.029  0.00  0.00    -0.278 N 
ATOM     16  C   UNL     1       2.105  -5.351   2.866  0.00  0.00    +0.215 C 
ATOM     17  O   UNL     1       1.996  -6.545   2.683  0.00  0.00    -0.276 OA
ATOM     18  C   UNL     1       2.914  -4.837   4.029  0.00  0.00    +0.109 C 
ATOM     19  H   UNL     1       1.590  -3.528   2.175  0.00  0.00    +0.155 HD
ENDBRANCH   4  15
ENDBRANCH   1   6
BRANCH   2  20
ATOM     20  C   UNL     1      -1.725  -9.410  -2.686  0.00  0.00    +0.130 A 
ATOM     21  C   UNL     1      -1.679 -10.793  -2.644  0.00  0.00    +0.050 A 
ATOM     22  C   UNL     1      -2.430 -11.255  -3.728  0.00  0.00    +0.050 A 
ATOM     23  C   UNL     1      -2.905 -10.146  -4.390  0.00  0.00    +0.136 A 
ATOM     24  O   UNL     1      -2.475  -9.045  -3.747  0.00  0.00    -0.455 OA
BRANCH  23  25
ATOM     25  C   UNL     1      -3.749 -10.162  -5.601  0.00  0.00    +0.017 A 
ATOM     26  C   UNL     1      -4.138 -11.377  -6.169  0.00  0.00    +0.013 A 
ATOM     27  C   UNL     1      -4.927 -11.384  -7.300  0.00  0.00    +0.029 A 
ATOM     28  C   UNL     1      -5.332 -10.191  -7.873  0.00  0.00    +0.105 A 
ATOM     29  C   UNL     1      -4.950  -8.984  -7.315  0.00  0.00    +0.029 A 
ATOM     30  C   UNL     1      -4.167  -8.961  -6.181  0.00  0.00    +0.013 A 
BRANCH  28  31
ATOM     31  S   UNL     1      -6.339 -10.210  -9.319  0.00  0.00    +0.056 S 
ATOM     32  O   UNL     1      -6.131  -8.966  -9.975  0.00  0.00    -0.153 OA
ATOM     33  O   UNL     1      -6.106 -11.457  -9.959  0.00  0.00    -0.153 OA
BRANCH  31  34
ATOM     34  N   UNL     1      -7.917 -10.223  -8.817  0.00  0.00    -0.204 NA
ATOM     35  H   UNL     1      -8.124 -10.219  -7.869  0.00  0.00    +0.144 HD
ATOM     36  H   UNL     1      -8.634 -10.234  -9.470  0.00  0.00    +0.144 HD
ENDBRANCH  31  34
ENDBRANCH  28  31
ENDBRANCH  23  25
ENDBRANCH   2  20
BRANCH   1  37
ATOM     37  C   UNL     1      -2.002  -6.641  -3.016  0.00  0.00    +0.102 C 
ATOM     38  N   UNL     1      -2.613  -6.223  -3.878  0.00  0.00    -0.191 NA
ENDBRANCH   1  37
TORSDOF 8
