REMARK  Name = ZINC67406944
REMARK  8 active torsions:
REMARK  status: ('A' for Active; 'I' for Inactive)
REMARK    1  A    between atoms: C_1  and  C_2
REMARK    2  A    between atoms: C_2  and  C_4
REMARK    3  A    between atoms: C_2  and  C_19
REMARK    4  A    between atoms: C_4  and  N_5
REMARK    5  A    between atoms: N_8  and  N_9
REMARK    6  A    between atoms: C_10  and  C_12
REMARK    7  A    between atoms: C_12  and  C_13
REMARK    8  A    between atoms: C_19  and  N_20
REMARK                            x       y       z     vdW  Elec       q    Type
REMARK                         _______ _______ _______ _____ _____    ______ ____
ROOT
ATOM      1  N   UNL     1       2.248  -0.180   0.990  0.00  0.00    -0.298 N 
ATOM      2  C   UNL     1       3.151  -0.449   1.953  0.00  0.00    +0.316 C 
ATOM      3  O   UNL     1       2.792  -0.952   3.000  0.00  0.00    -0.251 OA
ATOM      4  N   UNL     1       4.453  -0.159   1.756  0.00  0.00    -0.218 N 
ATOM      5  H   UNL     1       2.534   0.222   0.154  0.00  0.00    +0.150 HD
ATOM      6  H   UNL     1       5.103  -0.353   2.449  0.00  0.00    +0.174 HD
ENDROOT
BRANCH   4   7
ATOM      7  N   UNL     1       4.866   0.421   0.549  0.00  0.00    -0.233 N 
ATOM      8  C   UNL     1       6.168   0.711   0.352  0.00  0.00    +0.229 C 
ATOM      9  O   UNL     1       6.981   0.469   1.219  0.00  0.00    -0.274 OA
ATOM     10  H   UNL     1       4.216   0.615  -0.144  0.00  0.00    +0.173 HD
BRANCH   8  11
ATOM     11  C   UNL     1       6.613   1.335  -0.945  0.00  0.00    +0.101 C 
BRANCH  11  12
ATOM     12  C   UNL     1       8.126   1.559  -0.911  0.00  0.00    -0.002 C 
ATOM     13  C   UNL     1       8.465   2.587   0.170  0.00  0.00    +0.004 C 
ATOM     14  C   UNL     1       9.978   2.811   0.204  0.00  0.00    +0.000 C 
ATOM     15  C   UNL     1      10.448   3.328  -1.157  0.00  0.00    +0.000 C 
ATOM     16  C   UNL     1      10.109   2.300  -2.238  0.00  0.00    +0.000 C 
ATOM     17  C   UNL     1       8.596   2.076  -2.272  0.00  0.00    +0.004 C 
ENDBRANCH  11  12
ENDBRANCH   8  11
ENDBRANCH   4   7
BRANCH   1  18
ATOM     18  C   UNL     1       0.833  -0.494   1.204  0.00  0.00    +0.107 C 
BRANCH  18  20
ATOM     19  C   UNL     1       0.083   1.426  -0.207  0.00  0.00    +0.007 C 
ATOM     20  C   UNL     1       0.028  -0.093  -0.034  0.00  0.00    -0.014 C 
BRANCH  20  21
ATOM     21  C   UNL     1      -1.427  -0.534   0.139  0.00  0.00    -0.074 C 
BRANCH  21  22
ATOM     22  N   UNL     1      -2.173  -0.254  -1.095  0.00  0.00    +0.380 N 
ATOM     23  C   UNL     1      -3.597  -0.534  -0.878  0.00  0.00    -0.079 C 
ATOM     24  C   UNL     1      -4.390  -0.167  -2.134  0.00  0.00    -0.019 C 
ATOM     25  C   UNL     1      -3.879  -0.998  -3.315  0.00  0.00    -0.004 C 
ATOM     26  C   UNL     1      -2.377  -0.755  -3.485  0.00  0.00    -0.019 C 
ATOM     27  C   UNL     1      -1.659  -1.100  -2.179  0.00  0.00    -0.079 C 
ATOM     28  H   UNL     1      -2.057   0.717  -1.344  0.00  0.00    -0.082 HD
ENDBRANCH  21  22
ENDBRANCH  20  21
ENDBRANCH  18  20
ENDBRANCH   1  18
TORSDOF 7
