REMARK  Name = ZINC49508692
REMARK  7 active torsions:
REMARK  status: ('A' for Active; 'I' for Inactive)
REMARK    1  A    between atoms: C_1  and  N_2
REMARK    2  A    between atoms: C_10  and  C_12
REMARK    3  A    between atoms: C_12  and  C_14
REMARK    4  A    between atoms: C_12  and  N_35
REMARK    5  A    between atoms: C_14  and  N_15
REMARK    6  A    between atoms: C_16  and  C_18
REMARK    7  A    between atoms: N_20  and  C_21
REMARK                            x       y       z     vdW  Elec       q    Type
REMARK                         _______ _______ _______ _____ _____    ______ ____
ROOT
ATOM      1  N   UNL     1       5.239  -3.212   1.921  0.00  0.00    -0.309 N 
ATOM      2  C   UNL     1       5.861  -3.208   3.116  0.00  0.00    +0.299 C 
ATOM      3  O   UNL     1       6.924  -2.637   3.245  0.00  0.00    -0.265 OA
ATOM      4  H   UNL     1       4.389  -3.668   1.818  0.00  0.00    +0.149 HD
ENDROOT
BRANCH   2   5
ATOM      5  C   UNL     1       5.242  -3.906   4.282  0.00  0.00    +0.303 C 
ATOM      6  O   UNL     1       4.179  -4.477   4.153  0.00  0.00    -0.265 OA
ATOM      7  N   UNL     1       5.865  -3.903   5.478  0.00  0.00    -0.278 N 
ATOM      8  H   UNL     1       6.675  -3.385   5.601  0.00  0.00    +0.155 HD
BRANCH   7   9
ATOM      9  C   UNL     1       5.342  -4.646   6.540  0.00  0.00    +0.034 A 
ATOM     10  C   UNL     1       4.716  -5.861   6.297  0.00  0.00    +0.028 A 
ATOM     11  C   UNL     1       4.204  -6.603   7.347  0.00  0.00    -0.024 A 
ATOM     12  C   UNL     1       4.324  -6.134   8.647  0.00  0.00    +0.043 A 
ATOM     13  C   UNL     1       4.934  -4.908   8.889  0.00  0.00    -0.023 A 
ATOM     14  C   UNL     1       5.453  -4.173   7.841  0.00  0.00    +0.028 A 
ATOM     15  C   UNL     1       5.022  -4.364  10.291  0.00  0.00    +0.046 C 
ATOM     16  C   UNL     1       5.171  -5.511  11.288  0.00  0.00    +0.101 C 
ATOM     17  C   UNL     1       4.156  -6.581  10.989  0.00  0.00    +0.220 C 
ATOM     18  O   UNL     1       3.632  -7.181  11.903  0.00  0.00    -0.275 OA
ATOM     19  N   UNL     1       3.822  -6.878   9.723  0.00  0.00    -0.271 N 
ATOM     20  C   UNL     1       2.916  -8.004   9.453  0.00  0.00    +0.114 C 
ATOM     21  C   UNL     1       3.500  -8.805   8.282  0.00  0.00    +0.024 C 
ATOM     22  C   UNL     1       3.526  -7.913   7.041  0.00  0.00    +0.038 C 
ENDBRANCH   7   9
ENDBRANCH   2   5
BRANCH   1  23
ATOM     23  C   UNL     1       5.846  -2.526   0.777  0.00  0.00    +0.094 C 
BRANCH  23  24
ATOM     24  C   UNL     1       5.007  -2.785  -0.476  0.00  0.00    -0.020 C 
BRANCH  24  34
ATOM     25  C   UNL     1      -0.201   1.088   0.202  0.00  0.00    +0.129 C 
ATOM     26  N   UNL     1      -0.089  -0.372   0.141  0.00  0.00    -0.333 N 
ATOM     27  C   UNL     1      -1.287  -1.217   0.231  0.00  0.00    +0.105 C 
ATOM     28  C   UNL     1      -0.976  -2.371   1.193  0.00  0.00    +0.024 C 
ATOM     29  C   UNL     1       0.152  -3.216   0.601  0.00  0.00    +0.038 C 
ATOM     30  C   UNL     1       1.316  -2.344   0.211  0.00  0.00    -0.026 A 
ATOM     31  C   UNL     1       1.161  -0.983  -0.010  0.00  0.00    +0.033 A 
ATOM     32  C   UNL     1       2.254  -0.207  -0.380  0.00  0.00    +0.023 A 
ATOM     33  C   UNL     1       3.496  -0.791  -0.530  0.00  0.00    +0.004 A 
ATOM     34  C   UNL     1       3.651  -2.148  -0.313  0.00  0.00    -0.059 A 
ATOM     35  C   UNL     1       2.566  -2.921   0.065  0.00  0.00    +0.007 A 
ENDBRANCH  24  34
BRANCH  24  36
ATOM     36  N   UNL     1       5.682  -2.206  -1.646  0.00  0.00    +0.385 N 
ATOM     37  C   UNL     1       4.822  -2.349  -2.826  0.00  0.00    -0.078 C 
ATOM     38  C   UNL     1       5.485  -1.676  -4.030  0.00  0.00    -0.019 C 
ATOM     39  C   UNL     1       6.838  -2.342  -4.299  0.00  0.00    -0.004 C 
ATOM     40  C   UNL     1       7.699  -2.253  -3.036  0.00  0.00    -0.019 C 
ATOM     41  C   UNL     1       6.954  -2.905  -1.869  0.00  0.00    -0.078 C 
ATOM     42  H   UNL     1       5.862  -1.228  -1.479  0.00  0.00    -0.081 HD
ENDBRANCH  24  36
ENDBRANCH  23  24
ENDBRANCH   1  23
TORSDOF 6
