REMARK  Name = ZINC56172210
REMARK  9 active torsions:
REMARK  status: ('A' for Active; 'I' for Inactive)
REMARK    1  A    between atoms: C_1  and  C_2
REMARK    2  A    between atoms: C_5  and  C_29
REMARK    3  A    between atoms: C_6  and  N_8
REMARK    4  A    between atoms: C_9  and  C_11
REMARK    5  A    between atoms: C_11  and  C_13
REMARK    6  A    between atoms: C_11  and  N_14
REMARK    7  A    between atoms: N_14  and  C_15
REMARK    8  A    between atoms: C_15  and  C_17
REMARK    9  A    between atoms: C_15  and  C_18
REMARK                            x       y       z     vdW  Elec       q    Type
REMARK                         _______ _______ _______ _____ _____    ______ ____
ROOT
ATOM      1  N   UNL     1       0.393  -1.971   5.962  0.00  0.00    +0.391 N 
ATOM      2  H   UNL     1       1.230  -1.407   5.947  0.00  0.00    -0.084 HD
ATOM      3  H   UNL     1      -0.416  -1.374   5.889  0.00  0.00    -0.084 HD
ENDROOT
BRANCH   1   4
ATOM      4  C   UNL     1       0.414  -2.908   4.830  0.00  0.00    +0.014 C 
ATOM      5  C   UNL     1       1.720  -3.705   4.851  0.00  0.00    -0.004 C 
BRANCH   4   7
ATOM      6  N   UNL     1       0.317  -2.794   2.361  0.00  0.00    -0.287 N 
ATOM      7  C   UNL     1       0.316  -2.138   3.538  0.00  0.00    +0.203 C 
ATOM      8  O   UNL     1       0.237  -0.928   3.558  0.00  0.00    -0.277 OA
ATOM      9  H   UNL     1       0.299  -3.764   2.346  0.00  0.00    +0.155 HD
BRANCH   6  15
ATOM     10  C   UNL     1       1.401   1.334  -0.079  0.00  0.00    +0.044 C 
ATOM     11  C   UNL     1       0.863  -0.074  -0.051  0.00  0.00    -0.049 A 
ATOM     12  C   UNL     1       0.394  -0.657  -1.214  0.00  0.00    +0.004 A 
ATOM     13  C   UNL     1      -0.100  -1.948  -1.193  0.00  0.00    +0.005 A 
ATOM     14  C   UNL     1      -0.127  -2.659  -0.009  0.00  0.00    -0.029 A 
ATOM     15  C   UNL     1       0.343  -2.076   1.160  0.00  0.00    +0.036 A 
ATOM     16  C   UNL     1       0.844  -0.781   1.135  0.00  0.00    +0.027 A 
ATOM     17  C   UNL     1      -0.667  -4.066   0.013  0.00  0.00    +0.045 C 
ENDBRANCH   6  15
ENDBRANCH   4   7
ENDBRANCH   1   4
BRANCH   1  18
ATOM     18  C   UNL     1       0.333  -2.725   7.221  0.00  0.00    -0.043 C 
ATOM     19  C   UNL     1       0.452  -1.758   8.400  0.00  0.00    -0.009 C 
BRANCH  18  20
ATOM     20  C   UNL     1      -0.980  -3.461   7.304  0.00  0.00    -0.061 A 
ATOM     21  C   UNL     1      -2.141  -2.849   6.869  0.00  0.00    +0.004 A 
ATOM     22  C   UNL     1      -3.346  -3.520   6.944  0.00  0.00    +0.024 A 
ATOM     23  C   UNL     1      -3.390  -4.810   7.456  0.00  0.00    +0.037 A 
ATOM     24  C   UNL     1      -2.221  -5.421   7.891  0.00  0.00    -0.026 A 
ATOM     25  C   UNL     1      -1.019  -4.747   7.810  0.00  0.00    +0.007 A 
ATOM     26  C   UNL     1      -2.269  -6.821   8.447  0.00  0.00    +0.046 C 
ATOM     27  C   UNL     1      -3.587  -7.030   9.193  0.00  0.00    +0.101 C 
ATOM     28  C   UNL     1      -4.737  -6.562   8.343  0.00  0.00    +0.218 C 
ATOM     29  O   UNL     1      -5.795  -7.154   8.388  0.00  0.00    -0.275 OA
ATOM     30  N   UNL     1      -4.606  -5.495   7.534  0.00  0.00    -0.285 N 
ATOM     31  H   UNL     1      -5.361  -5.199   7.002  0.00  0.00    +0.155 HD
ENDBRANCH  18  20
ENDBRANCH   1  18
TORSDOF 5
