REMARK  Name = ZINC39895423
REMARK  10 active torsions:
REMARK  status: ('A' for Active; 'I' for Inactive)
REMARK    1  A    between atoms: C_1  and  C_2
REMARK    2  A    between atoms: C_5  and  C_8
REMARK    3  A    between atoms: C_9  and  C_36
REMARK    4  A    between atoms: C_10  and  N_35
REMARK    5  A    between atoms: C_15  and  N_27
REMARK    6  A    between atoms: C_16  and  C_17
REMARK    7  A    between atoms: N_19  and  C_20
REMARK    8  A    between atoms: C_23  and  C_26
REMARK    9  A    between atoms: N_27  and  C_28
REMARK   10  A    between atoms: C_31  and  C_34
REMARK                            x       y       z     vdW  Elec       q    Type
REMARK                         _______ _______ _______ _____ _____    ______ ____
ROOT
ATOM      1  C   UNL     1       0.716  -4.187  -0.495  0.00  0.00    +0.019 A 
ATOM      2  C   UNL     1      -0.390  -4.885  -1.034  0.00  0.00    +0.100 A 
ATOM      3  C   UNL     1      -0.478  -6.268  -0.791  0.00  0.00    +0.135 A 
ATOM      4  N   UNL     1       0.429  -6.906  -0.088  0.00  0.00    -0.230 NA
ATOM      5  C   UNL     1       1.507  -6.295   0.452  0.00  0.00    +0.095 A 
ATOM      6  C   UNL     1       1.647  -4.912   0.234  0.00  0.00    +0.049 A 
ATOM      7  S   UNL     1       3.151  -4.480   1.067  0.00  0.00    -0.071 S 
ATOM      8  C   UNL     1       3.605  -6.086   1.691  0.00  0.00    +0.085 A 
ATOM      9  C   UNL     1       2.572  -6.904   1.247  0.00  0.00    +0.091 A 
ENDROOT
BRANCH   1  14
ATOM     10  C   UNL     1       1.346   1.475  -1.321  0.00  0.00    +0.044 C 
ATOM     11  C   UNL     1       1.181  -0.007  -1.104  0.00  0.00    -0.050 A 
ATOM     12  C   UNL     1       1.236  -0.871  -2.184  0.00  0.00    +0.004 A 
ATOM     13  C   UNL     1       1.086  -2.229  -1.992  0.00  0.00    +0.009 A 
ATOM     14  C   UNL     1       0.878  -2.731  -0.707  0.00  0.00    -0.015 A 
ATOM     15  C   UNL     1       0.824  -1.855   0.377  0.00  0.00    +0.009 A 
ATOM     16  C   UNL     1       0.980  -0.499   0.173  0.00  0.00    +0.004 A 
ENDBRANCH   1  14
BRANCH   9  17
ATOM     17  C   UNL     1       2.562  -8.334   1.549  0.00  0.00    +0.253 C 
ATOM     18  O   UNL     1       3.107  -9.120   0.795  0.00  0.00    -0.270 OA
ATOM     19  N   UNL     1       1.950  -8.784   2.663  0.00  0.00    -0.281 N 
ATOM     20  H   UNL     1       1.453  -8.169   3.224  0.00  0.00    +0.155 HD
BRANCH  19  21
ATOM     21  C   UNL     1       2.033 -10.136   3.009  0.00  0.00    +0.034 A 
ATOM     22  C   UNL     1       0.968 -10.757   3.648  0.00  0.00    +0.023 A 
ATOM     23  C   UNL     1       1.052 -12.093   3.988  0.00  0.00    +0.005 A 
ATOM     24  C   UNL     1       2.196 -12.812   3.693  0.00  0.00    -0.050 A 
ATOM     25  C   UNL     1       3.258 -12.197   3.056  0.00  0.00    +0.005 A 
ATOM     26  C   UNL     1       3.178 -10.863   2.708  0.00  0.00    +0.023 A 
ATOM     27  C   UNL     1       2.285 -14.270   4.066  0.00  0.00    +0.044 C 
ENDBRANCH  19  21
ENDBRANCH   9  17
BRANCH   3  28
ATOM     28  N   UNL     1      -1.552  -6.976  -1.307  0.00  0.00    -0.342 N 
ATOM     29  H   UNL     1      -2.230  -6.518  -1.827  0.00  0.00    +0.144 HD
ATOM     30  H   UNL     1      -1.625  -7.930  -1.147  0.00  0.00    +0.144 HD
ENDBRANCH   3  28
BRANCH   8  31
ATOM     31  N   UNL     1       4.704  -6.431   2.442  0.00  0.00    -0.308 N 
ATOM     32  H   UNL     1       4.877  -7.363   2.650  0.00  0.00    +0.153 HD
BRANCH  31  33
ATOM     33  C   UNL     1       5.573  -5.439   2.905  0.00  0.00    +0.032 A 
ATOM     34  C   UNL     1       6.936  -5.696   2.998  0.00  0.00    +0.023 A 
ATOM     35  C   UNL     1       7.791  -4.713   3.455  0.00  0.00    +0.005 A 
ATOM     36  C   UNL     1       7.294  -3.476   3.821  0.00  0.00    -0.050 A 
ATOM     37  C   UNL     1       5.938  -3.218   3.731  0.00  0.00    +0.005 A 
ATOM     38  C   UNL     1       5.077  -4.194   3.268  0.00  0.00    +0.023 A 
ATOM     39  C   UNL     1       8.231  -2.406   4.321  0.00  0.00    +0.044 C 
ENDBRANCH  31  33
ENDBRANCH   8  31
BRANCH   2  40
ATOM     40  C   UNL     1      -1.389  -4.204  -1.801  0.00  0.00    +0.103 C 
ATOM     41  N   UNL     1      -2.182  -3.665  -2.410  0.00  0.00    -0.191 NA
ENDBRANCH   2  40
TORSDOF 7
