REMARK  Name = ZINC09469689
REMARK  8 active torsions:
REMARK  status: ('A' for Active; 'I' for Inactive)
REMARK    1  A    between atoms: C_1  and  C_2
REMARK    2  A    between atoms: C_5  and  N_8
REMARK    3  A    between atoms: C_11  and  C_16
REMARK    4  A    between atoms: C_16  and  S_17
REMARK    5  A    between atoms: S_17  and  C_18
REMARK    6  A    between atoms: C_21  and  C_30
REMARK    7  A    between atoms: N_22  and  C_23
REMARK    8  A    between atoms: C_23  and  C_24
REMARK                            x       y       z     vdW  Elec       q    Type
REMARK                         _______ _______ _______ _____ _____    ______ ____
ROOT
ATOM      1  C   UNL     1      -0.521   1.296  -0.453  0.00  0.00    +0.153 C 
ENDROOT
BRANCH   1   5
ATOM      2  N   UNL     1      -1.690   3.989   3.343  0.00  0.00    -0.284 N 
ATOM      3  C   UNL     1      -1.762   2.780   2.679  0.00  0.00    +0.224 A 
ATOM      4  N   UNL     1      -1.145   2.623   1.511  0.00  0.00    -0.198 NA
ATOM      5  C   UNL     1      -1.217   1.468   0.873  0.00  0.00    +0.146 A 
ATOM      6  N   UNL     1      -1.893   0.460   1.397  0.00  0.00    -0.199 NA
ATOM      7  C   UNL     1      -2.509   0.608   2.568  0.00  0.00    +0.217 A 
ATOM      8  N   UNL     1      -2.443   1.770   3.209  0.00  0.00    -0.181 NA
ATOM      9  N   UNL     1      -3.216  -0.444   3.114  0.00  0.00    -0.327 N 
ATOM     10  H   UNL     1      -1.128   4.699   2.996  0.00  0.00    +0.155 HD
ATOM     11  H   UNL     1      -3.264  -1.292   2.645  0.00  0.00    +0.145 HD
ATOM     12  H   UNL     1      -3.664  -0.336   3.967  0.00  0.00    +0.145 HD
BRANCH   2  17
ATOM     13  C   UNL     1      -4.684   4.803   8.091  0.00  0.00    +0.044 C 
ATOM     14  C   UNL     1      -3.889   4.586   6.830  0.00  0.00    -0.050 A 
ATOM     15  C   UNL     1      -2.636   5.156   6.698  0.00  0.00    +0.005 A 
ATOM     16  C   UNL     1      -1.904   4.960   5.543  0.00  0.00    +0.023 A 
ATOM     17  C   UNL     1      -2.428   4.189   4.513  0.00  0.00    +0.034 A 
ATOM     18  C   UNL     1      -3.690   3.623   4.647  0.00  0.00    +0.023 A 
ATOM     19  C   UNL     1      -4.414   3.819   5.806  0.00  0.00    +0.005 A 
ENDBRANCH   2  17
ENDBRANCH   1   5
BRANCH   1  20
ATOM     20  S   UNL     1      -1.651   1.753  -1.791  0.00  0.00    -0.078 S 
BRANCH  20  21
ATOM     21  C   UNL     1      -0.609   1.466  -3.183  0.00  0.00    +0.192 A 
ATOM     22  N   UNL     1       0.635   1.043  -3.151  0.00  0.00    -0.122 NA
ATOM     23  N   UNL     1       1.096   0.940  -4.346  0.00  0.00    -0.128 NA
ATOM     24  C   UNL     1       0.179   1.300  -5.213  0.00  0.00    +0.165 A 
ATOM     25  N   UNL     1      -0.942   1.648  -4.495  0.00  0.00    -0.300 N 
BRANCH  24  26
ATOM     26  C   UNL     1       0.323   1.327  -6.684  0.00  0.00    +0.019 A 
ATOM     27  C   UNL     1       1.371   0.639  -7.298  0.00  0.00    +0.014 A 
ATOM     28  C   UNL     1       1.496   0.662  -8.671  0.00  0.00    +0.039 A 
ATOM     29  C   UNL     1       0.592   1.377  -9.441  0.00  0.00    +0.123 A 
ATOM     30  C   UNL     1      -0.447   2.067  -8.836  0.00  0.00    +0.039 A 
ATOM     31  C   UNL     1      -0.586   2.045  -7.464  0.00  0.00    +0.014 A 
ATOM     32  F   UNL     1       0.723   1.401 -10.785  0.00  0.00    -0.205 F 
ENDBRANCH  24  26
BRANCH  25  33
ATOM     33  C   UNL     1      -2.224   2.116  -5.026  0.00  0.00    +0.157 C 
BRANCH  33  34
ATOM     34  C   UNL     1      -2.193   3.639  -5.167  0.00  0.00    +0.138 C 
ATOM     35  C   UNL     1      -3.521   4.150  -5.779  0.00  0.00    +0.035 C 
ATOM     36  C   UNL     1      -3.550   5.609  -5.245  0.00  0.00    +0.031 C 
ATOM     37  C   UNL     1      -2.888   5.463  -3.858  0.00  0.00    +0.160 C 
ATOM     38  O   UNL     1      -2.114   4.258  -3.873  0.00  0.00    -0.375 OA
ENDBRANCH  33  34
ENDBRANCH  25  33
ENDBRANCH  20  21
ENDBRANCH   1  20
TORSDOF 7
