REMARK  Name = ZINC65301236
REMARK  6 active torsions:
REMARK  status: ('A' for Active; 'I' for Inactive)
REMARK    1  A    between atoms: C_1  and  C_2
REMARK    2  A    between atoms: C_7  and  N_8
REMARK    3  A    between atoms: C_9  and  C_11
REMARK    4  A    between atoms: N_14  and  C_17
REMARK    5  A    between atoms: C_18  and  C_27
REMARK    6  A    between atoms: C_23  and  C_26
REMARK                            x       y       z     vdW  Elec       q    Type
REMARK                         _______ _______ _______ _____ _____    ______ ____
ROOT
ATOM      1  C   UNL     1       1.743   0.552   8.755  0.00  0.00    +0.055 A 
ATOM      2  C   UNL     1       3.014  -0.025   8.884  0.00  0.00    +0.074 A 
ATOM      3  C   UNL     1       3.762   0.187  10.049  0.00  0.00    +0.098 A 
ATOM      4  N   UNL     1       3.281   0.925  11.027  0.00  0.00    -0.353 N 
ATOM      5  C   UNL     1       2.093   1.486  10.950  0.00  0.00    +0.107 A 
ATOM      6  C   UNL     1       1.250   1.349   9.822  0.00  0.00    +0.050 A 
ATOM      7  C   UNL     1       0.035   2.040   9.960  0.00  0.00    +0.058 A 
ATOM      8  N   UNL     1      -0.223   2.720  11.035  0.00  0.00    -0.213 NA
ATOM      9  S   UNL     1       1.119   2.517  12.018  0.00  0.00    +0.030 S 
ATOM     10  C   UNL     1      -0.981   1.992   8.848  0.00  0.00    +0.067 C 
ATOM     11  H   UNL     1       3.816   1.058  11.825  0.00  0.00    +0.166 HD
ENDROOT
BRANCH   2  12
ATOM     12  C   UNL     1       3.562  -0.852   7.797  0.00  0.00    +0.250 C 
ATOM     13  O   UNL     1       3.704  -0.380   6.686  0.00  0.00    -0.270 OA
ATOM     14  N   UNL     1       3.907  -2.134   8.034  0.00  0.00    -0.293 N 
ATOM     15  C   UNL     1       3.637  -2.762   9.337  0.00  0.00    +0.136 C 
ATOM     16  C   UNL     1       2.921  -4.095   9.092  0.00  0.00    +0.179 C 
ATOM     17  O   UNL     1       3.676  -4.870   8.158  0.00  0.00    -0.377 OA
ATOM     18  C   UNL     1       3.801  -4.270   6.866  0.00  0.00    +0.179 C 
ATOM     19  C   UNL     1       4.557  -2.947   6.995  0.00  0.00    +0.136 C 
ENDBRANCH   2  12
BRANCH   1  23
ATOM     20  C   UNL     1       0.337  -0.643   5.051  0.00  0.00    +0.078 C 
ATOM     21  C   UNL     1       1.419   0.426   5.214  0.00  0.00    +0.031 C 
ATOM     22  C   UNL     1       1.124   1.260   6.465  0.00  0.00    +0.106 C 
ATOM     23  N   UNL     1       0.991   0.355   7.615  0.00  0.00    -0.329 N 
ATOM     24  C   UNL     1       0.042  -0.763   7.528  0.00  0.00    +0.106 C 
ATOM     25  C   UNL     1       0.349  -1.574   6.266  0.00  0.00    +0.031 C 
BRANCH  20  27
ATOM     26  N   UNL     1       0.641  -0.830   2.603  0.00  0.00    -0.285 N 
ATOM     27  C   UNL     1       0.605  -1.444   3.802  0.00  0.00    +0.220 C 
ATOM     28  O   UNL     1       0.789  -2.640   3.877  0.00  0.00    -0.275 OA
ATOM     29  H   UNL     1       0.555   0.135   2.549  0.00  0.00    +0.155 HD
BRANCH  26  36
ATOM     30  C   UNL     1      -0.682   0.048   0.242  0.00  0.00    +0.046 C 
ATOM     31  C   UNL     1       0.175  -1.191   0.261  0.00  0.00    -0.028 A 
ATOM     32  C   UNL     1       0.341  -1.935  -0.891  0.00  0.00    +0.025 A 
ATOM     33  C   UNL     1       1.128  -3.073  -0.875  0.00  0.00    +0.041 A 
ATOM     34  C   UNL     1       1.751  -3.469   0.296  0.00  0.00    +0.022 A 
ATOM     35  C   UNL     1       1.588  -2.730   1.450  0.00  0.00    +0.025 A 
ATOM     36  C   UNL     1       0.803  -1.584   1.435  0.00  0.00    +0.036 A 
ATOM     37 CL   UNL     1       1.333  -4.005  -2.325  0.00  0.00    -0.084 Cl
ENDBRANCH  26  36
ENDBRANCH  20  27
ENDBRANCH   1  23
TORSDOF 4
