REMARK  Name = ZINC13622126
REMARK  15 active torsions:
REMARK  status: ('A' for Active; 'I' for Inactive)
REMARK    1  A    between atoms: C_1  and  C_2
REMARK    2  A    between atoms: C_2  and  N_60
REMARK    3  A    between atoms: C_3  and  C_4
REMARK    4  A    between atoms: C_3  and  N_60
REMARK    5  A    between atoms: C_5  and  C_6
REMARK    6  A    between atoms: C_5  and  N_60
REMARK    7  A    between atoms: C_6  and  N_7
REMARK    8  A    between atoms: C_8  and  C_10
REMARK    9  A    between atoms: C_13  and  N_16
REMARK   10  A    between atoms: N_16  and  C_17
REMARK   11  A    between atoms: C_17  and  N_19
REMARK   12  A    between atoms: C_20  and  C_22
REMARK   13  A    between atoms: C_25  and  C_28
REMARK   14  A    between atoms: C_28  and  O_30
REMARK   15  A    between atoms: O_30  and  C_31
REMARK                            x       y       z     vdW  Elec       q    Type
REMARK                         _______ _______ _______ _____ _____    ______ ____
ROOT
ATOM      1  C   UNL     1      -2.470   1.014   0.293  0.00  0.00    +0.037 A 
ATOM      2  C   UNL     1      -2.577  -0.276   0.819  0.00  0.00    +0.015 A 
ATOM      3  C   UNL     1      -3.797  -0.913   0.833  0.00  0.00    +0.024 A 
ATOM      4  C   UNL     1      -4.921  -0.278   0.315  0.00  0.00    +0.033 A 
ATOM      5  C   UNL     1      -4.818   1.004  -0.214  0.00  0.00    +0.024 A 
ATOM      6  C   UNL     1      -3.602   1.649  -0.227  0.00  0.00    +0.015 A 
ENDROOT
BRANCH   1   8
ATOM      7  N   UNL     1      -0.075   1.089   0.782  0.00  0.00    -0.313 N 
ATOM      8  C   UNL     1      -1.165   1.702   0.281  0.00  0.00    +0.244 C 
ATOM      9  O   UNL     1      -1.073   2.823  -0.182  0.00  0.00    -0.270 OA
ATOM     10  H   UNL     1      -0.148   0.195   1.151  0.00  0.00    +0.149 HD
BRANCH   7  11
ATOM     11  C   UNL     1       1.222   1.770   0.764  0.00  0.00    +0.086 C 
BRANCH  11  12
ATOM     12  C   UNL     1       2.285   0.858   1.382  0.00  0.00    -0.060 C 
BRANCH  12  13
ATOM     13  N   UNL     1       3.607   1.500   1.226  0.00  0.00    +0.380 N 
ATOM     14  H   UNL     1       3.670   1.909   0.286  0.00  0.00    -0.082 HD
BRANCH  13  16
ATOM     15  C   UNL     1       5.040   3.362   1.906  0.00  0.00    -0.017 C 
ATOM     16  C   UNL     1       3.770   2.573   2.229  0.00  0.00    -0.082 C 
ENDBRANCH  13  16
BRANCH  13  17
ATOM     17  C   UNL     1       4.678   0.494   1.383  0.00  0.00    -0.082 C 
ATOM     18  C   UNL     1       4.780  -0.321   0.092  0.00  0.00    -0.017 C 
ENDBRANCH  13  17
ENDBRANCH  12  13
ENDBRANCH  11  12
ENDBRANCH   7  11
ENDBRANCH   1   8
BRANCH   4  19
ATOM     19  N   UNL     1      -6.154  -0.928   0.326  0.00  0.00    -0.297 N 
ATOM     20  H   UNL     1      -6.420  -1.451   1.099  0.00  0.00    +0.154 HD
BRANCH  19  21
ATOM     21  C   UNL     1      -6.978  -0.830  -0.736  0.00  0.00    +0.141 C 
ATOM     22  S   UNL     1      -6.450  -0.034  -2.157  0.00  0.00    -0.018 S 
BRANCH  21  23
ATOM     23  N   UNL     1      -8.216  -1.359  -0.680  0.00  0.00    -0.264 N 
ATOM     24  C   UNL     1      -9.039  -1.261  -1.743  0.00  0.00    +0.250 C 
ATOM     25  O   UNL     1      -8.665  -0.696  -2.751  0.00  0.00    -0.270 OA
ATOM     26  H   UNL     1      -8.515  -1.810   0.125  0.00  0.00    +0.157 HD
BRANCH  24  27
ATOM     27  C   UNL     1     -10.399  -1.842  -1.681  0.00  0.00    +0.037 A 
ATOM     28  C   UNL     1     -10.827  -2.496  -0.524  0.00  0.00    +0.014 A 
ATOM     29  C   UNL     1     -12.095  -3.033  -0.465  0.00  0.00    +0.016 A 
ATOM     30  C   UNL     1     -12.948  -2.931  -1.566  0.00  0.00    +0.059 A 
ATOM     31  C   UNL     1     -12.518  -2.281  -2.724  0.00  0.00    +0.016 A 
ATOM     32  C   UNL     1     -11.252  -1.740  -2.781  0.00  0.00    +0.014 A 
BRANCH  30  33
ATOM     33  C   UNL     1     -14.307  -3.511  -1.504  0.00  0.00    +0.339 C 
ATOM     34  O   UNL     1     -15.049  -3.422  -2.461  0.00  0.00    -0.245 OA
BRANCH  33  35
ATOM     35  O   UNL     1     -14.722  -4.138  -0.386  0.00  0.00    -0.464 OA
ATOM     36  C   UNL     1     -16.067  -4.683  -0.397  0.00  0.00    +0.280 C 
ENDBRANCH  33  35
ENDBRANCH  30  33
ENDBRANCH  24  27
ENDBRANCH  21  23
ENDBRANCH  19  21
ENDBRANCH   4  19
TORSDOF 12
