REMARK  Name = ZINC62654989
REMARK  14 active torsions:
REMARK  status: ('A' for Active; 'I' for Inactive)
REMARK    1  A    between atoms: C_1  and  C_2
REMARK    2  A    between atoms: C_4  and  C_12
REMARK    3  A    between atoms: C_5  and  C_11
REMARK    4  A    between atoms: N_6  and  C_7
REMARK    5  A    between atoms: C_7  and  C_8
REMARK    6  A    between atoms: C_7  and  C_9
REMARK    7  A    between atoms: C_7  and  C_10
REMARK    8  A    between atoms: C_12  and  C_14
REMARK    9  A    between atoms: C_14  and  N_15
REMARK   10  A    between atoms: N_15  and  C_16
REMARK   11  A    between atoms: C_16  and  C_17
REMARK   12  A    between atoms: C_17  and  C_18
REMARK   13  A    between atoms: C_21  and  S_24
REMARK   14  A    between atoms: S_24  and  N_27
REMARK                            x       y       z     vdW  Elec       q    Type
REMARK                         _______ _______ _______ _____ _____    ______ ____
ROOT
ATOM      1  N   UNL     1       2.913  -3.802  -3.650  0.00  0.00    +0.384 N 
ATOM      2  H   UNL     1       3.653  -4.232  -3.115  0.00  0.00    -0.085 HD
ATOM      3  H   UNL     1       2.120  -4.425  -3.688  0.00  0.00    -0.085 HD
ENDROOT
BRANCH   1   4
ATOM      4  C   UNL     1       2.515  -2.541  -3.010  0.00  0.00    -0.002 C 
BRANCH   4   5
ATOM      5  C   UNL     1       2.028  -2.820  -1.611  0.00  0.00    +0.148 C 
ATOM      6  O   UNL     1       2.014  -3.957  -1.189  0.00  0.00    -0.294 OA
BRANCH   5  10
ATOM      7  C   UNL     1       0.812   1.832   0.075  0.00  0.00    +0.063 C 
ATOM      8  C   UNL     1       1.039   0.346  -0.033  0.00  0.00    +0.017 A 
ATOM      9  C   UNL     1       1.522  -0.292  -1.112  0.00  0.00    +0.034 A 
ATOM     10  C   UNL     1       1.572  -1.717  -0.761  0.00  0.00    +0.036 A 
ATOM     11  C   UNL     1       1.100  -1.805   0.535  0.00  0.00    +0.027 A 
ATOM     12  N   UNL     1       0.792  -0.565   0.953  0.00  0.00    -0.342 N 
ATOM     13  C   UNL     1       0.959  -3.071   1.341  0.00  0.00    +0.064 C 
BRANCH  12  14
ATOM     14  C   UNL     1       0.263  -0.238   2.280  0.00  0.00    +0.037 C 
ATOM     15  C   UNL     1      -1.252  -0.451   2.291  0.00  0.00    +0.034 C 
ATOM     16  C   UNL     1       0.913  -1.145   3.326  0.00  0.00    +0.034 C 
ATOM     17  C   UNL     1       0.575   1.224   2.607  0.00  0.00    +0.034 C 
ENDBRANCH  12  14
ENDBRANCH   5  10
ENDBRANCH   4   5
ENDBRANCH   1   4
BRANCH   1  18
ATOM     18  C   UNL     1       3.388  -3.531  -5.013  0.00  0.00    -0.077 C 
BRANCH  18  19
ATOM     19  C   UNL     1       3.803  -4.844  -5.680  0.00  0.00    +0.016 C 
BRANCH  19  20
ATOM     20  C   UNL     1       4.290  -4.565  -7.078  0.00  0.00    -0.049 A 
ATOM     21  C   UNL     1       3.398  -4.572  -8.135  0.00  0.00    +0.005 A 
ATOM     22  C   UNL     1       3.845  -4.317  -9.418  0.00  0.00    +0.029 A 
ATOM     23  C   UNL     1       5.183  -4.054  -9.644  0.00  0.00    +0.105 A 
ATOM     24  C   UNL     1       6.075  -4.046  -8.587  0.00  0.00    +0.029 A 
ATOM     25  C   UNL     1       5.627  -4.297  -7.304  0.00  0.00    +0.005 A 
BRANCH  23  26
ATOM     26  S   UNL     1       5.753  -3.729 -11.280  0.00  0.00    +0.056 S 
ATOM     27  O   UNL     1       7.137  -4.051 -11.299  0.00  0.00    -0.153 OA
ATOM     28  O   UNL     1       4.818  -4.334 -12.163  0.00  0.00    -0.153 OA
BRANCH  26  29
ATOM     29  N   UNL     1       5.644  -2.095 -11.521  0.00  0.00    -0.204 NA
ATOM     30  H   UNL     1       6.264  -1.651 -12.120  0.00  0.00    +0.144 HD
ATOM     31  H   UNL     1       4.960  -1.582 -11.063  0.00  0.00    +0.144 HD
ENDBRANCH  26  29
ENDBRANCH  23  26
ENDBRANCH  19  20
ENDBRANCH  18  19
ENDBRANCH   1  18
TORSDOF 9
