REMARK  Name = ZINC39519525
REMARK  6 active torsions:
REMARK  status: ('A' for Active; 'I' for Inactive)
REMARK    1  A    between atoms: C_4  and  N_17
REMARK    2  A    between atoms: C_5  and  C_7
REMARK    3  A    between atoms: N_9  and  C_10
REMARK    4  A    between atoms: C_18  and  C_20
REMARK    5  A    between atoms: C_20  and  N_21
REMARK    6  A    between atoms: C_25  and  O_28
REMARK                            x       y       z     vdW  Elec       q    Type
REMARK                         _______ _______ _______ _____ _____    ______ ____
ROOT
ATOM      1  C   UNL     1      -0.673   1.250  -0.069  0.00  0.00    +0.001 A 
ATOM      2  C   UNL     1       0.351   1.671  -0.902  0.00  0.00    +0.002 A 
ATOM      3  C   UNL     1       1.518   0.940  -0.999  0.00  0.00    +0.024 A 
ATOM      4  C   UNL     1       1.673  -0.224  -0.258  0.00  0.00    +0.046 A 
ATOM      5  C   UNL     1       0.639  -0.653   0.587  0.00  0.00    +0.058 A 
ATOM      6  C   UNL     1      -0.537   0.097   0.673  0.00  0.00    +0.015 A 
ENDROOT
BRANCH   5   7
ATOM      7  C   UNL     1       0.791  -1.888   1.378  0.00  0.00    +0.250 C 
ATOM      8  O   UNL     1       1.854  -2.479   1.384  0.00  0.00    -0.270 OA
ATOM      9  N   UNL     1      -0.248  -2.362   2.094  0.00  0.00    -0.281 N 
ATOM     10  H   UNL     1      -1.116  -1.934   2.031  0.00  0.00    +0.155 HD
BRANCH   9  11
ATOM     11  C   UNL     1      -0.074  -3.471   2.929  0.00  0.00    +0.034 A 
ATOM     12  C   UNL     1      -1.113  -4.374   3.112  0.00  0.00    +0.025 A 
ATOM     13  C   UNL     1      -0.938  -5.468   3.937  0.00  0.00    +0.022 A 
ATOM     14  C   UNL     1       0.271  -5.665   4.581  0.00  0.00    +0.041 A 
ATOM     15  C   UNL     1       1.308  -4.766   4.401  0.00  0.00    +0.022 A 
ATOM     16  C   UNL     1       1.141  -3.673   3.573  0.00  0.00    +0.025 A 
ATOM     17 CL   UNL     1       0.487  -7.040   5.617  0.00  0.00    -0.084 Cl
ENDBRANCH   9  11
ENDBRANCH   5   7
BRANCH   4  18
ATOM     18  N   UNL     1       2.850  -0.963  -0.355  0.00  0.00    -0.286 N 
ATOM     19  C   UNL     1       4.005  -0.351  -0.680  0.00  0.00    +0.201 C 
ATOM     20  O   UNL     1       4.041   0.856  -0.794  0.00  0.00    -0.278 OA
ATOM     21  H   UNL     1       2.838  -1.919  -0.188  0.00  0.00    +0.155 HD
BRANCH  19  22
ATOM     22  C   UNL     1       5.254  -1.165  -0.902  0.00  0.00    +0.019 C 
BRANCH  22  23
ATOM     23  N   UNL     1       6.368  -0.271  -1.243  0.00  0.00    +0.387 N 
ATOM     24  C   UNL     1       6.662   0.600  -0.099  0.00  0.00    -0.078 C 
ATOM     25  C   UNL     1       7.767   1.588  -0.476  0.00  0.00    -0.016 C 
ATOM     26  C   UNL     1       9.028   0.811  -0.864  0.00  0.00    +0.027 C 
ATOM     27  C   UNL     1       8.692  -0.148  -2.009  0.00  0.00    +0.098 C 
ATOM     28  C   UNL     1       7.552  -1.072  -1.576  0.00  0.00    -0.047 C 
ATOM     29  H   UNL     1       6.112   0.296  -2.038  0.00  0.00    -0.081 HD
BRANCH  27  30
ATOM     30  O   UNL     1       9.845  -0.929  -2.331  0.00  0.00    -0.394 OA
ATOM     31  H   UNL     1      10.608  -0.407  -2.612  0.00  0.00    +0.210 HD
ENDBRANCH  27  30
ENDBRANCH  22  23
ENDBRANCH  19  22
ENDBRANCH   4  18
TORSDOF 6
