REMARK  Name = ZINC50227103
REMARK  8 active torsions:
REMARK  status: ('A' for Active; 'I' for Inactive)
REMARK    1  A    between atoms: C_1  and  C_2
REMARK    2  A    between atoms: C_5  and  C_7
REMARK    3  A    between atoms: C_7  and  N_8
REMARK    4  A    between atoms: N_8  and  S_9
REMARK    5  A    between atoms: S_9  and  C_12
REMARK    6  A    between atoms: C_15  and  C_18
REMARK    7  A    between atoms: C_19  and  C_20
REMARK    8  A    between atoms: C_20  and  N_21
REMARK                            x       y       z     vdW  Elec       q    Type
REMARK                         _______ _______ _______ _____ _____    ______ ____
ROOT
ATOM      1  C   UNL     1       1.291  -7.233  -1.020  0.00  0.00    +0.105 A 
ATOM      2  C   UNL     1       1.578  -7.603   0.281  0.00  0.00    +0.030 A 
ATOM      3  C   UNL     1       0.933  -8.681   0.853  0.00  0.00    +0.019 A 
ATOM      4  C   UNL     1      -0.010  -9.397   0.115  0.00  0.00    +0.025 A 
ATOM      5  C   UNL     1      -0.295  -9.018  -1.197  0.00  0.00    +0.019 A 
ATOM      6  C   UNL     1       0.353  -7.936  -1.755  0.00  0.00    +0.030 A 
ENDROOT
BRANCH   1   7
ATOM      7  S   UNL     1       2.118  -5.855  -1.743  0.00  0.00    +0.059 S 
ATOM      8  O   UNL     1       2.067  -6.043  -3.150  0.00  0.00    -0.153 OA
ATOM      9  O   UNL     1       3.343  -5.702  -1.038  0.00  0.00    -0.153 OA
BRANCH   7  10
ATOM     10  N   UNL     1       1.210  -4.510  -1.412  0.00  0.00    -0.185 NA
ATOM     11  H   UNL     1       0.789  -4.019  -2.134  0.00  0.00    +0.148 HD
BRANCH  10  12
ATOM     12  C   UNL     1       1.043  -4.062  -0.027  0.00  0.00    +0.148 C 
BRANCH  12  17
ATOM     13  C   UNL     1      -0.018   1.503   0.010  0.00  0.00    +0.051 C 
ATOM     14  C   UNL     1       0.002  -0.004   0.002  0.00  0.00    -0.013 A 
ATOM     15  C   UNL     1      -1.039  -0.872   0.002  0.00  0.00    +0.011 A 
ATOM     16  C   UNL     1      -0.780  -2.230  -0.007  0.00  0.00    +0.013 A 
ATOM     17  C   UNL     1       0.507  -2.653  -0.016  0.00  0.00    +0.005 A 
ATOM     18  S   UNL     1       1.404  -1.109  -0.018  0.00  0.00    -0.097 S 
ENDBRANCH  12  17
ENDBRANCH  10  12
ENDBRANCH   7  10
ENDBRANCH   1   7
BRANCH   4  19
ATOM     19  C   UNL     1      -0.683 -10.517   0.702  0.00  0.00    -0.068 C 
ATOM     20  C   UNL     1      -1.234 -11.435   1.184  0.00  0.00    -0.117 C 
BRANCH  20  21
ATOM     21  C   UNL     1      -1.925 -12.586   1.787  0.00  0.00    +0.005 C 
BRANCH  21  22
ATOM     22  N   UNL     1      -2.860 -13.162   0.811  0.00  0.00    +0.385 N 
ATOM     23  H   UNL     1      -3.334 -13.951   1.225  0.00  0.00    -0.089 HD
ATOM     24  H   UNL     1      -3.538 -12.466   0.543  0.00  0.00    -0.089 HD
ATOM     25  H   UNL     1      -2.350 -13.466  -0.004  0.00  0.00    -0.089 HD
ENDBRANCH  21  22
ENDBRANCH  20  21
ENDBRANCH   4  19
TORSDOF 7
