REMARK  Name = ZINC59807043
REMARK  7 active torsions:
REMARK  status: ('A' for Active; 'I' for Inactive)
REMARK    1  A    between atoms: C_4  and  N_23
REMARK    2  A    between atoms: C_5  and  N_7
REMARK    3  A    between atoms: N_7  and  C_8
REMARK    4  A    between atoms: C_8  and  C_9
REMARK    5  A    between atoms: N_11  and  C_12
REMARK    6  A    between atoms: C_14  and  C_19
REMARK    7  A    between atoms: C_26  and  O_29
REMARK                            x       y       z     vdW  Elec       q    Type
REMARK                         _______ _______ _______ _____ _____    ______ ____
ROOT
ATOM      1  N   UNL     1       1.208  -2.180  -0.048  0.00  0.00    -0.334 N 
ATOM      2  H   UNL     1       2.057  -2.646   0.022  0.00  0.00    +0.147 HD
ENDROOT
BRANCH   1   7
ATOM      3  C   UNL     1      -0.069   1.265  -0.057  0.00  0.00    +0.002 A 
ATOM      4  C   UNL     1       1.113   1.982  -0.070  0.00  0.00    +0.002 A 
ATOM      5  C   UNL     1       2.327   1.320  -0.076  0.00  0.00    +0.023 A 
ATOM      6  C   UNL     1       2.362  -0.061  -0.069  0.00  0.00    +0.035 A 
ATOM      7  C   UNL     1       1.177  -0.784  -0.055  0.00  0.00    +0.047 A 
ATOM      8  C   UNL     1      -0.041  -0.115  -0.049  0.00  0.00    +0.025 A 
BRANCH   6   9
ATOM      9  N   UNL     1       3.590  -0.730  -0.076  0.00  0.00    -0.392 NA
ATOM     10  C   UNL     1       4.284  -0.462  -1.341  0.00  0.00    +0.087 C 
ATOM     11  C   UNL     1       5.591  -1.256  -1.388  0.00  0.00    +0.048 C 
ATOM     12  C   UNL     1       6.481  -0.833  -0.216  0.00  0.00    +0.117 C 
ATOM     13  C   UNL     1       5.719  -1.047   1.094  0.00  0.00    +0.048 C 
ATOM     14  C   UNL     1       4.407  -0.261   1.049  0.00  0.00    +0.087 C 
ATOM     15  H   UNL     1       3.432  -1.722   0.015  0.00  0.00    +0.126 HD
BRANCH  12  16
ATOM     16  O   UNL     1       7.672  -1.623  -0.211  0.00  0.00    -0.392 OA
ATOM     17  H   UNL     1       8.284  -1.408   0.506  0.00  0.00    +0.210 HD
ENDBRANCH  12  16
ENDBRANCH   6   9
ENDBRANCH   1   7
BRANCH   1  18
ATOM     18  C   UNL     1      -0.039  -2.942  -0.146  0.00  0.00    +0.198 C 
BRANCH  18  19
ATOM     19  C   UNL     1       0.269  -4.417  -0.117  0.00  0.00    +0.234 C 
ATOM     20  O   UNL     1       1.418  -4.795  -0.022  0.00  0.00    -0.274 OA
ATOM     21  N   UNL     1      -0.732  -5.316  -0.195  0.00  0.00    -0.283 N 
ATOM     22  H   UNL     1      -1.643  -5.016  -0.335  0.00  0.00    +0.155 HD
BRANCH  21  23
ATOM     23  C   UNL     1      -0.456  -6.683  -0.073  0.00  0.00    +0.052 A 
ATOM     24  C   UNL     1       0.732  -7.200  -0.573  0.00  0.00    +0.037 A 
ATOM     25  C   UNL     1       1.002  -8.549  -0.451  0.00  0.00    +0.057 A 
ATOM     26  C   UNL     1       0.091  -9.385   0.168  0.00  0.00    +0.014 A 
ATOM     27  C   UNL     1      -1.093  -8.875   0.667  0.00  0.00    +0.022 A 
ATOM     28  C   UNL     1      -1.367  -7.524   0.554  0.00  0.00    +0.062 A 
ATOM     29 CL   UNL     1      -2.850  -6.882   1.187  0.00  0.00    -0.082 Cl
BRANCH  25  30
ATOM     30  C   UNL     1       2.291  -9.111  -0.994  0.00  0.00    +0.417 C 
ATOM     31  F   UNL     1       3.275  -9.062  -0.001  0.00  0.00    -0.166 F 
ATOM     32  F   UNL     1       2.092 -10.438  -1.389  0.00  0.00    -0.166 F 
ATOM     33  F   UNL     1       2.702  -8.353  -2.095  0.00  0.00    -0.166 F 
ENDBRANCH  25  30
ENDBRANCH  21  23
ENDBRANCH  18  19
ENDBRANCH   1  18
TORSDOF 7
