REMARK  Name = ZINC04457944
REMARK  4 active torsions:
REMARK  status: ('A' for Active; 'I' for Inactive)
REMARK    1  A    between atoms: C_4  and  C_7
REMARK    2  A    between atoms: C_14  and  N_25
REMARK    3  A    between atoms: C_15  and  C_23
REMARK    4  A    between atoms: C_16  and  C_18
REMARK                            x       y       z     vdW  Elec       q    Type
REMARK                         _______ _______ _______ _____ _____    ______ ____
ROOT
ATOM      1  C   UNL     1       3.694  -0.684  -0.040  0.00  0.00    +0.074 A 
ATOM      2  C   UNL     1       3.986  -1.798  -0.752  0.00  0.00    +0.057 A 
ATOM      3  C   UNL     1       5.322  -2.152  -0.482  0.00  0.00    +0.245 A 
ATOM      4  N   UNL     1       5.813  -1.288   0.360  0.00  0.00    -0.135 NA
ATOM      5  N   UNL     1       4.818  -0.343   0.658  0.00  0.00    -0.273 N 
ATOM      6  H   UNL     1       4.912   0.415   1.255  0.00  0.00    +0.189 HD
ATOM      7  O   UNL     1       5.910  -3.236  -1.057  0.00  0.00    -0.421 OA
ATOM      8  C   UNL     1       5.275  -3.808  -2.099  0.00  0.00    +0.201 C 
ATOM      9  C   UNL     1       3.996  -3.556  -2.446  0.00  0.00    +0.101 C 
ATOM     10  C   UNL     1       3.115  -2.593  -1.692  0.00  0.00    +0.138 C 
ENDROOT
BRANCH   1  14
ATOM     11  C   UNL     1      -0.021   1.377   0.005  0.00  0.00    +0.000 A 
ATOM     12  C   UNL     1       0.540   0.996  -1.200  0.00  0.00    +0.001 A 
ATOM     13  C   UNL     1       1.746   0.326  -1.222  0.00  0.00    +0.010 A 
ATOM     14  C   UNL     1       2.400   0.035  -0.024  0.00  0.00    +0.000 A 
ATOM     15  C   UNL     1       1.829   0.422   1.188  0.00  0.00    +0.010 A 
ATOM     16  C   UNL     1       0.622   1.091   1.196  0.00  0.00    +0.001 A 
ENDBRANCH   1  14
BRANCH  10  17
ATOM     17  C   UNL     1       2.082  -3.357  -0.904  0.00  0.00    +0.118 A 
ATOM     18  C   UNL     1       0.751  -3.303  -1.091  0.00  0.00    +0.045 A 
ATOM     19  C   UNL     1       0.168  -4.172  -0.140  0.00  0.00    +0.041 A 
ATOM     20  C   UNL     1       1.177  -4.704   0.572  0.00  0.00    +0.195 A 
ATOM     21  O   UNL     1       2.335  -4.211   0.101  0.00  0.00    -0.467 OA
ENDBRANCH  10  17
BRANCH   8  22
ATOM     22  N   UNL     1       5.978  -4.710  -2.859  0.00  0.00    -0.328 N 
ATOM     23  H   UNL     1       6.900  -4.915  -2.639  0.00  0.00    +0.145 HD
ATOM     24  H   UNL     1       5.553  -5.141  -3.616  0.00  0.00    +0.145 HD
ENDBRANCH   8  22
BRANCH   9  25
ATOM     25  C   UNL     1       3.450  -4.235  -3.583  0.00  0.00    +0.101 C 
ATOM     26  N   UNL     1       3.017  -4.773  -4.485  0.00  0.00    -0.191 NA
ENDBRANCH   9  25
TORSDOF 4
