REMARK  Name = ZINC63375197
REMARK  9 active torsions:
REMARK  status: ('A' for Active; 'I' for Inactive)
REMARK    1  A    between atoms: C_1  and  C_2
REMARK    2  A    between atoms: C_2  and  C_3
REMARK    3  A    between atoms: C_3  and  C_4
REMARK    4  A    between atoms: C_4  and  N_5
REMARK    5  A    between atoms: C_6  and  C_8
REMARK    6  A    between atoms: C_11  and  N_14
REMARK    7  A    between atoms: C_30  and  C_35
REMARK    8  A    between atoms: C_39  and  O_41
REMARK    9  A    between atoms: O_41  and  C_42
REMARK                            x       y       z     vdW  Elec       q    Type
REMARK                         _______ _______ _______ _____ _____    ______ ____
ROOT
ATOM      1  N   UNL     1      -8.311  -5.853   0.049  0.00  0.00    -0.193 N 
ATOM      2  C   UNL     1      -8.638  -7.159  -0.043  0.00  0.00    +0.248 C 
ATOM      3  O   UNL     1      -7.880  -8.096  -0.173  0.00  0.00    -0.273 OA
ATOM      4  C   UNL     1     -10.147  -7.211   0.052  0.00  0.00    +0.169 C 
ATOM      5  C   UNL     1     -10.729  -7.856  -1.217  0.00  0.00    +0.065 C 
ATOM      6  C   UNL     1     -12.144  -7.344  -1.349  0.00  0.00    -0.034 C 
ATOM      7  C   UNL     1     -13.028  -7.482  -2.331  0.00  0.00    -0.001 A 
ATOM      8  C   UNL     1     -12.983  -8.250  -3.586  0.00  0.00    +0.010 A 
ATOM      9  C   UNL     1     -14.078  -8.155  -4.385  0.00  0.00    +0.001 A 
ATOM     10  C   UNL     1     -15.198  -7.380  -4.067  0.00  0.00    +0.002 A 
ATOM     11  C   UNL     1     -15.327  -6.648  -2.932  0.00  0.00    +0.026 A 
ATOM     12  C   UNL     1     -14.242  -6.674  -2.007  0.00  0.00    +0.043 A 
ATOM     13  N   UNL     1     -14.106  -6.091  -0.854  0.00  0.00    -0.375 N 
ATOM     14  C   UNL     1     -12.821  -6.496  -0.279  0.00  0.00    +0.131 C 
ATOM     15  C   UNL     1     -11.914  -5.286  -0.021  0.00  0.00    +0.135 C 
ATOM     16  N   UNL     1     -10.533  -5.785   0.084  0.00  0.00    -0.264 N 
ATOM     17  C   UNL     1      -9.399  -5.077   0.155  0.00  0.00    +0.317 C 
ATOM     18  O   UNL     1      -9.360  -3.871   0.295  0.00  0.00    -0.252 OA
ATOM     19  H   UNL     1     -14.747  -5.490  -0.443  0.00  0.00    +0.160 HD
ENDROOT
BRANCH   1  23
ATOM     20  C   UNL     1      -4.400  -4.410   0.020  0.00  0.00    +0.037 A 
ATOM     21  C   UNL     1      -5.476  -3.518   0.005  0.00  0.00    +0.015 A 
ATOM     22  C   UNL     1      -6.766  -3.998   0.015  0.00  0.00    +0.025 A 
ATOM     23  C   UNL     1      -7.000  -5.369   0.039  0.00  0.00    +0.045 A 
ATOM     24  C   UNL     1      -5.932  -6.259   0.055  0.00  0.00    +0.025 A 
ATOM     25  C   UNL     1      -4.639  -5.787   0.040  0.00  0.00    +0.015 A 
BRANCH  20  27
ATOM     26  N   UNL     1      -2.787  -2.571  -0.009  0.00  0.00    -0.311 N 
ATOM     27  C   UNL     1      -3.015  -3.899   0.010  0.00  0.00    +0.244 C 
ATOM     28  O   UNL     1      -2.080  -4.676   0.018  0.00  0.00    -0.270 OA
ATOM     29  H   UNL     1      -3.533  -1.950  -0.015  0.00  0.00    +0.149 HD
BRANCH  26  30
ATOM     30  C   UNL     1      -1.413  -2.064  -0.019  0.00  0.00    +0.104 C 
BRANCH  30  31
ATOM     31  C   UNL     1      -1.434  -0.534  -0.040  0.00  0.00    +0.018 C 
BRANCH  31  33
ATOM     32  C   UNL     1      -0.019   1.525  -0.071  0.00  0.00    +0.004 C 
ATOM     33  C   UNL     1       0.002  -0.004  -0.051  0.00  0.00    -0.002 C 
ENDBRANCH  31  33
ENDBRANCH  30  31
ENDBRANCH  26  30
ENDBRANCH  20  27
ENDBRANCH   1  23
BRANCH  15  34
ATOM     34  C   UNL     1     -12.039  -4.300  -1.154  0.00  0.00    -0.021 A 
ATOM     35  C   UNL     1     -11.355  -4.517  -2.337  0.00  0.00    +0.006 A 
ATOM     36  C   UNL     1     -11.467  -3.615  -3.378  0.00  0.00    +0.004 A 
ATOM     37  C   UNL     1     -12.263  -2.494  -3.240  0.00  0.00    +0.045 A 
ATOM     38  C   UNL     1     -12.950  -2.274  -2.055  0.00  0.00    +0.120 A 
ATOM     39  C   UNL     1     -12.840  -3.184  -1.013  0.00  0.00    +0.051 A 
BRANCH  38  40
ATOM     40  O   UNL     1     -13.733  -1.172  -1.916  0.00  0.00    -0.495 OA
ATOM     41  C   UNL     1     -13.803  -0.282  -3.032  0.00  0.00    +0.277 C 
ENDBRANCH  38  40
ENDBRANCH  15  34
TORSDOF 7
