REMARK  Name = ZINC46347451
REMARK  11 active torsions:
REMARK  status: ('A' for Active; 'I' for Inactive)
REMARK    1  A    between atoms: C_1  and  C_2
REMARK    2  A    between atoms: C_2  and  C_4
REMARK    3  A    between atoms: C_2  and  O_22
REMARK    4  A    between atoms: N_6  and  N_7
REMARK    5  A    between atoms: N_10  and  C_11
REMARK    6  A    between atoms: C_11  and  C_12
REMARK    7  A    between atoms: C_12  and  C_14
REMARK    8  A    between atoms: C_12  and  N_19
REMARK    9  A    between atoms: N_19  and  C_20
REMARK   10  A    between atoms: N_19  and  C_21
REMARK   11  A    between atoms: O_22  and  C_23
REMARK                            x       y       z     vdW  Elec       q    Type
REMARK                         _______ _______ _______ _____ _____    ______ ____
ROOT
ATOM      1  N   UNL     1      -4.055  -0.330  -0.663  0.00  0.00    -0.218 N 
ATOM      2  C   UNL     1      -4.734  -0.349   0.501  0.00  0.00    +0.316 C 
ATOM      3  O   UNL     1      -5.862  -0.798   0.540  0.00  0.00    -0.251 OA
ATOM      4  N   UNL     1      -4.161   0.132   1.623  0.00  0.00    -0.299 N 
ATOM      5  H   UNL     1      -4.467  -0.676  -1.470  0.00  0.00    +0.174 HD
ATOM      6  H   UNL     1      -3.260   0.491   1.592  0.00  0.00    +0.150 HD
ENDROOT
BRANCH   1   9
ATOM      7  C   UNL     1      -2.075   0.207  -1.872  0.00  0.00    +0.270 C 
ATOM      8  O   UNL     1      -2.591  -0.225  -2.881  0.00  0.00    -0.270 OA
ATOM      9  N   UNL     1      -2.754   0.188  -0.708  0.00  0.00    -0.230 N 
ATOM     10  H   UNL     1      -2.342   0.534   0.100  0.00  0.00    +0.173 HD
BRANCH   7  12
ATOM     11  C   UNL     1      -0.712   2.260  -1.601  0.00  0.00    +0.062 C 
ATOM     12  C   UNL     1      -0.676   0.764  -1.920  0.00  0.00    +0.257 C 
BRANCH  12  13
ATOM     13  O   UNL     1      -0.130   0.569  -3.225  0.00  0.00    -0.480 OA
BRANCH  13  14
ATOM     14  C   UNL     1       1.225   0.525  -3.327  0.00  0.00    +0.122 A 
ATOM     15  C   UNL     1       2.010   0.617  -2.187  0.00  0.00    +0.048 A 
ATOM     16  C   UNL     1       3.387   0.572  -2.292  0.00  0.00    +0.042 A 
ATOM     17  C   UNL     1       3.983   0.437  -3.535  0.00  0.00    +0.124 A 
ATOM     18  C   UNL     1       3.201   0.346  -4.673  0.00  0.00    +0.042 A 
ATOM     19  C   UNL     1       1.824   0.384  -4.571  0.00  0.00    +0.048 A 
ATOM     20  F   UNL     1       5.330   0.395  -3.636  0.00  0.00    -0.205 F 
ENDBRANCH  13  14
ENDBRANCH  12  13
ENDBRANCH   7  12
ENDBRANCH   1   9
BRANCH   4  21
ATOM     21  C   UNL     1      -4.899   0.112   2.888  0.00  0.00    +0.095 C 
BRANCH  21  22
ATOM     22  C   UNL     1      -4.074   0.812   3.970  0.00  0.00    -0.020 C 
BRANCH  22  23
ATOM     23  C   UNL     1      -2.823   0.018   4.242  0.00  0.00    -0.052 A 
ATOM     24  C   UNL     1      -1.616   0.400   3.688  0.00  0.00    +0.009 A 
ATOM     25  C   UNL     1      -0.509  -0.336   3.952  0.00  0.00    +0.045 A 
ATOM     26  S   UNL     1      -1.161  -1.615   5.013  0.00  0.00    -0.105 S 
ATOM     27  C   UNL     1      -2.863  -1.079   5.037  0.00  0.00    +0.047 A 
ENDBRANCH  22  23
BRANCH  22  28
ATOM     28  N   UNL     1      -4.868   0.912   5.202  0.00  0.00    +0.382 N 
ATOM     29  C   UNL     1      -4.066   1.559   6.250  0.00  0.00    -0.096 C 
ATOM     30  C   UNL     1      -6.074   1.712   4.945  0.00  0.00    -0.096 C 
ATOM     31  H   UNL     1      -5.136  -0.012   5.506  0.00  0.00    -0.082 HD
ENDBRANCH  22  28
ENDBRANCH  21  22
ENDBRANCH   4  21
TORSDOF 8
