REMARK  Name = ZINC10188459
REMARK  10 active torsions:
REMARK  status: ('A' for Active; 'I' for Inactive)
REMARK    1  A    between atoms: C_1  and  N_2
REMARK    2  A    between atoms: N_2  and  C_3
REMARK    3  A    between atoms: N_2  and  C_4
REMARK    4  A    between atoms: C_7  and  C_10
REMARK    5  A    between atoms: C_10  and  C_12
REMARK    6  A    between atoms: C_10  and  N_63
REMARK    7  A    between atoms: C_12  and  N_13
REMARK    8  A    between atoms: C_14  and  C_16
REMARK    9  A    between atoms: N_18  and  C_19
REMARK   10  A    between atoms: C_19  and  C_20
REMARK                            x       y       z     vdW  Elec       q    Type
REMARK                         _______ _______ _______ _____ _____    ______ ____
ROOT
ATOM      1  C   UNL     1      -0.784   1.802  -1.363  0.00  0.00    -0.020 C 
ENDROOT
BRANCH   1  11
ATOM      2  C   UNL     1       1.006   1.342   0.204  0.00  0.00    -0.073 C 
ATOM      3  C   UNL     1       1.337   0.471   1.417  0.00  0.00    +0.017 C 
ATOM      4  C   UNL     1       1.318  -0.984   1.025  0.00  0.00    -0.048 A 
ATOM      5  C   UNL     1       1.926  -1.904   1.867  0.00  0.00    +0.004 A 
ATOM      6  C   UNL     1       1.924  -3.247   1.550  0.00  0.00    +0.000 A 
ATOM      7  C   UNL     1       1.314  -3.678   0.387  0.00  0.00    +0.000 A 
ATOM      8  C   UNL     1       0.711  -2.764  -0.453  0.00  0.00    +0.002 A 
ATOM      9  C   UNL     1       0.713  -1.413  -0.137  0.00  0.00    -0.061 A 
ATOM     10  C   UNL     1       0.046  -0.453  -1.086  0.00  0.00    -0.042 C 
ATOM     11  N   UNL     1      -0.236   0.820  -0.401  0.00  0.00    +0.388 N 
ATOM     12  H   UNL     1      -0.927   0.656   0.340  0.00  0.00    -0.080 HD
ENDBRANCH   1  11
BRANCH   1  16
ATOM     13  C   UNL     1      -5.032   1.355  -1.515  0.00  0.00    +0.029 A 
ATOM     14  C   UNL     1      -4.441   2.541  -1.934  0.00  0.00    +0.023 A 
ATOM     15  C   UNL     1      -3.068   2.682  -1.883  0.00  0.00    +0.004 A 
ATOM     16  C   UNL     1      -2.282   1.645  -1.417  0.00  0.00    -0.059 A 
ATOM     17  C   UNL     1      -2.866   0.461  -1.004  0.00  0.00    +0.004 A 
ATOM     18  C   UNL     1      -4.239   0.315  -1.047  0.00  0.00    +0.023 A 
BRANCH  13  20
ATOM     19  C   UNL     1      -7.248   2.272  -2.141  0.00  0.00    +0.129 C 
ATOM     20  N   UNL     1      -6.420   1.209  -1.565  0.00  0.00    -0.336 N 
ATOM     21  C   UNL     1      -7.048  -0.006  -1.041  0.00  0.00    +0.129 C 
ENDBRANCH  13  20
ENDBRANCH   1  16
BRANCH   1  22
ATOM     22  C   UNL     1      -0.196   1.564  -2.755  0.00  0.00    +0.094 C 
BRANCH  22  23
ATOM     23  N   UNL     1       1.251   1.792  -2.720  0.00  0.00    -0.309 N 
ATOM     24  C   UNL     1       1.998   1.550  -3.816  0.00  0.00    +0.299 C 
ATOM     25  O   UNL     1       1.472   1.145  -4.831  0.00  0.00    -0.265 OA
ATOM     26  H   UNL     1       1.671   2.115  -1.908  0.00  0.00    +0.149 HD
BRANCH  24  27
ATOM     27  C   UNL     1       3.474   1.782  -3.779  0.00  0.00    +0.299 C 
ATOM     28  O   UNL     1       4.000   2.188  -2.764  0.00  0.00    -0.265 OA
ATOM     29  N   UNL     1       4.221   1.542  -4.875  0.00  0.00    -0.303 N 
ATOM     30  H   UNL     1       3.801   1.218  -5.687  0.00  0.00    +0.149 HD
BRANCH  29  31
ATOM     31  C   UNL     1       5.668   1.769  -4.840  0.00  0.00    +0.147 C 
BRANCH  31  32
ATOM     32  C   UNL     1       6.263   1.426  -6.181  0.00  0.00    +0.007 A 
ATOM     33  C   UNL     1       6.447   2.223  -7.262  0.00  0.00    +0.013 A 
ATOM     34  C   UNL     1       7.023   1.688  -8.399  0.00  0.00    +0.008 A 
ATOM     35  C   UNL     1       7.378   0.380  -8.403  0.00  0.00    +0.045 A 
ATOM     36  S   UNL     1       6.902  -0.137  -6.761  0.00  0.00    -0.100 S 
ENDBRANCH  31  32
ENDBRANCH  29  31
ENDBRANCH  24  27
ENDBRANCH  22  23
ENDBRANCH   1  22
TORSDOF 8
