REMARK  Name = ZINC45366001
REMARK  8 active torsions:
REMARK  status: ('A' for Active; 'I' for Inactive)
REMARK    1  A    between atoms: C_13  and  C_15
REMARK    2  A    between atoms: C_15  and  C_17
REMARK    3  A    between atoms: C_15  and  O_30
REMARK    4  A    between atoms: C_17  and  C_19
REMARK    5  A    between atoms: C_17  and  O_29
REMARK    6  A    between atoms: N_21  and  C_22
REMARK    7  A    between atoms: C_22  and  C_23
REMARK    8  A    between atoms: C_23  and  C_24
REMARK                            x       y       z     vdW  Elec       q    Type
REMARK                         _______ _______ _______ _____ _____    ______ ____
ROOT
ATOM      1  C   UNL     1       0.176  -6.648   1.147  0.00  0.00    +0.237 C 
ENDROOT
BRANCH   1  14
ATOM      2  C   UNL     1       1.423   1.690   0.523  0.00  0.00    +0.005 A 
ATOM      3  C   UNL     1       0.116   2.161   0.542  0.00  0.00    +0.018 A 
ATOM      4  C   UNL     1      -0.928   1.262   0.471  0.00  0.00    +0.084 A 
ATOM      5  N   UNL     1      -0.699  -0.035   0.385  0.00  0.00    -0.350 N 
ATOM      6  C   UNL     1       0.532  -0.523   0.365  0.00  0.00    +0.099 A 
ATOM      7  C   UNL     1       1.631   0.326   0.433  0.00  0.00    +0.042 A 
ATOM      8  N   UNL     1       0.727  -1.897   0.274  0.00  0.00    -0.314 N 
ATOM      9  C   UNL     1       2.080  -2.452   0.129  0.00  0.00    +0.125 C 
ATOM     10  C   UNL     1       2.316  -3.467   1.255  0.00  0.00    +0.127 C 
ATOM     11  N   UNL     1       1.173  -4.390   1.302  0.00  0.00    -0.296 N 
ATOM     12  C   UNL     1      -0.180  -3.834   1.447  0.00  0.00    +0.127 C 
ATOM     13  C   UNL     1      -0.416  -2.820   0.327  0.00  0.00    +0.125 C 
ATOM     14  C   UNL     1       1.362  -5.721   1.214  0.00  0.00    +0.247 C 
ATOM     15  O   UNL     1       2.487  -6.173   1.189  0.00  0.00    -0.273 OA
ATOM     16  H   UNL     1      -1.451  -0.646   0.336  0.00  0.00    +0.166 HD
ENDBRANCH   1  14
BRANCH   1  17
ATOM     17  O   UNL     1       0.618  -7.999   1.294  0.00  0.00    -0.380 OA
ATOM     18  H   UNL     1       1.242  -8.285   0.614  0.00  0.00    +0.211 HD
ENDBRANCH   1  17
BRANCH   1  19
ATOM     19  C   UNL     1      -0.523  -6.485  -0.204  0.00  0.00    +0.237 C 
BRANCH  19  20
ATOM     20  C   UNL     1      -1.673  -7.454  -0.295  0.00  0.00    +0.245 C 
ATOM     21  O   UNL     1      -1.651  -8.346  -1.117  0.00  0.00    -0.273 OA
ATOM     22  N   UNL     1      -2.726  -7.331   0.536  0.00  0.00    -0.313 N 
ATOM     23  H   UNL     1      -2.744  -6.618   1.194  0.00  0.00    +0.149 HD
BRANCH  22  24
ATOM     24  C   UNL     1      -3.844  -8.273   0.448  0.00  0.00    +0.109 C 
BRANCH  24  25
ATOM     25  C   UNL     1      -4.900  -7.913   1.496  0.00  0.00    +0.061 C 
BRANCH  25  26
ATOM     26  C   UNL     1      -6.050  -8.882   1.404  0.00  0.00    -0.009 A 
ATOM     27  C   UNL     1      -6.228 -10.059   2.053  0.00  0.00    +0.011 A 
ATOM     28  C   UNL     1      -7.375 -10.791   1.811  0.00  0.00    +0.008 A 
ATOM     29  C   UNL     1      -8.288 -10.310   0.933  0.00  0.00    +0.045 A 
ATOM     30  S   UNL     1      -7.535  -8.775   0.420  0.00  0.00    -0.102 S 
ENDBRANCH  25  26
ENDBRANCH  24  25
ENDBRANCH  22  24
ENDBRANCH  19  20
BRANCH  19  31
ATOM     31  O   UNL     1       0.407  -6.748  -1.257  0.00  0.00    -0.380 OA
ATOM     32  H   UNL     1       0.782  -7.639  -1.236  0.00  0.00    +0.211 HD
ENDBRANCH  19  31
ENDBRANCH   1  19
TORSDOF 8
