REMARK  Name = ZINC66939051
REMARK  9 active torsions:
REMARK  status: ('A' for Active; 'I' for Inactive)
REMARK    1  A    between atoms: C_3  and  C_21
REMARK    2  A    between atoms: C_6  and  C_7
REMARK    3  A    between atoms: C_7  and  N_8
REMARK    4  A    between atoms: N_8  and  C_9
REMARK    5  A    between atoms: C_9  and  C_11
REMARK    6  A    between atoms: C_9  and  C_18
REMARK    7  A    between atoms: C_21  and  O_22
REMARK    8  A    between atoms: O_22  and  C_23
REMARK    9  A    between atoms: C_23  and  C_24
REMARK                            x       y       z     vdW  Elec       q    Type
REMARK                         _______ _______ _______ _____ _____    ______ ____
ROOT
ATOM      1  N   UNL     1      -1.727  -1.018  -1.371  0.00  0.00    +0.392 N 
ATOM      2  H   UNL     1      -1.864  -0.136  -1.841  0.00  0.00    -0.084 HD
ATOM      3  H   UNL     1      -1.021  -1.552  -1.857  0.00  0.00    -0.084 HD
ENDROOT
BRANCH   1   4
ATOM      4  C   UNL     1      -1.293  -0.775   0.011  0.00  0.00    -0.045 C 
BRANCH   4  10
ATOM      5  C   UNL     1      -0.017   1.378   0.010  0.00  0.00    +0.002 A 
ATOM      6  C   UNL     1       1.171   2.086   0.002  0.00  0.00    +0.006 A 
ATOM      7  C   UNL     1       2.377   1.411  -0.013  0.00  0.00    -0.022 A 
ATOM      8  C   UNL     1       2.396   0.029  -0.020  0.00  0.00    +0.006 A 
ATOM      9  C   UNL     1       1.208  -0.679  -0.012  0.00  0.00    +0.002 A 
ATOM     10  C   UNL     1       0.002  -0.004   0.002  0.00  0.00    -0.064 A 
BRANCH   7  11
ATOM     11  C   UNL     1       3.672   2.182  -0.022  0.00  0.00    +0.195 C 
BRANCH  11  12
ATOM     12  O   UNL     1       4.095   2.419   1.322  0.00  0.00    -0.366 OA
BRANCH  12  13
ATOM     13  C   UNL     1       5.319   3.148   1.426  0.00  0.00    +0.273 C 
BRANCH  13  14
ATOM     14  C   UNL     1       5.673   3.343   2.902  0.00  0.00    +0.413 C 
ATOM     15  F   UNL     1       5.820   2.094   3.515  0.00  0.00    -0.168 F 
ATOM     16  F   UNL     1       6.872   4.056   3.004  0.00  0.00    -0.168 F 
ATOM     17  F   UNL     1       4.651   4.057   3.536  0.00  0.00    -0.168 F 
ENDBRANCH  13  14
ENDBRANCH  12  13
ENDBRANCH  11  12
ENDBRANCH   7  11
ENDBRANCH   4  10
ENDBRANCH   1   4
BRANCH   1  18
ATOM     18  C   UNL     1      -2.989  -1.770  -1.363  0.00  0.00    +0.047 C 
BRANCH  18  19
ATOM     19  C   UNL     1      -3.498  -1.913  -2.774  0.00  0.00    -0.053 A 
ATOM     20  C   UNL     1      -2.614  -2.176  -3.804  0.00  0.00    +0.005 A 
ATOM     21  C   UNL     1      -3.079  -2.308  -5.098  0.00  0.00    +0.038 A 
ATOM     22  C   UNL     1      -4.432  -2.177  -5.364  0.00  0.00    +0.123 A 
ATOM     23  C   UNL     1      -5.317  -1.914  -4.332  0.00  0.00    +0.038 A 
ATOM     24  C   UNL     1      -4.849  -1.788  -3.037  0.00  0.00    +0.005 A 
ATOM     25  F   UNL     1      -4.888  -2.305  -6.629  0.00  0.00    -0.205 F 
ENDBRANCH  18  19
BRANCH  18  26
ATOM     26  C   UNL     1      -2.756  -3.137  -0.772  0.00  0.00    +0.201 C 
ATOM     27  O   UNL     1      -1.647  -3.453  -0.395  0.00  0.00    -0.277 OA
ATOM     28  N   UNL     1      -3.779  -4.007  -0.662  0.00  0.00    -0.330 N 
ATOM     29  H   UNL     1      -4.665  -3.754  -0.964  0.00  0.00    +0.145 HD
ATOM     30  H   UNL     1      -3.629  -4.887  -0.282  0.00  0.00    +0.145 HD
ENDBRANCH  18  26
ENDBRANCH   1  18
TORSDOF 9
