REMARK  Name = ZINC33423409
REMARK  14 active torsions:
REMARK  status: ('A' for Active; 'I' for Inactive)
REMARK    1  A    between atoms: C_1  and  C_2
REMARK    2  A    between atoms: C_2  and  C_3
REMARK    3  A    between atoms: C_2  and  C_4
REMARK    4  A    between atoms: C_7  and  O_10
REMARK    5  A    between atoms: O_10  and  C_11
REMARK    6  A    between atoms: C_11  and  C_12
REMARK    7  A    between atoms: C_12  and  C_14
REMARK    8  A    between atoms: C_12  and  O_26
REMARK    9  A    between atoms: C_14  and  N_15
REMARK   10  A    between atoms: N_15  and  C_16
REMARK   11  A    between atoms: C_18  and  C_24
REMARK   12  A    between atoms: C_18  and  C_25
REMARK   13  A    between atoms: C_20  and  C_22
REMARK   14  A    between atoms: C_20  and  C_23
REMARK                            x       y       z     vdW  Elec       q    Type
REMARK                         _______ _______ _______ _____ _____    ______ ____
ROOT
ATOM      1  C   UNL     1      -0.933   1.047  -3.592  0.00  0.00    +0.115 C 
ENDROOT
BRANCH   1   2
ATOM      2  N   UNL     1      -0.027   1.123  -2.438  0.00  0.00    -0.311 NA
ATOM      3  H   UNL     1       0.390   0.126  -2.233  0.00  0.00    +0.122 HD
BRANCH   2   4
ATOM      4  C   UNL     1      -0.740   1.592  -1.238  0.00  0.00    +0.051 C 
ATOM      5  C   UNL     1      -0.013   1.088   0.008  0.00  0.00    +0.006 C 
ATOM      6  C   UNL     1      -0.717   1.580   1.270  0.00  0.00    -0.072 C 
ATOM      7  N   UNL     1      -0.994   3.001   1.247  0.00  0.00    +0.386 N 
ATOM      8  C   UNL     1      -1.454   3.635   0.029  0.00  0.00    -0.072 C 
ATOM      9  C   UNL     1      -0.738   3.120  -1.217  0.00  0.00    +0.006 C 
ATOM     10  C   UNL     1      -1.169   5.150   0.137  0.00  0.00    -0.010 C 
ATOM     11  C   UNL     1      -2.968   3.470  -0.144  0.00  0.00    -0.010 C 
ATOM     12  C   UNL     1      -2.000   0.769   1.489  0.00  0.00    -0.010 C 
ATOM     13  C   UNL     1       0.216   1.290   2.467  0.00  0.00    -0.010 C 
ATOM     14  H   UNL     1      -1.782   3.233   1.978  0.00  0.00    -0.084 HD
ATOM     15  H   UNL     1      -0.080   3.556   1.504  0.00  0.00    -0.084 HD
ENDBRANCH   2   4
ENDBRANCH   1   2
BRANCH   1  16
ATOM     16  C   UNL     1      -0.158   0.557  -4.817  0.00  0.00    +0.166 C 
BRANCH  16  17
ATOM     17  O   UNL     1       0.904   1.468  -5.105  0.00  0.00    -0.387 OA
ATOM     18  H   UNL     1       1.686   1.656  -4.354  0.00  0.00    +0.210 HD
ENDBRANCH  16  17
BRANCH  16  19
ATOM     19  C   UNL     1      -1.102   0.478  -6.019  0.00  0.00    +0.261 C 
BRANCH  19  20
ATOM     20  O   UNL     1      -0.408  -0.089  -7.133  0.00  0.00    -0.489 OA
BRANCH  20  24
ATOM     21  C   UNL     1      -2.534  -0.518 -10.642  0.00  0.00    -0.045 A 
ATOM     22  C   UNL     1      -1.211  -0.917 -10.583  0.00  0.00    +0.007 A 
ATOM     23  C   UNL     1      -0.497  -0.774  -9.409  0.00  0.00    +0.046 A 
ATOM     24  C   UNL     1      -1.109  -0.231  -8.289  0.00  0.00    +0.121 A 
ATOM     25  C   UNL     1      -2.437   0.163  -8.349  0.00  0.00    +0.046 A 
ATOM     26  C   UNL     1      -3.145   0.024  -9.527  0.00  0.00    +0.007 A 
BRANCH  21  28
ATOM     27  C   UNL     1      -4.515  -1.586 -11.683  0.00  0.00    +0.012 C 
ATOM     28  C   UNL     1      -3.310  -0.675 -11.924  0.00  0.00    +0.013 C 
ATOM     29  C   UNL     1      -3.795   0.697 -12.398  0.00  0.00    +0.012 C 
ENDBRANCH  21  28
ENDBRANCH  20  24
ENDBRANCH  19  20
ENDBRANCH  16  19
ENDBRANCH   1  16
TORSDOF 8
