REMARK  Name = ZINC63517935
REMARK  11 active torsions:
REMARK  status: ('A' for Active; 'I' for Inactive)
REMARK    1  A    between atoms: C_1  and  C_2
REMARK    2  A    between atoms: C_6  and  C_24
REMARK    3  A    between atoms: C_7  and  N_8
REMARK    4  A    between atoms: C_9  and  C_11
REMARK    5  A    between atoms: C_11  and  N_12
REMARK    6  A    between atoms: N_12  and  C_13
REMARK    7  A    between atoms: N_12  and  C_14
REMARK    8  A    between atoms: C_14  and  C_15
REMARK    9  A    between atoms: C_15  and  C_16
REMARK   10  A    between atoms: C_16  and  C_17
REMARK   11  A    between atoms: N_22  and  C_23
REMARK                            x       y       z     vdW  Elec       q    Type
REMARK                         _______ _______ _______ _____ _____    ______ ____
ROOT
ATOM      1  N   UNL     1      -0.231  -0.749   5.981  0.00  0.00    +0.384 N 
ATOM      2  C   UNL     1       0.980  -1.574   6.089  0.00  0.00    -0.096 C 
ATOM      3  H   UNL     1      -1.031  -1.344   5.828  0.00  0.00    -0.082 HD
ENDROOT
BRANCH   1   4
ATOM      4  C   UNL     1      -0.090   0.181   4.852  0.00  0.00    +0.018 C 
BRANCH   4   6
ATOM      5  N   UNL     1       0.108   0.050   2.390  0.00  0.00    -0.287 N 
ATOM      6  C   UNL     1      -0.022  -0.598   3.564  0.00  0.00    +0.201 C 
ATOM      7  O   UNL     1      -0.085  -1.810   3.584  0.00  0.00    -0.278 OA
ATOM      8  H   UNL     1       0.224   1.013   2.378  0.00  0.00    +0.155 HD
BRANCH   5  15
ATOM      9  C   UNL     1       2.558  -0.356   1.002  0.00  0.00    +0.045 C 
ATOM     10  C   UNL     1       1.249  -0.887   0.479  0.00  0.00    -0.029 A 
ATOM     11  C   UNL     1       1.214  -1.599  -0.704  0.00  0.00    +0.005 A 
ATOM     12  C   UNL     1       0.013  -2.087  -1.185  0.00  0.00    +0.001 A 
ATOM     13  C   UNL     1      -1.158  -1.863  -0.484  0.00  0.00    +0.005 A 
ATOM     14  C   UNL     1      -1.130  -1.152   0.700  0.00  0.00    -0.029 A 
ATOM     15  C   UNL     1       0.075  -0.666   1.188  0.00  0.00    +0.039 A 
ATOM     16  C   UNL     1      -2.406  -0.908   1.463  0.00  0.00    +0.045 C 
ENDBRANCH   5  15
ENDBRANCH   4   6
ENDBRANCH   1   4
BRANCH   1  17
ATOM     17  C   UNL     1      -0.417   0.013   7.223  0.00  0.00    -0.078 C 
BRANCH  17  18
ATOM     18  C   UNL     1      -0.688  -0.953   8.378  0.00  0.00    -0.009 C 
BRANCH  18  19
ATOM     19  C   UNL     1      -0.881  -0.159   9.672  0.00  0.00    +0.094 C 
BRANCH  19  20
ATOM     20  C   UNL     1      -1.148  -1.110  10.809  0.00  0.00    +0.220 C 
ATOM     21  O   UNL     1      -1.180  -2.305  10.606  0.00  0.00    -0.275 OA
ATOM     22  N   UNL     1      -1.351  -0.633  12.053  0.00  0.00    -0.240 N 
ATOM     23  C   UNL     1      -1.589  -1.484  13.071  0.00  0.00    +0.306 C 
ATOM     24  O   UNL     1      -1.621  -2.682  12.867  0.00  0.00    -0.252 OA
ATOM     25  N   UNL     1      -1.792  -1.007  14.315  0.00  0.00    -0.302 N 
ATOM     26  C   UNL     1      -2.052  -1.932  15.421  0.00  0.00    +0.129 C 
ATOM     27  H   UNL     1      -1.325   0.323  12.216  0.00  0.00    +0.159 HD
ATOM     28  H   UNL     1      -1.767  -0.051  14.478  0.00  0.00    +0.150 HD
ENDBRANCH  19  20
ENDBRANCH  18  19
ENDBRANCH  17  18
ENDBRANCH   1  17
TORSDOF 7
