REMARK  Name = ZINC39631996
REMARK  12 active torsions:
REMARK  status: ('A' for Active; 'I' for Inactive)
REMARK    1  A    between atoms: C_1  and  C_2
REMARK    2  A    between atoms: C_2  and  C_4
REMARK    3  A    between atoms: C_2  and  N_11
REMARK    4  A    between atoms: C_4  and  C_5
REMARK    5  A    between atoms: C_5  and  C_6
REMARK    6  A    between atoms: C_6  and  C_7
REMARK    7  A    between atoms: C_7  and  C_8
REMARK    8  A    between atoms: C_7  and  C_9
REMARK    9  A    between atoms: C_7  and  O_10
REMARK   10  A    between atoms: C_12  and  C_14
REMARK   11  A    between atoms: C_25  and  C_27
REMARK   12  A    between atoms: C_30  and  C_32
REMARK                            x       y       z     vdW  Elec       q    Type
REMARK                         _______ _______ _______ _____ _____    ______ ____
ROOT
ATOM      1  C   UNL     1       0.528   0.283  -3.619  0.00  0.00    +0.100 C 
ATOM      2  C   UNL     1       1.023  -1.176  -3.740  0.00  0.00    +0.121 C 
ATOM      3  N   UNL     1       0.127  -1.793  -4.747  0.00  0.00    -0.294 N 
ATOM      4  C   UNL     1      -0.067  -0.734  -5.766  0.00  0.00    +0.115 C 
ATOM      5  C   UNL     1      -0.184   0.571  -4.952  0.00  0.00    -0.004 C 
ATOM      6  C   UNL     1      -1.651   0.908  -4.705  0.00  0.00    -0.010 C 
ATOM      7  C   UNL     1      -2.323   1.245  -6.039  0.00  0.00    -0.082 C 
ATOM      8  N   UNL     1      -1.637   2.384  -6.661  0.00  0.00    +0.379 N 
ATOM      9  C   UNL     1      -0.251   2.020  -6.979  0.00  0.00    -0.082 C 
ATOM     10  C   UNL     1       0.509   1.715  -5.685  0.00  0.00    -0.010 C 
ATOM     11  C   UNL     1      -0.393  -3.036  -4.738  0.00  0.00    +0.282 C 
ATOM     12  O   UNL     1      -1.054  -3.426  -5.683  0.00  0.00    -0.267 OA
ATOM     13  H   UNL     1      -2.118   2.643  -7.509  0.00  0.00    -0.086 HD
ATOM     14  H   UNL     1      -1.639   3.166  -6.024  0.00  0.00    -0.086 HD
ENDROOT
BRANCH  11  15
ATOM     15  C   UNL     1      -0.165  -3.917  -3.591  0.00  0.00    +0.190 A 
ATOM     16  C   UNL     1      -0.725  -5.162  -3.402  0.00  0.00    +0.055 A 
ATOM     17  C   UNL     1      -0.235  -5.645  -2.185  0.00  0.00    +0.051 A 
ATOM     18  C   UNL     1       0.598  -4.688  -1.679  0.00  0.00    +0.139 A 
ATOM     19  O   UNL     1       0.637  -3.655  -2.537  0.00  0.00    -0.450 OA
BRANCH  18  20
ATOM     20  C   UNL     1       1.337  -4.777  -0.404  0.00  0.00    +0.052 A 
ATOM     21  C   UNL     1       0.657  -5.055   0.784  0.00  0.00    +0.014 A 
ATOM     22  C   UNL     1       1.354  -5.137   1.971  0.00  0.00    +0.001 A 
ATOM     23  C   UNL     1       2.725  -4.945   1.989  0.00  0.00    +0.003 A 
ATOM     24  C   UNL     1       3.407  -4.669   0.818  0.00  0.00    +0.039 A 
ATOM     25  C   UNL     1       2.723  -4.590  -0.381  0.00  0.00    +0.134 A 
ATOM     26  F   UNL     1       3.390  -4.327  -1.526  0.00  0.00    -0.205 F 
ENDBRANCH  18  20
ENDBRANCH  11  15
BRANCH   1  28
ATOM     27  N   UNL     1      -0.635   1.617  -1.891  0.00  0.00    -0.312 N 
ATOM     28  C   UNL     1      -0.437   0.416  -2.469  0.00  0.00    +0.218 C 
ATOM     29  O   UNL     1      -1.036  -0.558  -2.065  0.00  0.00    -0.275 OA
ATOM     30  H   UNL     1      -0.212   2.409  -2.260  0.00  0.00    +0.149 HD
BRANCH  27  32
ATOM     31  C   UNL     1      -2.953   1.805  -1.136  0.00  0.00    +0.028 C 
ATOM     32  C   UNL     1      -1.487   1.728  -0.705  0.00  0.00    +0.070 C 
BRANCH  32  33
ATOM     33  C   UNL     1      -1.117   2.992   0.074  0.00  0.00    +0.022 C 
BRANCH  33  34
ATOM     34  C   UNL     1       0.309   2.860   0.612  0.00  0.00    +0.005 C 
BRANCH  34  35
ATOM     35  C   UNL     1       0.635   4.068   1.493  0.00  0.00    +0.034 C 
BRANCH  35  36
ATOM     36  C   UNL     1       2.026   3.890   2.107  0.00  0.00    +0.061 C 
ATOM     37  C   UNL     1       2.362   5.110   2.967  0.00  0.00    +0.041 C 
ATOM     38  C   UNL     1       2.042   2.632   2.976  0.00  0.00    +0.041 C 
BRANCH  36  39
ATOM     39  O   UNL     1       2.994   3.762   1.064  0.00  0.00    -0.389 OA
ATOM     40  H   UNL     1       3.092   4.554   0.518  0.00  0.00    +0.210 HD
ENDBRANCH  36  39
ENDBRANCH  35  36
ENDBRANCH  34  35
ENDBRANCH  33  34
ENDBRANCH  32  33
ENDBRANCH  27  32
ENDBRANCH   1  28
TORSDOF 9
