REMARK  Name = ZINC61595144
REMARK  10 active torsions:
REMARK  status: ('A' for Active; 'I' for Inactive)
REMARK    1  A    between atoms: C_1  and  C_2
REMARK    2  A    between atoms: C_2  and  C_3
REMARK    3  A    between atoms: C_3  and  C_5
REMARK    4  A    between atoms: C_3  and  N_24
REMARK    5  A    between atoms: C_5  and  C_7
REMARK    6  A    between atoms: C_5  and  S_13
REMARK    7  A    between atoms: S_13  and  C_14
REMARK    8  A    between atoms: N_20  and  C_21
REMARK    9  A    between atoms: C_21  and  C_22
REMARK   10  A    between atoms: C_21  and  C_23
REMARK                            x       y       z     vdW  Elec       q    Type
REMARK                         _______ _______ _______ _____ _____    ______ ____
ROOT
ATOM      1  C   UNL     1       0.893  -1.819   1.261  0.00  0.00    +0.076 C 
ENDROOT
BRANCH   1   2
ATOM      2  C   UNL     1       1.618  -2.227   0.004  0.00  0.00    +0.003 A 
ATOM      3  C   UNL     1       1.180  -2.996  -1.022  0.00  0.00    +0.013 A 
ATOM      4  C   UNL     1       2.029  -3.243  -2.085  0.00  0.00    +0.023 A 
ATOM      5  C   UNL     1       3.275  -2.707  -2.069  0.00  0.00    +0.055 A 
ATOM      6  S   UNL     1       3.274  -1.817  -0.521  0.00  0.00    -0.085 S 
ATOM      7 BR   UNL     1       4.652  -2.858  -3.355  0.00  0.00    -0.043 Br
ENDBRANCH   1   2
BRANCH   1   8
ATOM      8  C   UNL     1       0.792  -0.293   1.318  0.00  0.00    -0.057 C 
BRANCH   8   9
ATOM      9  N   UNL     1       0.179   0.204   0.079  0.00  0.00    +0.381 N 
ATOM     10  H   UNL     1       0.728  -0.097  -0.712  0.00  0.00    -0.090 HD
ATOM     11  H   UNL     1      -0.758  -0.162  -0.004  0.00  0.00    -0.090 HD
ATOM     12  H   UNL     1       0.146   1.212   0.101  0.00  0.00    -0.090 HD
ENDBRANCH   8   9
BRANCH   8  14
ATOM     13  C   UNL     1       2.081   1.821   1.653  0.00  0.00    +0.002 C 
ATOM     14  C   UNL     1       2.191   0.305   1.470  0.00  0.00    -0.018 C 
ENDBRANCH   8  14
ENDBRANCH   1   8
BRANCH   1  15
ATOM     15  S   UNL     1       1.806  -2.419   2.708  0.00  0.00    -0.079 S 
BRANCH  15  16
ATOM     16  C   UNL     1       0.741  -2.056   4.065  0.00  0.00    +0.193 A 
ATOM     17  N   UNL     1      -0.392  -1.419   3.991  0.00  0.00    -0.145 NA
ATOM     18  N   UNL     1      -0.928  -1.337   5.284  0.00  0.00    -0.226 N 
ATOM     19  H   UNL     1      -1.766  -0.916   5.532  0.00  0.00    +0.194 HD
ATOM     20  C   UNL     1      -0.065  -1.951   6.119  0.00  0.00    +0.345 A 
ATOM     21  O   UNL     1      -0.196  -2.079   7.323  0.00  0.00    -0.245 OA
ATOM     22  N   UNL     1       0.966  -2.404   5.377  0.00  0.00    -0.268 N 
BRANCH  22  23
ATOM     23  C   UNL     1       2.129  -3.138   5.883  0.00  0.00    +0.088 C 
ATOM     24  C   UNL     1       2.867  -2.278   6.911  0.00  0.00    +0.031 C 
ATOM     25  C   UNL     1       1.664  -4.437   6.544  0.00  0.00    +0.031 C 
ENDBRANCH  22  23
ENDBRANCH  15  16
ENDBRANCH   1  15
TORSDOF 7
