REMARK  Name = ZINC00867406
REMARK  5 active torsions:
REMARK  status: ('A' for Active; 'I' for Inactive)
REMARK    1  A    between atoms: C_3  and  C_6
REMARK    2  A    between atoms: N_8  and  C_9
REMARK    3  A    between atoms: C_9  and  C_18
REMARK    4  A    between atoms: C_10  and  C_11
REMARK    5  A    between atoms: N_20  and  N_21
REMARK                            x       y       z     vdW  Elec       q    Type
REMARK                         _______ _______ _______ _____ _____    ______ ____
ROOT
ATOM      1  C   UNL     1       5.985   1.122  -0.071  0.00  0.00    +0.098 C 
ATOM      2  C   UNL     1       6.941   0.169   0.018  0.00  0.00    +0.036 C 
ENDROOT
BRANCH   2   3
ATOM      3  C   UNL     1       8.329   0.545   0.327  0.00  0.00    -0.023 A 
ATOM      4  C   UNL     1       8.593   1.658   1.133  0.00  0.00    +0.009 A 
ATOM      5  C   UNL     1       9.896   2.005   1.418  0.00  0.00    +0.016 A 
ATOM      6  C   UNL     1      10.943   1.254   0.909  0.00  0.00    +0.018 A 
ATOM      7  C   UNL     1      10.690   0.152   0.109  0.00  0.00    +0.016 A 
ATOM      8  C   UNL     1       9.392  -0.210  -0.180  0.00  0.00    +0.009 A 
ATOM      9 BR   UNL     1      12.728   1.738   1.306  0.00  0.00    -0.050 Br
ENDBRANCH   2   3
BRANCH   1  12
ATOM     10  C   UNL     1       3.705   1.703  -0.414  0.00  0.00    +0.255 C 
ATOM     11  O   UNL     1       4.009   2.881  -0.363  0.00  0.00    -0.269 OA
ATOM     12  N   UNL     1       4.645   0.756  -0.225  0.00  0.00    -0.277 N 
ATOM     13  H   UNL     1       4.391  -0.180  -0.196  0.00  0.00    +0.155 HD
BRANCH  10  16
ATOM     14  C   UNL     1       0.027   1.463  -1.128  0.00  0.00    +0.008 A 
ATOM     15  C   UNL     1       1.211   2.123  -0.901  0.00  0.00    +0.021 A 
ATOM     16  C   UNL     1       2.317   1.316  -0.681  0.00  0.00    +0.074 A 
ATOM     17  S   UNL     1       1.611  -0.316  -0.808  0.00  0.00    -0.092 S 
ATOM     18  C   UNL     1       0.016   0.107  -1.121  0.00  0.00    +0.046 A 
ENDBRANCH  10  16
ENDBRANCH   1  12
BRANCH   1  19
ATOM     19  C   UNL     1       6.356   2.543  -0.006  0.00  0.00    +0.272 C 
ATOM     20  O   UNL     1       6.038   3.212   0.960  0.00  0.00    -0.268 OA
ATOM     21  N   UNL     1       7.049   3.106  -1.016  0.00  0.00    -0.249 N 
ATOM     22  H   UNL     1       7.240   2.594  -1.817  0.00  0.00    +0.169 HD
BRANCH  21  23
ATOM     23  N   UNL     1       7.482   4.397  -0.911  0.00  0.00    -0.254 NA
ATOM     24  H   UNL     1       8.049   4.522  -0.086  0.00  0.00    +0.140 HD
ATOM     25  H   UNL     1       7.984   4.679  -1.740  0.00  0.00    +0.140 HD
ENDBRANCH  21  23
ENDBRANCH   1  19
TORSDOF 5
