REMARK  Name = ZINC16485361
REMARK  7 active torsions:
REMARK  status: ('A' for Active; 'I' for Inactive)
REMARK    1  A    between atoms: C_6  and  N_7
REMARK    2  A    between atoms: C_8  and  S_12
REMARK    3  A    between atoms: S_12  and  C_13
REMARK    4  A    between atoms: C_13  and  C_14
REMARK    5  A    between atoms: N_16  and  C_17
REMARK    6  A    between atoms: C_19  and  C_28
REMARK    7  A    between atoms: C_22  and  N_23
REMARK                            x       y       z     vdW  Elec       q    Type
REMARK                         _______ _______ _______ _____ _____    ______ ____
ROOT
ATOM      1  C   UNL     1       0.177   5.727   0.018  0.00  0.00    +0.228 C 
ATOM      2  O   UNL     1       1.284   6.223   0.019  0.00  0.00    -0.275 OA
ATOM      3  N   UNL     1      -0.915   6.516   0.038  0.00  0.00    -0.283 N 
ATOM      4  H   UNL     1      -1.800   6.122  -0.029  0.00  0.00    +0.155 HD
ENDROOT
BRANCH   3   5
ATOM      5  C   UNL     1      -0.775   7.904   0.154  0.00  0.00    +0.060 A 
ATOM      6  C   UNL     1       0.300   8.547  -0.443  0.00  0.00    +0.037 A 
ATOM      7  C   UNL     1       0.434   9.917  -0.331  0.00  0.00    +0.057 A 
ATOM      8  C   UNL     1      -0.494  10.651   0.385  0.00  0.00    +0.014 A 
ATOM      9  C   UNL     1      -1.565  10.018   0.988  0.00  0.00    +0.030 A 
ATOM     10  C   UNL     1      -1.710   8.643   0.876  0.00  0.00    +0.088 A 
BRANCH  10  11
ATOM     11  N   UNL     1      -2.796   7.999   1.488  0.00  0.00    -0.218 N 
ATOM     12  C   UNL     1      -3.823   8.584   2.134  0.00  0.00    +0.225 A 
ATOM     13  N   UNL     1      -4.626   7.641   2.556  0.00  0.00    -0.222 NA
ATOM     14  C   UNL     1      -4.144   6.448   2.210  0.00  0.00    +0.245 A 
ATOM     15  N   UNL     1      -3.025   6.615   1.554  0.00  0.00    -0.153 NA
ENDBRANCH  10  11
BRANCH   7  16
ATOM     16  C   UNL     1       1.599  10.614  -0.986  0.00  0.00    +0.417 C 
ATOM     17  F   UNL     1       1.524  11.988  -0.730  0.00  0.00    -0.166 F 
ATOM     18  F   UNL     1       2.796  10.108  -0.469  0.00  0.00    -0.166 F 
ATOM     19  F   UNL     1       1.557  10.394  -2.367  0.00  0.00    -0.166 F 
ENDBRANCH   7  16
ENDBRANCH   3   5
BRANCH   1  20
ATOM     20  C   UNL     1       0.024   4.228  -0.004  0.00  0.00    +0.173 C 
BRANCH  20  21
ATOM     21  S   UNL     1       1.660   3.454  -0.027  0.00  0.00    -0.075 S 
BRANCH  21  23
ATOM     22  N   UNL     1       2.034   0.689  -0.072  0.00  0.00    -0.187 N 
ATOM     23  C   UNL     1       1.194   1.755  -0.050  0.00  0.00    +0.214 A 
ATOM     24  N   UNL     1      -0.033   1.280  -0.050  0.00  0.00    -0.101 NA
ATOM     25  N   UNL     1      -0.018  -0.004  -0.070  0.00  0.00    -0.022 NA
ATOM     26  N   UNL     1       1.195  -0.439  -0.084  0.00  0.00    -0.038 NA
BRANCH  22  32
ATOM     27  C   UNL     1       4.113   1.710  -0.763  0.00  0.00    +0.029 A 
ATOM     28  C   UNL     1       5.494   1.730  -0.766  0.00  0.00    +0.022 A 
ATOM     29  C   UNL     1       6.203   0.747  -0.097  0.00  0.00    +0.041 A 
ATOM     30  C   UNL     1       5.530  -0.255   0.580  0.00  0.00    +0.022 A 
ATOM     31  C   UNL     1       4.149  -0.276   0.590  0.00  0.00    +0.029 A 
ATOM     32  C   UNL     1       3.436   0.709  -0.080  0.00  0.00    +0.070 A 
ATOM     33 CL   UNL     1       7.939   0.771  -0.109  0.00  0.00    -0.084 Cl
ENDBRANCH  22  32
ENDBRANCH  21  23
ENDBRANCH  20  21
ENDBRANCH   1  20
TORSDOF 7
