REMARK  Name = ZINC65305970
REMARK  14 active torsions:
REMARK  status: ('A' for Active; 'I' for Inactive)
REMARK    1  A    between atoms: C_1  and  C_2
REMARK    2  A    between atoms: C_2  and  C_3
REMARK    3  A    between atoms: C_3  and  C_5
REMARK    4  A    between atoms: C_3  and  C_6
REMARK    5  A    between atoms: C_6  and  C_8
REMARK    6  A    between atoms: C_6  and  N_20
REMARK    7  A    between atoms: N_10  and  C_11
REMARK    8  A    between atoms: C_21  and  C_23
REMARK    9  A    between atoms: C_26  and  O_32
REMARK   10  A    between atoms: C_27  and  O_29
REMARK   11  A    between atoms: O_29  and  C_30
REMARK   12  A    between atoms: C_30  and  C_31
REMARK   13  A    between atoms: O_32  and  C_33
REMARK   14  A    between atoms: C_33  and  C_34
REMARK                            x       y       z     vdW  Elec       q    Type
REMARK                         _______ _______ _______ _____ _____    ______ ____
ROOT
ATOM      1  C   UNL     1       2.034   0.040  -1.232  0.00  0.00    +0.162 C 
ENDROOT
BRANCH   1   2
ATOM      2  C   UNL     1       2.021   1.527  -0.993  0.00  0.00    +0.236 C 
ATOM      3  O   UNL     1       2.554   2.274  -1.786  0.00  0.00    -0.274 OA
ATOM      4  N   UNL     1       1.417   2.028   0.103  0.00  0.00    -0.277 N 
ATOM      5  H   UNL     1       1.055   1.428   0.774  0.00  0.00    +0.152 HD
BRANCH   4   6
ATOM      6  C   UNL     1       1.307   3.478   0.281  0.00  0.00    +0.269 C 
ATOM      7  N   UNL     1       2.589   4.028   0.742  0.00  0.00    -0.348 N 
ATOM      8  C   UNL     1       2.382   4.581   1.902  0.00  0.00    +0.061 A 
ATOM      9  C   UNL     1       3.263   5.284   2.845  0.00  0.00    +0.027 A 
ATOM     10  C   UNL     1       2.756   5.761   3.999  0.00  0.00    +0.002 A 
ATOM     11  C   UNL     1       1.401   5.615   4.350  0.00  0.00    +0.002 A 
ATOM     12  C   UNL     1       0.509   4.987   3.558  0.00  0.00    +0.027 A 
ATOM     13  C   UNL     1       0.949   4.427   2.273  0.00  0.00    +0.061 A 
ATOM     14  N   UNL     1       0.325   3.785   1.328  0.00  0.00    -0.348 N 
ATOM     15  H   UNL     1       3.434   3.986   0.268  0.00  0.00    +0.163 HD
ATOM     16  H   UNL     1      -0.617   3.551   1.317  0.00  0.00    +0.163 HD
ENDBRANCH   4   6
ENDBRANCH   1   2
BRANCH   1  17
ATOM     17  N   UNL     1       3.128  -0.299  -2.145  0.00  0.00    -0.300 N 
ATOM     18  C   UNL     1       3.665  -1.535  -2.126  0.00  0.00    +0.245 C 
ATOM     19  O   UNL     1       3.240  -2.370  -1.351  0.00  0.00    -0.270 OA
ATOM     20  H   UNL     1       3.467   0.367  -2.764  0.00  0.00    +0.150 HD
BRANCH  18  21
ATOM     21  C   UNL     1       4.768  -1.876  -3.046  0.00  0.00    +0.040 A 
ATOM     22  C   UNL     1       5.261  -0.916  -3.933  0.00  0.00    +0.017 A 
ATOM     23  C   UNL     1       6.291  -1.236  -4.791  0.00  0.00    +0.050 A 
ATOM     24  C   UNL     1       6.841  -2.510  -4.776  0.00  0.00    +0.162 A 
ATOM     25  C   UNL     1       6.353  -3.473  -3.893  0.00  0.00    +0.163 A 
ATOM     26  C   UNL     1       5.325  -3.157  -3.027  0.00  0.00    +0.062 A 
BRANCH  25  27
ATOM     27  O   UNL     1       6.893  -4.721  -3.882  0.00  0.00    -0.489 OA
BRANCH  27  28
ATOM     28  C   UNL     1       6.344  -5.657  -2.952  0.00  0.00    +0.226 C 
ATOM     29  C   UNL     1       7.073  -6.995  -3.085  0.00  0.00    +0.048 C 
ENDBRANCH  27  28
ENDBRANCH  25  27
BRANCH  24  30
ATOM     30  O   UNL     1       7.856  -2.821  -5.623  0.00  0.00    -0.489 OA
BRANCH  30  31
ATOM     31  C   UNL     1       8.306  -1.787  -6.501  0.00  0.00    +0.226 C 
ATOM     32  C   UNL     1       9.445  -2.319  -7.373  0.00  0.00    +0.048 C 
ENDBRANCH  30  31
ENDBRANCH  24  30
ENDBRANCH  18  21
ENDBRANCH   1  17
BRANCH   1  33
ATOM     33  C   UNL     1       0.702  -0.388  -1.853  0.00  0.00    +0.015 C 
ATOM     34  C   UNL     1       0.570   0.223  -3.249  0.00  0.00    +0.010 C 
BRANCH  33  36
ATOM     35  C   UNL     1       0.615  -2.520  -0.552  0.00  0.00    +0.004 C 
ATOM     36  C   UNL     1       0.655  -1.914  -1.957  0.00  0.00    +0.002 C 
ENDBRANCH  33  36
ENDBRANCH   1  33
TORSDOF 10
