REMARK  Name = ZINC37943076
REMARK  5 active torsions:
REMARK  status: ('A' for Active; 'I' for Inactive)
REMARK    1  A    between atoms: C_6  and  C_7
REMARK    2  A    between atoms: C_7  and  C_9
REMARK    3  A    between atoms: C_7  and  N_12
REMARK    4  A    between atoms: N_12  and  C_13
REMARK    5  A    between atoms: C_13  and  C_14
REMARK                            x       y       z     vdW  Elec       q    Type
REMARK                         _______ _______ _______ _____ _____    ______ ____
ROOT
ATOM      1  C   UNL     1      -1.293  -0.775   0.010  0.00  0.00    +0.047 C 
ENDROOT
BRANCH   1   7
ATOM      2  C   UNL     1      -0.017   1.378   0.010  0.00  0.00    +0.003 A 
ATOM      3  C   UNL     1       1.171   2.086   0.002  0.00  0.00    +0.015 A 
ATOM      4  C   UNL     1       2.378   1.411  -0.013  0.00  0.00    +0.018 A 
ATOM      5  C   UNL     1       2.396   0.027  -0.021  0.00  0.00    +0.015 A 
ATOM      6  C   UNL     1       1.208  -0.679  -0.013  0.00  0.00    +0.003 A 
ATOM      7  C   UNL     1       0.002  -0.004   0.002  0.00  0.00    -0.053 A 
ATOM      8 BR   UNL     1       4.003   2.378  -0.024  0.00  0.00    -0.050 Br
ENDBRANCH   1   7
BRANCH   1   9
ATOM      9  C   UNL     1      -1.612  -1.236  -1.389  0.00  0.00    +0.201 C 
ATOM     10  O   UNL     1      -1.719  -2.421  -1.627  0.00  0.00    -0.277 OA
ATOM     11  N   UNL     1      -1.777  -0.333  -2.375  0.00  0.00    -0.330 N 
ATOM     12  H   UNL     1      -1.690   0.614  -2.184  0.00  0.00    +0.145 HD
ATOM     13  H   UNL     1      -1.982  -0.630  -3.275  0.00  0.00    +0.145 HD
ENDBRANCH   1   9
BRANCH   1  14
ATOM     14  N   UNL     1      -1.162  -1.942   0.893  0.00  0.00    +0.391 N 
ATOM     15  H   UNL     1      -0.476  -2.576   0.513  0.00  0.00    -0.084 HD
ATOM     16  H   UNL     1      -0.869  -1.639   1.810  0.00  0.00    -0.084 HD
BRANCH  14  17
ATOM     17  C   UNL     1      -2.458  -2.626   0.995  0.00  0.00    -0.049 C 
BRANCH  17  18
ATOM     18  C   UNL     1      -2.322  -3.841   1.915  0.00  0.00    +0.101 C 
ATOM     19  C   UNL     1      -3.647  -4.635   1.933  0.00  0.00    +0.032 C 
ATOM     20  C   UNL     1      -3.759  -5.054   3.424  0.00  0.00    +0.030 C 
ATOM     21  C   UNL     1      -3.123  -3.827   4.124  0.00  0.00    +0.160 C 
ATOM     22  O   UNL     1      -2.056  -3.410   3.254  0.00  0.00    -0.378 OA
ENDBRANCH  17  18
ENDBRANCH  14  17
ENDBRANCH   1  14
TORSDOF 5
