REMARK  Name = ZINC35924735
REMARK  10 active torsions:
REMARK  status: ('A' for Active; 'I' for Inactive)
REMARK    1  A    between atoms: C_1  and  C_2
REMARK    2  A    between atoms: C_7  and  N_8
REMARK    3  A    between atoms: C_9  and  C_36
REMARK    4  A    between atoms: C_11  and  C_13
REMARK    5  A    between atoms: C_14  and  C_35
REMARK    6  A    between atoms: C_20  and  C_23
REMARK    7  A    between atoms: C_23  and  C_24
REMARK    8  A    between atoms: N_26  and  C_27
REMARK    9  A    between atoms: C_27  and  C_28
REMARK   10  A    between atoms: C_28  and  N_29
REMARK                            x       y       z     vdW  Elec       q    Type
REMARK                         _______ _______ _______ _____ _____    ______ ____
ROOT
ATOM      1  C   UNL     1       0.074   3.226   4.236  0.00  0.00    +0.088 A 
ATOM      2  C   UNL     1      -0.142   4.304   3.384  0.00  0.00    +0.055 A 
ATOM      3  N   UNL     1      -0.212   5.524   3.905  0.00  0.00    -0.227 NA
ATOM      4  C   UNL     1      -0.081   5.723   5.194  0.00  0.00    +0.180 A 
ATOM      5  N   UNL     1       0.134   4.726   6.107  0.00  0.00    -0.258 N 
ATOM      6  C   UNL     1       0.207   3.453   5.618  0.00  0.00    +0.268 A 
ATOM      7  O   UNL     1       0.393   2.515   6.376  0.00  0.00    -0.266 OA
ATOM      8  C   UNL     1       0.249   5.106   7.423  0.00  0.00    +0.044 A 
ATOM      9  C   UNL     1       0.154   6.387   7.781  0.00  0.00    +0.071 A 
ATOM     10  S   UNL     1      -0.118   7.186   6.207  0.00  0.00    -0.057 S 
ATOM     11  C   UNL     1      -0.294   4.092   1.900  0.00  0.00    +0.066 C 
ENDROOT
BRANCH   1  15
ATOM     12  N   UNL     1       0.185   0.119   2.333  0.00  0.00    -0.236 N 
ATOM     13  C   UNL     1       0.379  -0.368   3.586  0.00  0.00    +0.042 A 
ATOM     14  C   UNL     1       0.367   0.675   4.444  0.00  0.00    +0.053 A 
ATOM     15  C   UNL     1       0.158   1.850   3.693  0.00  0.00    +0.100 A 
ATOM     16  N   UNL     1       0.054   1.511   2.425  0.00  0.00    -0.166 NA
ATOM     17  C   UNL     1       0.573  -1.817   3.954  0.00  0.00    +0.066 C 
BRANCH  12  24
ATOM     18  C   UNL     1      -1.963   0.596   0.528  0.00  0.00    +0.046 C 
ATOM     19  C   UNL     1      -0.901  -0.436   0.246  0.00  0.00    -0.025 A 
ATOM     20  C   UNL     1      -0.950  -1.178  -0.918  0.00  0.00    +0.008 A 
ATOM     21  C   UNL     1       0.024  -2.124  -1.177  0.00  0.00    +0.039 A 
ATOM     22  C   UNL     1       1.051  -2.332  -0.271  0.00  0.00    +0.125 A 
ATOM     23  C   UNL     1       1.104  -1.592   0.896  0.00  0.00    +0.066 A 
ATOM     24  C   UNL     1       0.130  -0.636   1.155  0.00  0.00    +0.071 A 
ATOM     25  F   UNL     1       2.000  -3.259  -0.527  0.00  0.00    -0.205 F 
ENDBRANCH  12  24
ENDBRANCH   1  15
BRANCH   8  26
ATOM     26  C   UNL     1       0.486   4.058   8.480  0.00  0.00    +0.150 C 
BRANCH  26  27
ATOM     27  C   UNL     1      -0.834   3.471   8.910  0.00  0.00    +0.219 C 
ATOM     28  O   UNL     1      -1.865   3.866   8.408  0.00  0.00    -0.275 OA
ATOM     29  N   UNL     1      -0.868   2.508   9.852  0.00  0.00    -0.317 N 
ATOM     30  H   UNL     1      -0.043   2.193  10.253  0.00  0.00    +0.149 HD
BRANCH  29  31
ATOM     31  C   UNL     1      -2.151   1.938  10.271  0.00  0.00    +0.085 C 
BRANCH  31  32
ATOM     32  C   UNL     1      -1.911   0.874  11.343  0.00  0.00    -0.060 C 
BRANCH  32  33
ATOM     33  N   UNL     1      -3.197   0.302  11.762  0.00  0.00    +0.381 N 
ATOM     34  C   UNL     1      -4.005   1.342  12.410  0.00  0.00    -0.079 C 
ATOM     35  C   UNL     1      -5.378   0.773  12.776  0.00  0.00    -0.019 C 
ATOM     36  C   UNL     1      -5.196  -0.406  13.737  0.00  0.00    -0.004 C 
ATOM     37  C   UNL     1      -4.290  -1.452  13.079  0.00  0.00    -0.019 C 
ATOM     38  C   UNL     1      -2.958  -0.800  12.702  0.00  0.00    -0.079 C 
ATOM     39  H   UNL     1      -3.689  -0.048  10.953  0.00  0.00    -0.082 HD
ENDBRANCH  32  33
ENDBRANCH  31  32
ENDBRANCH  29  31
ENDBRANCH  26  27
ENDBRANCH   8  26
TORSDOF 7
