REMARK  Name = ZINC59112933
REMARK  9 active torsions:
REMARK  status: ('A' for Active; 'I' for Inactive)
REMARK    1  A    between atoms: C_1  and  C_2
REMARK    2  A    between atoms: C_2  and  C_24
REMARK    3  A    between atoms: C_4  and  N_10
REMARK    4  A    between atoms: C_6  and  C_8
REMARK    5  A    between atoms: C_6  and  C_9
REMARK    6  A    between atoms: N_10  and  C_11
REMARK    7  A    between atoms: C_11  and  N_13
REMARK    8  A    between atoms: N_13  and  C_14
REMARK    9  A    between atoms: C_19  and  C_20
REMARK                            x       y       z     vdW  Elec       q    Type
REMARK                         _______ _______ _______ _____ _____    ______ ____
ROOT
ATOM      1  N   UNL     1      -3.651  -0.646   0.757  0.00  0.00    -0.324 N 
ATOM      2  H   UNL     1      -3.706  -1.501   0.301  0.00  0.00    +0.148 HD
ENDROOT
BRANCH   1   6
ATOM      3  C   UNL     1      -0.823   2.105  -1.201  0.00  0.00    -0.010 C 
ATOM      4  C   UNL     1      -0.466   0.658  -0.842  0.00  0.00    -0.072 C 
ATOM      5  C   UNL     1      -1.741  -0.165  -0.691  0.00  0.00    +0.009 C 
ATOM      6  C   UNL     1      -2.445   0.181   0.622  0.00  0.00    +0.069 C 
ATOM      7  C   UNL     1      -1.488  -0.131   1.772  0.00  0.00    +0.009 C 
ATOM      8  C   UNL     1      -0.211   0.692   1.639  0.00  0.00    -0.072 C 
ATOM      9  N   UNL     1       0.397   0.601   0.324  0.00  0.00    +0.386 N 
ATOM     10  C   UNL     1       0.804   0.138   2.666  0.00  0.00    -0.010 C 
ATOM     11  C   UNL     1      -0.490   2.148   2.025  0.00  0.00    -0.010 C 
ATOM     12  C   UNL     1       0.320   0.075  -2.039  0.00  0.00    -0.010 C 
ATOM     13  H   UNL     1       0.937  -0.269   0.280  0.00  0.00    -0.084 HD
ATOM     14  H   UNL     1       1.097   1.345   0.242  0.00  0.00    -0.084 HD
ENDBRANCH   1   6
BRANCH   1  15
ATOM     15  C   UNL     1      -4.680  -0.218   1.514  0.00  0.00    +0.135 C 
ATOM     16  S   UNL     1      -4.582   1.290   2.318  0.00  0.00    -0.019 S 
BRANCH  15  17
ATOM     17  N   UNL     1      -5.787  -0.978   1.638  0.00  0.00    -0.296 N 
ATOM     18  H   UNL     1      -5.876  -1.793   1.120  0.00  0.00    +0.154 HD
BRANCH  17  19
ATOM     19  C   UNL     1      -6.807  -0.589   2.513  0.00  0.00    +0.044 A 
ATOM     20  C   UNL     1      -6.495  -0.135   3.788  0.00  0.00    +0.024 A 
ATOM     21  C   UNL     1      -7.505   0.248   4.649  0.00  0.00    +0.002 A 
ATOM     22  C   UNL     1      -8.825   0.179   4.243  0.00  0.00    +0.001 A 
ATOM     23  C   UNL     1      -9.139  -0.272   2.974  0.00  0.00    +0.014 A 
ATOM     24  C   UNL     1      -8.133  -0.651   2.106  0.00  0.00    +0.076 A 
BRANCH  24  25
ATOM     25  C   UNL     1      -8.476  -1.138   0.722  0.00  0.00    +0.419 C 
ATOM     26  F   UNL     1      -9.864  -1.111   0.548  0.00  0.00    -0.166 F 
ATOM     27  F   UNL     1      -7.871  -0.307  -0.228  0.00  0.00    -0.166 F 
ATOM     28  F   UNL     1      -8.012  -2.447   0.559  0.00  0.00    -0.166 F 
ENDBRANCH  24  25
ENDBRANCH  17  19
ENDBRANCH  15  17
ENDBRANCH   1  15
TORSDOF 5
