REMARK  Name = ZINC35041430
REMARK  14 active torsions:
REMARK  status: ('A' for Active; 'I' for Inactive)
REMARK    1  A    between atoms: C_1  and  C_2
REMARK    2  A    between atoms: C_5  and  S_8
REMARK    3  A    between atoms: S_8  and  N_11
REMARK    4  A    between atoms: N_11  and  C_12
REMARK    5  A    between atoms: N_11  and  C_17
REMARK    6  A    between atoms: C_12  and  C_13
REMARK    7  A    between atoms: C_13  and  N_14
REMARK    8  A    between atoms: N_14  and  C_15
REMARK    9  A    between atoms: N_14  and  C_16
REMARK   10  A    between atoms: C_17  and  C_19
REMARK   11  A    between atoms: C_17  and  C_20
REMARK   12  A    between atoms: N_30  and  C_31
REMARK   13  A    between atoms: C_34  and  O_37
REMARK   14  A    between atoms: O_37  and  C_38
REMARK                            x       y       z     vdW  Elec       q    Type
REMARK                         _______ _______ _______ _____ _____    ______ ____
ROOT
ATOM      1  C   UNL     1       2.506  -5.438  -0.573  0.00  0.00    +0.143 C 
ATOM      2  C   UNL     1       3.883  -4.817  -0.327  0.00  0.00    +0.034 C 
ENDROOT
BRANCH   1   3
ATOM      3  C   UNL     1       2.672  -6.778  -1.243  0.00  0.00    +0.136 A 
ATOM      4  N   UNL     1       3.843  -7.338  -1.220  0.00  0.00    -0.231 NA
ATOM      5  C   UNL     1       4.067  -8.542  -1.802  0.00  0.00    +0.078 A 
ATOM      6  C   UNL     1       5.327  -9.145  -1.777  0.00  0.00    +0.028 A 
ATOM      7  C   UNL     1       5.509 -10.369  -2.381  0.00  0.00    +0.002 A 
ATOM      8  C   UNL     1       4.455 -11.014  -3.015  0.00  0.00    +0.001 A 
ATOM      9  C   UNL     1       3.203 -10.439  -3.053  0.00  0.00    +0.015 A 
ATOM     10  C   UNL     1       2.997  -9.201  -2.448  0.00  0.00    +0.065 A 
ATOM     11  C   UNL     1       1.684  -8.540  -2.457  0.00  0.00    +0.266 A 
ATOM     12  O   UNL     1       0.721  -9.054  -2.996  0.00  0.00    -0.267 OA
ATOM     13  N   UNL     1       1.586  -7.341  -1.837  0.00  0.00    -0.263 N 
BRANCH  13  14
ATOM     14  C   UNL     1       0.354  -6.671  -1.811  0.00  0.00    +0.051 A 
ATOM     15  C   UNL     1       0.097  -5.656  -2.723  0.00  0.00    +0.030 A 
ATOM     16  C   UNL     1      -1.116  -4.997  -2.697  0.00  0.00    +0.047 A 
ATOM     17  C   UNL     1      -2.077  -5.348  -1.760  0.00  0.00    +0.120 A 
ATOM     18  C   UNL     1      -1.820  -6.362  -0.849  0.00  0.00    +0.047 A 
ATOM     19  C   UNL     1      -0.610  -7.027  -0.878  0.00  0.00    +0.030 A 
BRANCH  17  20
ATOM     20  O   UNL     1      -3.271  -4.698  -1.735  0.00  0.00    -0.495 OA
ATOM     21  C   UNL     1      -4.214  -5.112  -0.744  0.00  0.00    +0.277 C 
ENDBRANCH  17  20
ENDBRANCH  13  14
ENDBRANCH   1   3
BRANCH   1  22
ATOM     22  N   UNL     1       1.815  -5.615   0.706  0.00  0.00    -0.168 NA
BRANCH  22  23
ATOM     23  S   UNL     1       0.485  -4.693   1.063  0.00  0.00    +0.061 S 
ATOM     24  O   UNL     1      -0.336  -5.478   1.916  0.00  0.00    -0.153 OA
ATOM     25  O   UNL     1       0.017  -4.163  -0.169  0.00  0.00    -0.153 OA
BRANCH  23  30
ATOM     26  C   UNL     1       2.391  -0.002   4.344  0.00  0.00    +0.044 C 
ATOM     27  C   UNL     1       1.915  -1.173   3.524  0.00  0.00    -0.050 A 
ATOM     28  C   UNL     1       1.867  -1.079   2.146  0.00  0.00    +0.005 A 
ATOM     29  C   UNL     1       1.431  -2.154   1.394  0.00  0.00    +0.029 A 
ATOM     30  C   UNL     1       1.043  -3.324   2.021  0.00  0.00    +0.106 A 
ATOM     31  C   UNL     1       1.092  -3.418   3.399  0.00  0.00    +0.029 A 
ATOM     32  C   UNL     1       1.532  -2.345   4.151  0.00  0.00    +0.005 A 
ENDBRANCH  23  30
ENDBRANCH  22  23
BRANCH  22  33
ATOM     33  C   UNL     1       2.298  -6.606   1.670  0.00  0.00    +0.092 C 
BRANCH  33  34
ATOM     34  C   UNL     1       1.662  -7.964   1.367  0.00  0.00    -0.062 C 
BRANCH  34  35
ATOM     35  N   UNL     1       2.146  -8.958   2.335  0.00  0.00    +0.377 N 
ATOM     36  C   UNL     1       1.446 -10.232   2.120  0.00  0.00    -0.097 C 
ATOM     37  C   UNL     1       3.590  -9.156   2.153  0.00  0.00    -0.097 C 
ATOM     38  H   UNL     1       1.967  -8.630   3.272  0.00  0.00    -0.083 HD
ENDBRANCH  34  35
ENDBRANCH  33  34
ENDBRANCH  22  33
ENDBRANCH   1  22
TORSDOF 9
