REMARK  Name = ZINC10108331
REMARK  8 active torsions:
REMARK  status: ('A' for Active; 'I' for Inactive)
REMARK    1  A    between atoms: C_1  and  C_2
REMARK    2  A    between atoms: N_9  and  C_10
REMARK    3  A    between atoms: N_17  and  C_32
REMARK    4  A    between atoms: N_20  and  C_23
REMARK    5  A    between atoms: C_23  and  C_24
REMARK    6  A    between atoms: C_24  and  C_26
REMARK    7  A    between atoms: C_24  and  C_27
REMARK    8  A    between atoms: C_27  and  N_59
REMARK                            x       y       z     vdW  Elec       q    Type
REMARK                         _______ _______ _______ _____ _____    ______ ____
ROOT
ATOM      1  C   UNL     1      -5.614   2.593   1.459  0.00  0.00    +0.065 C 
ATOM      2  C   UNL     1      -4.205   3.060   1.199  0.00  0.00    +0.040 A 
ATOM      3  C   UNL     1      -3.142   2.278   1.037  0.00  0.00    +0.116 A 
ATOM      4  N   UNL     1      -2.037   3.083   0.819  0.00  0.00    -0.277 N 
ATOM      5  C   UNL     1      -0.671   3.093   0.580  0.00  0.00    +0.157 A 
ATOM      6  C   UNL     1      -0.301   4.433   0.480  0.00  0.00    +0.170 A 
ATOM      7  N   UNL     1      -1.398   5.165   0.654  0.00  0.00    -0.193 NA
ATOM      8  C   UNL     1      -2.442   4.374   0.851  0.00  0.00    +0.223 A 
ATOM      9  N   UNL     1      -3.794   4.376   1.087  0.00  0.00    -0.283 N 
ATOM     10  N   UNL     1       1.029   4.741   0.233  0.00  0.00    -0.279 N 
ATOM     11  C   UNL     1       1.935   3.754   0.100  0.00  0.00    +0.333 A 
ATOM     12  O   UNL     1       3.097   4.041  -0.116  0.00  0.00    -0.246 OA
ATOM     13  N   UNL     1       1.588   2.460   0.201  0.00  0.00    -0.259 N 
ATOM     14  C   UNL     1       0.310   2.098   0.440  0.00  0.00    +0.283 A 
ATOM     15  O   UNL     1       0.010   0.920   0.528  0.00  0.00    -0.265 OA
ATOM     16  C   UNL     1       1.447   6.140   0.116  0.00  0.00    +0.155 C 
ENDROOT
BRANCH   9  17
ATOM     17  C   UNL     1      -4.612   5.508   1.194  0.00  0.00    +0.050 A 
ATOM     18  C   UNL     1      -4.796   6.340   0.098  0.00  0.00    +0.027 A 
ATOM     19  C   UNL     1      -5.608   7.452   0.205  0.00  0.00    +0.017 A 
ATOM     20  C   UNL     1      -6.226   7.745   1.407  0.00  0.00    +0.018 A 
ATOM     21  C   UNL     1      -6.040   6.922   2.503  0.00  0.00    +0.017 A 
ATOM     22  C   UNL     1      -5.234   5.805   2.400  0.00  0.00    +0.027 A 
ATOM     23 BR   UNL     1      -7.330   9.274   1.553  0.00  0.00    -0.050 Br
ENDBRANCH   9  17
BRANCH  13  24
ATOM     24  C   UNL     1       2.613   1.425   0.048  0.00  0.00    +0.131 C 
BRANCH  24  25
ATOM     25  C   UNL     1       2.717   1.022  -1.424  0.00  0.00    -0.011 C 
ATOM     26  C   UNL     1       3.218   2.212  -2.244  0.00  0.00    +0.007 C 
BRANCH  25  27
ATOM     27  C   UNL     1       3.696  -0.145  -1.566  0.00  0.00    -0.074 C 
BRANCH  27  32
ATOM     28  C   UNL     1       1.833  -1.706  -1.441  0.00  0.00    -0.079 C 
ATOM     29  C   UNL     1       1.678  -3.187  -1.011  0.00  0.00    -0.020 C 
ATOM     30  C   UNL     1       3.116  -3.739  -1.149  0.00  0.00    -0.020 C 
ATOM     31  C   UNL     1       4.030  -2.501  -1.079  0.00  0.00    -0.079 C 
ATOM     32  N   UNL     1       3.146  -1.352  -0.880  0.00  0.00    +0.380 N 
ATOM     33  H   UNL     1       3.053  -1.156   0.124  0.00  0.00    -0.082 HD
ENDBRANCH  27  32
ENDBRANCH  25  27
ENDBRANCH  24  25
ENDBRANCH  13  24
TORSDOF 5
