REMARK  Name = ZINC61474266
REMARK  13 active torsions:
REMARK  status: ('A' for Active; 'I' for Inactive)
REMARK    1  A    between atoms: C_1  and  C_2
REMARK    2  A    between atoms: C_2  and  C_3
REMARK    3  A    between atoms: C_3  and  C_4
REMARK    4  A    between atoms: C_4  and  N_5
REMARK    5  A    between atoms: C_6  and  C_8
REMARK    6  A    between atoms: C_11  and  C_14
REMARK    7  A    between atoms: C_14  and  N_15
REMARK    8  A    between atoms: N_18  and  C_19
REMARK    9  A    between atoms: C_19  and  C_20
REMARK   10  A    between atoms: C_25  and  C_26
REMARK   11  A    between atoms: C_26  and  N_27
REMARK   12  A    between atoms: N_27  and  C_28
REMARK   13  A    between atoms: N_27  and  C_29
REMARK                            x       y       z     vdW  Elec       q    Type
REMARK                         _______ _______ _______ _____ _____    ______ ____
ROOT
ATOM      1  N   UNL     1      -8.883  -6.059  -1.327  0.00  0.00    -0.295 N 
ATOM      2  C   UNL     1     -10.128  -6.517  -1.564  0.00  0.00    +0.300 C 
ATOM      3  O   UNL     1     -10.862  -6.791  -0.635  0.00  0.00    -0.253 OA
ATOM      4  N   UNL     1     -10.560  -6.671  -2.832  0.00  0.00    -0.295 N 
ATOM      5  H   UNL     1      -8.297  -5.840  -2.069  0.00  0.00    +0.151 HD
ATOM      6  H   UNL     1      -9.974  -6.453  -3.574  0.00  0.00    +0.151 HD
ENDROOT
BRANCH   1   7
ATOM      7  C   UNL     1      -8.414  -5.891   0.050  0.00  0.00    +0.141 C 
BRANCH   7  11
ATOM      8  C   UNL     1      -4.402  -4.411   0.020  0.00  0.00    +0.037 A 
ATOM      9  C   UNL     1      -5.478  -3.521   0.030  0.00  0.00    +0.013 A 
ATOM     10  C   UNL     1      -6.769  -4.005   0.039  0.00  0.00    +0.006 A 
ATOM     11  C   UNL     1      -7.000  -5.369   0.040  0.00  0.00    -0.030 A 
ATOM     12  C   UNL     1      -5.939  -6.256   0.031  0.00  0.00    +0.006 A 
ATOM     13  C   UNL     1      -4.642  -5.786   0.015  0.00  0.00    +0.013 A 
BRANCH   8  15
ATOM     14  N   UNL     1      -2.787  -2.571   0.015  0.00  0.00    -0.311 N 
ATOM     15  C   UNL     1      -3.015  -3.899   0.010  0.00  0.00    +0.244 C 
ATOM     16  O   UNL     1      -2.081  -4.676  -0.003  0.00  0.00    -0.270 OA
ATOM     17  H   UNL     1      -3.533  -1.950   0.025  0.00  0.00    +0.149 HD
BRANCH  14  18
ATOM     18  C   UNL     1      -1.413  -2.063   0.004  0.00  0.00    +0.104 C 
BRANCH  18  19
ATOM     19  C   UNL     1      -1.433  -0.534   0.013  0.00  0.00    +0.018 C 
BRANCH  19  21
ATOM     20  C   UNL     1      -0.019   1.526   0.010  0.00  0.00    +0.004 C 
ATOM     21  C   UNL     1       0.002  -0.004   0.002  0.00  0.00    -0.002 C 
ENDBRANCH  19  21
ENDBRANCH  18  19
ENDBRANCH  14  18
ENDBRANCH   8  15
ENDBRANCH   7  11
ENDBRANCH   1   7
BRANCH   4  22
ATOM     22  C   UNL     1     -11.913  -7.170  -3.089  0.00  0.00    +0.141 C 
BRANCH  22  23
ATOM     23  C   UNL     1     -12.144  -7.250  -4.576  0.00  0.00    -0.029 A 
ATOM     24  C   UNL     1     -12.846  -6.248  -5.221  0.00  0.00    +0.005 A 
ATOM     25  C   UNL     1     -13.059  -6.321  -6.585  0.00  0.00    +0.000 A 
ATOM     26  C   UNL     1     -12.569  -7.396  -7.304  0.00  0.00    +0.000 A 
ATOM     27  C   UNL     1     -11.866  -8.396  -6.660  0.00  0.00    +0.002 A 
ATOM     28  C   UNL     1     -11.650  -8.321  -5.296  0.00  0.00    -0.059 A 
BRANCH  28  29
ATOM     29  C   UNL     1     -10.880  -9.409  -4.594  0.00  0.00    -0.043 C 
BRANCH  29  30
ATOM     30  N   UNL     1     -11.819 -10.330  -3.939  0.00  0.00    +0.379 N 
ATOM     31  C   UNL     1     -12.622 -11.018  -4.959  0.00  0.00    -0.096 C 
ATOM     32  C   UNL     1     -11.068 -11.320  -3.156  0.00  0.00    -0.096 C 
ATOM     33  H   UNL     1     -12.428  -9.809  -3.326  0.00  0.00    -0.082 HD
ENDBRANCH  29  30
ENDBRANCH  28  29
ENDBRANCH  22  23
ENDBRANCH   4  22
TORSDOF 10
