REMARK  Name = ZINC12820828
REMARK  9 active torsions:
REMARK  status: ('A' for Active; 'I' for Inactive)
REMARK    1  A    between atoms: C_1  and  C_2
REMARK    2  A    between atoms: C_7  and  N_8
REMARK    3  A    between atoms: C_9  and  C_11
REMARK    4  A    between atoms: C_11  and  N_51
REMARK    5  A    between atoms: C_12  and  N_51
REMARK    6  A    between atoms: C_13  and  C_15
REMARK    7  A    between atoms: C_13  and  C_22
REMARK    8  A    between atoms: C_13  and  N_51
REMARK    9  A    between atoms: N_24  and  C_25
REMARK                            x       y       z     vdW  Elec       q    Type
REMARK                         _______ _______ _______ _____ _____    ______ ____
ROOT
ATOM      1  C   UNL     1       2.058  -0.117  -1.261  0.00  0.00    -0.094 C 
ATOM      2  N   UNL     1       1.407  -0.462   0.020  0.00  0.00    +0.394 N 
ATOM      3  H   UNL     1       1.907   0.007   0.785  0.00  0.00    -0.080 HD
ENDROOT
BRANCH   2   4
ATOM      4  C   UNL     1       0.002  -0.004   0.013  0.00  0.00    +0.020 C 
BRANCH   4   6
ATOM      5  N   UNL     1      -1.195   2.161   0.019  0.00  0.00    -0.287 N 
ATOM      6  C   UNL     1      -0.018   1.502   0.013  0.00  0.00    +0.201 C 
ATOM      7  O   UNL     1       1.024   2.123   0.003  0.00  0.00    -0.278 OA
ATOM      8  H   UNL     1      -2.027   1.668  -0.054  0.00  0.00    +0.155 HD
BRANCH   5  15
ATOM      9  C   UNL     1      -3.440   3.561  -1.026  0.00  0.00    +0.046 C 
ATOM     10  C   UNL     1      -2.292   4.278  -0.364  0.00  0.00    -0.028 A 
ATOM     11  C   UNL     1      -2.312   5.654  -0.246  0.00  0.00    +0.020 A 
ATOM     12  C   UNL     1      -1.256   6.314   0.356  0.00  0.00    +0.018 A 
ATOM     13  C   UNL     1      -0.179   5.596   0.848  0.00  0.00    +0.017 A 
ATOM     14  C   UNL     1      -0.156   4.220   0.738  0.00  0.00    +0.024 A 
ATOM     15  C   UNL     1      -1.215   3.556   0.133  0.00  0.00    +0.036 A 
ATOM     16 BR   UNL     1      -1.284   8.198   0.508  0.00  0.00    -0.050 Br
ENDBRANCH   5  15
ENDBRANCH   4   6
ENDBRANCH   2   4
BRANCH   2  17
ATOM     17  C   UNL     1       1.461  -1.923   0.236  0.00  0.00    +0.050 C 
BRANCH  17  18
ATOM     18  C   UNL     1       2.901  -2.369   0.215  0.00  0.00    -0.052 A 
ATOM     19  C   UNL     1       3.876  -1.581   0.795  0.00  0.00    +0.005 A 
ATOM     20  C   UNL     1       5.196  -1.991   0.781  0.00  0.00    +0.038 A 
ATOM     21  C   UNL     1       5.542  -3.187   0.175  0.00  0.00    +0.123 A 
ATOM     22  C   UNL     1       4.565  -3.973  -0.412  0.00  0.00    +0.038 A 
ATOM     23  C   UNL     1       3.245  -3.563  -0.391  0.00  0.00    +0.005 A 
ATOM     24  F   UNL     1       6.833  -3.586   0.154  0.00  0.00    -0.205 F 
ENDBRANCH  17  18
BRANCH  17  25
ATOM     25  C   UNL     1       0.857  -2.241   1.580  0.00  0.00    +0.204 C 
ATOM     26  O   UNL     1       0.414  -1.349   2.272  0.00  0.00    -0.277 OA
ATOM     27  N   UNL     1       0.810  -3.516   2.013  0.00  0.00    -0.314 N 
ATOM     28  H   UNL     1       1.164  -4.230   1.460  0.00  0.00    +0.149 HD
BRANCH  27  29
ATOM     29  C   UNL     1       0.222  -3.825   3.319  0.00  0.00    +0.073 C 
ATOM     30  C   UNL     1       0.967  -4.820   4.211  0.00  0.00    +0.024 C 
ATOM     31  C   UNL     1      -0.338  -5.234   3.527  0.00  0.00    +0.024 C 
ENDBRANCH  27  29
ENDBRANCH  17  25
ENDBRANCH   2  17
TORSDOF 7
