REMARK  Name = ZINC22699366
REMARK  16 active torsions:
REMARK  status: ('A' for Active; 'I' for Inactive)
REMARK    1  A    between atoms: C_1  and  C_2
REMARK    2  A    between atoms: C_3  and  C_33
REMARK    3  A    between atoms: C_4  and  C_32
REMARK    4  A    between atoms: C_7  and  C_8
REMARK    5  A    between atoms: C_8  and  C_10
REMARK    6  A    between atoms: C_10  and  C_12
REMARK    7  A    between atoms: C_10  and  S_13
REMARK    8  A    between atoms: S_13  and  C_14
REMARK    9  A    between atoms: C_18  and  C_20
REMARK   10  A    between atoms: C_20  and  C_21
REMARK   11  A    between atoms: C_20  and  C_22
REMARK   12  A    between atoms: C_20  and  C_23
REMARK   13  A    between atoms: N_24  and  C_31
REMARK   14  A    between atoms: N_27  and  C_30
REMARK   15  A    between atoms: C_33  and  O_35
REMARK   16  A    between atoms: O_35  and  C_36
REMARK                            x       y       z     vdW  Elec       q    Type
REMARK                         _______ _______ _______ _____ _____    ______ ____
ROOT
ATOM      1  C   UNL     1       3.735   3.001   5.769  0.00  0.00    +0.116 A 
ATOM      2  C   UNL     1       4.992   3.445   6.206  0.00  0.00    +0.114 A 
ATOM      3  C   UNL     1       5.146   3.820   7.554  0.00  0.00    +0.154 A 
ATOM      4  N   UNL     1       4.102   3.732   8.366  0.00  0.00    -0.213 NA
ATOM      5  C   UNL     1       2.937   3.304   7.915  0.00  0.00    +0.138 A 
ATOM      6  N   UNL     1       2.744   2.947   6.662  0.00  0.00    -0.224 NA
ATOM      7  N   UNL     1       6.380   4.261   7.981  0.00  0.00    -0.281 N 
ATOM      8  C   UNL     1       7.415   4.335   7.126  0.00  0.00    +0.333 A 
ATOM      9  O   UNL     1       8.487   4.729   7.543  0.00  0.00    -0.246 OA
ATOM     10  N   UNL     1       7.316   3.994   5.831  0.00  0.00    -0.263 N 
ATOM     11  C   UNL     1       6.150   3.549   5.312  0.00  0.00    +0.268 A 
ATOM     12  O   UNL     1       6.064   3.240   4.139  0.00  0.00    -0.267 OA
ATOM     13  C   UNL     1       8.493   4.104   4.966  0.00  0.00    +0.157 C 
ATOM     14  C   UNL     1       6.566   4.652   9.381  0.00  0.00    +0.155 C 
ENDROOT
BRANCH   5  15
ATOM     15  C   UNL     1       1.779   3.222   8.875  0.00  0.00    +0.022 C 
ATOM     16  C   UNL     1       0.541   2.705   8.139  0.00  0.00    +0.019 C 
ATOM     17  C   UNL     1       2.129   2.265  10.017  0.00  0.00    +0.019 C 
ATOM     18  C   UNL     1       1.489   4.612   9.446  0.00  0.00    +0.019 C 
ENDBRANCH   5  15
BRANCH   1  19
ATOM     19  S   UNL     1       3.473   2.522   4.094  0.00  0.00    -0.094 S 
BRANCH  19  20
ATOM     20  C   UNL     1       1.724   2.061   4.168  0.00  0.00    +0.122 C 
ATOM     21  C   UNL     1       1.555   0.845   5.080  0.00  0.00    +0.028 C 
BRANCH  20  22
ATOM     22  C   UNL     1       1.235   1.722   2.783  0.00  0.00    +0.192 C 
ATOM     23  O   UNL     1       2.020   1.343   1.938  0.00  0.00    -0.289 OA
BRANCH  22  30
ATOM     24  C   UNL     1      -0.013   1.086   0.008  0.00  0.00    +0.047 C 
ATOM     25  C   UNL     1      -0.718   1.572   1.248  0.00  0.00    -0.008 A 
ATOM     26  C   UNL     1      -2.098   1.839   1.381  0.00  0.00    +0.083 A 
ATOM     27  C   UNL     1      -2.309   2.259   2.683  0.00  0.00    +0.028 A 
ATOM     28  N   UNL     1      -1.134   2.266   3.328  0.00  0.00    -0.355 N 
ATOM     29  H   UNL     1      -1.087   2.576   4.383  0.00  0.00    +0.166 HD
ATOM     30  C   UNL     1      -0.139   1.847   2.468  0.00  0.00    +0.087 A 
ATOM     31  C   UNL     1      -3.638   2.651   3.274  0.00  0.00    +0.064 C 
BRANCH  26  32
ATOM     32  C   UNL     1      -3.121   1.694   0.332  0.00  0.00    +0.341 C 
ATOM     33  O   UNL     1      -3.708   0.638   0.197  0.00  0.00    -0.245 OA
BRANCH  32  34
ATOM     34  O   UNL     1      -3.408   2.732  -0.478  0.00  0.00    -0.464 OA
ATOM     35  C   UNL     1      -4.427   2.518  -1.489  0.00  0.00    +0.280 C 
ENDBRANCH  32  34
ENDBRANCH  26  32
ENDBRANCH  22  30
ENDBRANCH  20  22
ENDBRANCH  19  20
ENDBRANCH   1  19
TORSDOF 7
