REMARK  Name = ZINC09473028
REMARK  10 active torsions:
REMARK  status: ('A' for Active; 'I' for Inactive)
REMARK    1  A    between atoms: C_1  and  N_53
REMARK    2  A    between atoms: C_7  and  N_12
REMARK    3  A    between atoms: C_8  and  C_9
REMARK    4  A    between atoms: C_13  and  C_15
REMARK    5  A    between atoms: C_15  and  C_16
REMARK    6  A    between atoms: C_16  and  C_17
REMARK    7  A    between atoms: C_17  and  S_18
REMARK    8  A    between atoms: S_18  and  C_19
REMARK    9  A    between atoms: C_22  and  O_25
REMARK   10  A    between atoms: O_25  and  C_26
REMARK                            x       y       z     vdW  Elec       q    Type
REMARK                         _______ _______ _______ _____ _____    ______ ____
ROOT
ATOM      1  C   UNL     1       1.430   3.431  -0.162  0.00  0.00    -0.096 C 
ATOM      2  C   UNL     1       2.151   1.297  -1.051  0.00  0.00    -0.074 C 
ATOM      3  C   UNL     1       2.400  -0.164  -0.665  0.00  0.00    +0.018 C 
ATOM      4  C   UNL     1       1.062  -0.791  -0.293  0.00  0.00    -0.027 A 
ATOM      5  C   UNL     1       0.002  -0.004   0.002  0.00  0.00    -0.021 A 
ATOM      6  S   UNL     1      -1.311  -1.132   0.364  0.00  0.00    -0.079 S 
ATOM      7  C   UNL     1      -0.467  -2.628   0.130  0.00  0.00    +0.084 A 
ATOM      8  C   UNL     1       0.812  -2.218  -0.224  0.00  0.00    +0.068 A 
ATOM      9  C   UNL     1      -0.018   1.492   0.010  0.00  0.00    -0.036 C 
ATOM     10  N   UNL     1       1.388   1.965   0.023  0.00  0.00    +0.381 N 
ATOM     11  H   UNL     1       1.811   1.731   0.929  0.00  0.00    -0.082 HD
ENDROOT
BRANCH   8  12
ATOM     12  C   UNL     1       1.869  -3.191  -0.517  0.00  0.00    +0.244 C 
ATOM     13  O   UNL     1       2.589  -3.595   0.378  0.00  0.00    -0.270 OA
ATOM     14  N   UNL     1       2.044  -3.638  -1.776  0.00  0.00    -0.325 N 
ATOM     15  H   UNL     1       1.471  -3.316  -2.489  0.00  0.00    +0.145 HD
ATOM     16  H   UNL     1       2.744  -4.282  -1.969  0.00  0.00    +0.145 HD
ENDBRANCH   8  12
BRANCH   7  17
ATOM     17  N   UNL     1      -0.951  -3.920   0.264  0.00  0.00    -0.279 N 
ATOM     18  C   UNL     1      -2.235  -4.125   0.619  0.00  0.00    +0.218 C 
ATOM     19  O   UNL     1      -2.967  -3.180   0.821  0.00  0.00    -0.275 OA
ATOM     20  H   UNL     1      -0.366  -4.677   0.102  0.00  0.00    +0.155 HD
BRANCH  18  21
ATOM     21  C   UNL     1      -2.761  -5.530   0.764  0.00  0.00    +0.097 C 
BRANCH  21  22
ATOM     22  C   UNL     1      -4.235  -5.483   1.172  0.00  0.00    +0.020 C 
BRANCH  22  23
ATOM     23  C   UNL     1      -4.770  -6.909   1.320  0.00  0.00    +0.075 C 
BRANCH  23  24
ATOM     24  S   UNL     1      -6.517  -6.853   1.803  0.00  0.00    -0.125 S 
BRANCH  24  25
ATOM     25  C   UNL     1      -6.979  -8.548   1.931  0.00  0.00    +0.008 A 
ATOM     26  C   UNL     1      -6.047  -9.544   1.667  0.00  0.00    +0.018 A 
ATOM     27  C   UNL     1      -6.409 -10.873   1.772  0.00  0.00    +0.047 A 
ATOM     28  C   UNL     1      -7.705 -11.213   2.131  0.00  0.00    +0.120 A 
ATOM     29  C   UNL     1      -8.637 -10.220   2.389  0.00  0.00    +0.047 A 
ATOM     30  C   UNL     1      -8.277  -8.890   2.290  0.00  0.00    +0.018 A 
BRANCH  28  31
ATOM     31  O   UNL     1      -8.061 -12.522   2.229  0.00  0.00    -0.495 OA
ATOM     32  C   UNL     1      -7.050 -13.492   1.949  0.00  0.00    +0.277 C 
ENDBRANCH  28  31
ENDBRANCH  24  25
ENDBRANCH  23  24
ENDBRANCH  22  23
ENDBRANCH  21  22
ENDBRANCH  18  21
ENDBRANCH   7  17
TORSDOF 8
