REMARK  Name = ZINC33376856
REMARK  6 active torsions:
REMARK  status: ('A' for Active; 'I' for Inactive)
REMARK    1  A    between atoms: C_4  and  C_7
REMARK    2  A    between atoms: C_7  and  C_8
REMARK    3  A    between atoms: C_14  and  S_16
REMARK    4  A    between atoms: S_16  and  C_17
REMARK    5  A    between atoms: N_23  and  C_29
REMARK    6  A    between atoms: C_29  and  C_30
REMARK                            x       y       z     vdW  Elec       q    Type
REMARK                         _______ _______ _______ _____ _____    ______ ____
ROOT
ATOM      1  S   UNL     1       2.050  -0.207   3.616  0.00  0.00    -0.095 S 
ENDROOT
BRANCH   1   8
ATOM      2  C   UNL     1       8.614   0.339   2.334  0.00  0.00    +0.223 C 
ATOM      3  O   UNL     1       8.124   1.074   1.503  0.00  0.00    -0.275 OA
ATOM      4  N   UNL     1       7.821  -0.322   3.201  0.00  0.00    -0.263 N 
ATOM      5  C   UNL     1       6.439  -0.161   3.141  0.00  0.00    +0.189 A 
ATOM      6  N   UNL     1       5.703   0.578   2.327  0.00  0.00    -0.125 NA
ATOM      7  N   UNL     1       4.445   0.607   2.405  0.00  0.00    -0.133 NA
ATOM      8  C   UNL     1       3.783  -0.093   3.314  0.00  0.00    +0.160 A 
ATOM      9  S   UNL     1       5.151  -0.897   4.144  0.00  0.00    -0.024 S 
ATOM     10  H   UNL     1       8.266  -0.988   3.955  0.00  0.00    +0.157 HD
BRANCH   2  11
ATOM     11  C   UNL     1      10.110   0.166   2.399  0.00  0.00    +0.131 C 
BRANCH  11  15
ATOM     12  C   UNL     1      11.953   2.550  -0.629  0.00  0.00    +0.000 A 
ATOM     13  C   UNL     1      11.727   3.081   0.627  0.00  0.00    +0.000 A 
ATOM     14  C   UNL     1      11.131   2.309   1.607  0.00  0.00    +0.004 A 
ATOM     15  C   UNL     1      10.760   1.007   1.331  0.00  0.00    -0.039 A 
ATOM     16  C   UNL     1      10.990   0.474   0.076  0.00  0.00    +0.004 A 
ATOM     17  C   UNL     1      11.582   1.247  -0.905  0.00  0.00    +0.000 A 
ENDBRANCH  11  15
ENDBRANCH   2  11
ENDBRANCH   1   8
BRANCH   1  18
ATOM     18  C   UNL     1       1.315   0.891   2.373  0.00  0.00    +0.041 C 
ATOM     19  C   UNL     1       1.640   2.376   2.723  0.00  0.00    +0.015 C 
ATOM     20  C   UNL     1       0.232   3.027   2.896  0.00  0.00    -0.015 C 
ATOM     21  C   UNL     1      -0.403   2.989   1.471  0.00  0.00    -0.073 C 
ATOM     22  N   UNL     1      -0.700   1.560   1.217  0.00  0.00    +0.386 N 
ATOM     23  C   UNL     1      -0.241   0.807   2.425  0.00  0.00    -0.041 C 
ATOM     24  C   UNL     1      -0.553   1.841   3.563  0.00  0.00    +0.046 C 
ATOM     25 BR   UNL     1       0.228   1.306   5.286  0.00  0.00    -0.089 Br
ATOM     26  H   UNL     1      -1.774   1.409   1.028  0.00  0.00    -0.081 HD
BRANCH  22  27
ATOM     27  C   UNL     1      -0.013   1.086   0.008  0.00  0.00    -0.043 C 
BRANCH  27  28
ATOM     28  C   UNL     1      -0.760   1.557  -1.213  0.00  0.00    -0.064 A 
ATOM     29  C   UNL     1      -1.758   0.771  -1.759  0.00  0.00    +0.002 A 
ATOM     30  C   UNL     1      -2.447   1.206  -2.876  0.00  0.00    +0.000 A 
ATOM     31  C   UNL     1      -2.131   2.422  -3.452  0.00  0.00    +0.000 A 
ATOM     32  C   UNL     1      -1.130   3.206  -2.909  0.00  0.00    +0.000 A 
ATOM     33  C   UNL     1      -0.444   2.773  -1.790  0.00  0.00    +0.002 A 
ENDBRANCH  27  28
ENDBRANCH  22  27
ENDBRANCH   1  18
TORSDOF 6
