REMARK  Name = ZINC15504238
REMARK  4 active torsions:
REMARK  status: ('A' for Active; 'I' for Inactive)
REMARK    1  A    between atoms: C_3  and  O_27
REMARK    2  A    between atoms: C_6  and  C_7
REMARK    3  A    between atoms: O_27  and  C_28
REMARK    4  A    between atoms: C_28  and  C_29
REMARK                            x       y       z     vdW  Elec       q    Type
REMARK                         _______ _______ _______ _____ _____    ______ ____
ROOT
ATOM      1  C   UNL     1      -1.293  -0.774   0.011  0.00  0.00    +0.209 C 
ATOM      2  N   UNL     1      -1.166  -1.967   0.868  0.00  0.00    -0.294 N 
ATOM      3  C   UNL     1      -0.590  -3.106   0.371  0.00  0.00    +0.160 C 
ATOM      4  N   UNL     1      -0.663  -3.412  -0.912  0.00  0.00    -0.302 N 
ATOM      5  C   UNL     1      -1.272  -2.538  -1.749  0.00  0.00    +0.213 A 
ATOM      6  N   UNL     1      -1.600  -1.257  -1.340  0.00  0.00    -0.286 N 
ATOM      7  C   UNL     1      -2.210  -0.620  -2.396  0.00  0.00    +0.076 A 
ATOM      8  C   UNL     1      -2.759   0.642  -2.581  0.00  0.00    +0.077 A 
ATOM      9  C   UNL     1      -3.310   0.981  -3.802  0.00  0.00    +0.164 A 
ATOM     10  C   UNL     1      -3.321   0.065  -4.849  0.00  0.00    +0.164 A 
ATOM     11  C   UNL     1      -2.781  -1.194  -4.683  0.00  0.00    +0.079 A 
ATOM     12  C   UNL     1      -2.220  -1.550  -3.453  0.00  0.00    +0.095 A 
ATOM     13  N   UNL     1      -1.625  -2.694  -2.998  0.00  0.00    -0.212 NA
ATOM     14  O   UNL     1      -3.870   0.420  -6.049  0.00  0.00    -0.488 OA
ATOM     15  C   UNL     1      -5.286   0.607  -6.058  0.00  0.00    +0.232 C 
ATOM     16  C   UNL     1      -5.648   2.013  -5.605  0.00  0.00    +0.082 C 
ATOM     17  C   UNL     1      -5.266   2.270  -4.156  0.00  0.00    +0.232 C 
ATOM     18  O   UNL     1      -3.849   2.222  -3.988  0.00  0.00    -0.488 OA
ATOM     19  N   UNL     1       0.077  -3.945   1.223  0.00  0.00    -0.332 N 
ATOM     20  H   UNL     1       0.137  -3.730   2.167  0.00  0.00    +0.145 HD
ATOM     21  H   UNL     1       0.488  -4.754   0.882  0.00  0.00    +0.145 HD
ATOM     22  H   UNL     1      -1.490  -1.945   1.782  0.00  0.00    +0.151 HD
ATOM     23  H   UNL     1      -0.291  -4.243  -1.247  0.00  0.00    +0.171 HD
ENDROOT
BRANCH   1  29
ATOM     24  C   UNL     1      -0.017   1.378   0.010  0.00  0.00    +0.011 A 
ATOM     25  C   UNL     1       1.169   2.087   0.002  0.00  0.00    +0.046 A 
ATOM     26  C   UNL     1       2.380   1.409  -0.013  0.00  0.00    +0.121 A 
ATOM     27  C   UNL     1       2.396   0.022  -0.021  0.00  0.00    +0.046 A 
ATOM     28  C   UNL     1       1.207  -0.681  -0.013  0.00  0.00    +0.011 A 
ATOM     29  C   UNL     1       0.002  -0.004   0.002  0.00  0.00    -0.007 A 
BRANCH  26  30
ATOM     30  O   UNL     1       3.548   2.104  -0.021  0.00  0.00    -0.483 OA
BRANCH  30  31
ATOM     31  C   UNL     1       4.756   1.341  -0.036  0.00  0.00    +0.324 C 
BRANCH  31  32
ATOM     32  C   UNL     1       5.940   2.274  -0.043  0.00  0.00    +0.248 C 
ATOM     33  O   UNL     1       5.766   3.474  -0.036  0.00  0.00    -0.272 OA
ATOM     34  N   UNL     1       7.192   1.774  -0.058  0.00  0.00    -0.327 N 
ATOM     35  H   UNL     1       7.331   0.814  -0.064  0.00  0.00    +0.145 HD
ATOM     36  H   UNL     1       7.953   2.375  -0.062  0.00  0.00    +0.145 HD
ENDBRANCH  31  32
ENDBRANCH  30  31
ENDBRANCH  26  30
ENDBRANCH   1  29
TORSDOF 4
