REMARK  Name = ZINC50441524
REMARK  9 active torsions:
REMARK  status: ('A' for Active; 'I' for Inactive)
REMARK    1  A    between atoms: C_1  and  C_2
REMARK    2  A    between atoms: C_2  and  C_3
REMARK    3  A    between atoms: C_2  and  N_4
REMARK    4  A    between atoms: N_4  and  C_5
REMARK    5  A    between atoms: C_5  and  C_7
REMARK    6  A    between atoms: C_5  and  C_20
REMARK    7  A    between atoms: C_7  and  O_8
REMARK    8  A    between atoms: O_8  and  C_9
REMARK    9  A    between atoms: C_12  and  N_16
REMARK                            x       y       z     vdW  Elec       q    Type
REMARK                         _______ _______ _______ _____ _____    ______ ____
ROOT
ATOM      1  C   UNL     1      -2.395  -1.884   0.220  0.00  0.00    +0.222 C 
ENDROOT
BRANCH   1   2
ATOM      2  C   UNL     1      -0.883  -1.714   0.058  0.00  0.00    +0.054 C 
BRANCH   2   3
ATOM      3  C   UNL     1      -0.197  -2.065   1.353  0.00  0.00    +0.200 C 
ATOM      4  O   UNL     1       0.070  -1.194   2.153  0.00  0.00    -0.278 OA
ATOM      5  N   UNL     1       0.120  -3.347   1.621  0.00  0.00    -0.331 N 
ATOM      6  H   UNL     1      -0.093  -4.044   0.981  0.00  0.00    +0.145 HD
ATOM      7  H   UNL     1       0.562  -3.573   2.454  0.00  0.00    +0.145 HD
ENDBRANCH   2   3
BRANCH   2   8
ATOM      8  N   UNL     1      -0.582  -0.320  -0.293  0.00  0.00    +0.390 N 
ATOM      9  H   UNL     1       0.417  -0.182  -0.297  0.00  0.00    -0.084 HD
ATOM     10  H   UNL     1      -1.004   0.297   0.385  0.00  0.00    -0.084 HD
BRANCH   8  12
ATOM     11  C   UNL     1      -0.906   1.457  -1.947  0.00  0.00    -0.014 C 
ATOM     12  C   UNL     1      -1.122  -0.023  -1.627  0.00  0.00    -0.077 C 
ATOM     13  C   UNL     1      -0.403  -0.881  -2.670  0.00  0.00    -0.014 C 
ENDBRANCH   8  12
ENDBRANCH   2   8
ENDBRANCH   1   2
BRANCH   1  14
ATOM     14  O   UNL     1      -2.845  -1.108   1.333  0.00  0.00    -0.491 OA
BRANCH  14  15
ATOM     15  C   UNL     1      -4.174  -1.148   1.616  0.00  0.00    +0.148 A 
ATOM     16  C   UNL     1      -5.038  -0.235   1.028  0.00  0.00    +0.063 A 
ATOM     17  C   UNL     1      -6.389  -0.278   1.317  0.00  0.00    +0.051 A 
ATOM     18  C   UNL     1      -6.880  -1.230   2.192  0.00  0.00    +0.129 A 
ATOM     19  C   UNL     1      -6.022  -2.141   2.779  0.00  0.00    +0.051 A 
ATOM     20  C   UNL     1      -4.670  -2.106   2.489  0.00  0.00    +0.063 A 
ATOM     21 BR   UNL     1      -3.498  -3.357   3.286  0.00  0.00    -0.046 Br
ATOM     22 BR   UNL     1      -4.368   1.069  -0.167  0.00  0.00    -0.046 Br
BRANCH  18  23
ATOM     23  N   UNL     1      -8.327  -1.273   2.500  0.00  0.00    +0.056 N 
ATOM     24  O   UNL     1      -9.079  -0.477   1.988  0.00  0.00    -0.126 OA
ATOM     25  O   UNL     1      -8.757  -2.105   3.265  0.00  0.00    -0.126 OA
ENDBRANCH  18  23
ENDBRANCH  14  15
ENDBRANCH   1  14
TORSDOF 7
