REMARK  Name = ZINC27346993
REMARK  13 active torsions:
REMARK  status: ('A' for Active; 'I' for Inactive)
REMARK    1  A    between atoms: C_1  and  C_2
REMARK    2  A    between atoms: C_2  and  C_3
REMARK    3  A    between atoms: C_3  and  O_4
REMARK    4  A    between atoms: O_4  and  C_5
REMARK    5  A    between atoms: C_8  and  C_11
REMARK    6  A    between atoms: C_11  and  C_12
REMARK    7  A    between atoms: C_11  and  C_20
REMARK    8  A    between atoms: C_11  and  O_35
REMARK    9  A    between atoms: C_17  and  O_18
REMARK   10  A    between atoms: O_18  and  C_19
REMARK   11  A    between atoms: C_20  and  C_22
REMARK   12  A    between atoms: C_20  and  C_29
REMARK   13  A    between atoms: C_22  and  N_23
REMARK                            x       y       z     vdW  Elec       q    Type
REMARK                         _______ _______ _______ _____ _____    ______ ____
ROOT
ATOM      1  C   UNL     1      -2.056   2.599   3.350  0.00  0.00    +0.124 C 
ENDROOT
BRANCH   1   5
ATOM      2  C   UNL     1       1.344   0.562   4.948  0.00  0.00    +0.121 A 
ATOM      3  C   UNL     1       0.078   0.300   5.451  0.00  0.00    +0.046 A 
ATOM      4  C   UNL     1      -1.020   0.960   4.932  0.00  0.00    +0.010 A 
ATOM      5  C   UNL     1      -0.857   1.881   3.914  0.00  0.00    -0.011 A 
ATOM      6  C   UNL     1       0.404   2.139   3.407  0.00  0.00    +0.010 A 
ATOM      7  C   UNL     1       1.505   1.486   3.926  0.00  0.00    +0.046 A 
BRANCH   2   8
ATOM      8  O   UNL     1       2.425  -0.086   5.457  0.00  0.00    -0.492 OA
BRANCH   8   9
ATOM      9  C   UNL     1       3.698   0.234   4.891  0.00  0.00    +0.229 C 
BRANCH   9  11
ATOM     10  C   UNL     1       6.149  -0.246   4.980  0.00  0.00    +0.007 C 
ATOM     11  C   UNL     1       4.786  -0.588   5.585  0.00  0.00    +0.038 C 
ENDBRANCH   9  11
ENDBRANCH   8   9
ENDBRANCH   2   8
ENDBRANCH   1   5
BRANCH   1  12
ATOM     12  C   UNL     1      -2.673   1.765   2.257  0.00  0.00    +0.030 A 
ATOM     13  C   UNL     1      -3.950   1.260   2.411  0.00  0.00    +0.010 A 
ATOM     14  C   UNL     1      -4.515   0.490   1.411  0.00  0.00    +0.001 A 
ATOM     15  C   UNL     1      -3.806   0.228   0.253  0.00  0.00    +0.004 A 
ATOM     16  C   UNL     1      -2.531   0.735   0.093  0.00  0.00    +0.046 A 
ATOM     17  C   UNL     1      -1.962   1.508   1.095  0.00  0.00    +0.126 A 
BRANCH  17  18
ATOM     18  O   UNL     1      -0.708   2.007   0.939  0.00  0.00    -0.495 OA
ATOM     19  C   UNL     1      -0.056   1.748  -0.306  0.00  0.00    +0.277 C 
ENDBRANCH  17  18
ENDBRANCH   1  12
BRANCH   1  20
ATOM     20  O   UNL     1      -3.015   2.811   4.388  0.00  0.00    -0.379 OA
ATOM     21  H   UNL     1      -3.962   3.324   4.165  0.00  0.00    +0.211 HD
ENDBRANCH   1  20
BRANCH   1  22
ATOM     22  C   UNL     1      -1.619   3.948   2.776  0.00  0.00    +0.043 C 
BRANCH  22  23
ATOM     23  C   UNL     1      -2.791   4.610   2.100  0.00  0.00    -0.043 A 
ATOM     24  C   UNL     1      -3.872   5.036   2.850  0.00  0.00    +0.004 A 
ATOM     25  C   UNL     1      -4.946   5.647   2.231  0.00  0.00    +0.000 A 
ATOM     26  C   UNL     1      -4.943   5.824   0.860  0.00  0.00    +0.000 A 
ATOM     27  C   UNL     1      -3.865   5.394   0.109  0.00  0.00    +0.000 A 
ATOM     28  C   UNL     1      -2.790   4.787   0.729  0.00  0.00    +0.004 A 
ENDBRANCH  22  23
BRANCH  22  29
ATOM     29  C   UNL     1      -1.111   4.843   3.909  0.00  0.00    -0.067 C 
BRANCH  29  30
ATOM     30  N   UNL     1      -0.580   6.092   3.345  0.00  0.00    +0.380 N 
ATOM     31  C   UNL     1       0.615   5.836   2.531  0.00  0.00    -0.079 C 
ATOM     32  C   UNL     1       1.054   7.132   1.845  0.00  0.00    -0.019 C 
ATOM     33  C   UNL     1       1.354   8.191   2.909  0.00  0.00    -0.004 C 
ATOM     34  C   UNL     1       0.108   8.404   3.773  0.00  0.00    -0.019 C 
ATOM     35  C   UNL     1      -0.303   7.071   4.404  0.00  0.00    -0.079 C 
ATOM     36  H   UNL     1      -1.349   6.521   2.685  0.00  0.00    -0.082 HD
ENDBRANCH  29  30
ENDBRANCH  22  29
ENDBRANCH   1  22
TORSDOF 11
