REMARK  Name = ZINC27467343
REMARK  12 active torsions:
REMARK  status: ('A' for Active; 'I' for Inactive)
REMARK    1  A    between atoms: C_1  and  C_2
REMARK    2  A    between atoms: C_2  and  C_28
REMARK    3  A    between atoms: C_4  and  N_10
REMARK    4  A    between atoms: C_6  and  C_8
REMARK    5  A    between atoms: C_6  and  C_9
REMARK    6  A    between atoms: C_11  and  C_13
REMARK    7  A    between atoms: C_14  and  C_15
REMARK    8  A    between atoms: N_17  and  C_18
REMARK    9  A    between atoms: C_20  and  C_26
REMARK   10  A    between atoms: C_20  and  C_27
REMARK   11  A    between atoms: C_22  and  C_24
REMARK   12  A    between atoms: C_22  and  C_25
REMARK                            x       y       z     vdW  Elec       q    Type
REMARK                         _______ _______ _______ _____ _____    ______ ____
ROOT
ATOM      1  C   UNL     1      -5.982  -0.907   1.259  0.00  0.00    +0.072 C 
ATOM      2  C   UNL     1      -6.976  -0.508   2.067  0.00  0.00    +0.072 C 
ENDROOT
BRANCH   1   4
ATOM      3  N   UNL     1      -3.618  -0.780   0.642  0.00  0.00    -0.309 N 
ATOM      4  C   UNL     1      -4.617  -0.379   1.453  0.00  0.00    +0.237 C 
ATOM      5  O   UNL     1      -4.394   0.417   2.343  0.00  0.00    -0.271 OA
ATOM      6  H   UNL     1      -3.796  -1.415  -0.069  0.00  0.00    +0.149 HD
BRANCH   3  10
ATOM      7  C   UNL     1      -0.079   1.705  -0.194  0.00  0.00    -0.010 C 
ATOM      8  C   UNL     1      -0.071   0.177  -0.310  0.00  0.00    -0.072 C 
ATOM      9  C   UNL     1      -1.497  -0.333  -0.488  0.00  0.00    +0.009 C 
ATOM     10  C   UNL     1      -2.260  -0.255   0.834  0.00  0.00    +0.071 C 
ATOM     11  C   UNL     1      -1.526  -1.118   1.860  0.00  0.00    +0.009 C 
ATOM     12  C   UNL     1      -0.100  -0.614   2.056  0.00  0.00    -0.072 C 
ATOM     13  N   UNL     1       0.623  -0.434   0.809  0.00  0.00    +0.386 N 
ATOM     14  C   UNL     1       0.655  -1.676   2.888  0.00  0.00    -0.010 C 
ATOM     15  C   UNL     1      -0.116   0.676   2.882  0.00  0.00    -0.010 C 
ATOM     16  C   UNL     1       0.710  -0.175  -1.598  0.00  0.00    -0.010 C 
ATOM     17  H   UNL     1       0.973  -1.349   0.507  0.00  0.00    -0.084 HD
ATOM     18  H   UNL     1       1.466   0.115   1.003  0.00  0.00    -0.084 HD
ENDBRANCH   3  10
ENDBRANCH   1   4
BRANCH   2  19
ATOM     19  C   UNL     1      -8.341  -1.036   1.874  0.00  0.00    +0.237 C 
ATOM     20  O   UNL     1      -8.564  -1.833   0.983  0.00  0.00    -0.271 OA
ATOM     21  N   UNL     1      -9.340  -0.635   2.685  0.00  0.00    -0.309 N 
ATOM     22  H   UNL     1      -9.162   0.000   3.396  0.00  0.00    +0.149 HD
BRANCH  21  23
ATOM     23  C   UNL     1     -10.698  -1.161   2.493  0.00  0.00    +0.071 C 
ATOM     24  C   UNL     1     -11.430  -0.297   1.464  0.00  0.00    +0.009 C 
ATOM     25  C   UNL     1     -12.850  -0.824   1.261  0.00  0.00    -0.072 C 
ATOM     26  N   UNL     1     -13.578  -0.934   2.517  0.00  0.00    +0.386 N 
ATOM     27  C   UNL     1     -12.898  -1.560   3.639  0.00  0.00    -0.072 C 
ATOM     28  C   UNL     1     -11.461  -1.082   3.814  0.00  0.00    +0.009 C 
ATOM     29  C   UNL     1     -12.932  -3.088   3.541  0.00  0.00    -0.010 C 
ATOM     30  C   UNL     1     -13.670  -1.173   4.924  0.00  0.00    -0.010 C 
ATOM     31  C   UNL     1     -12.819  -2.147   0.496  0.00  0.00    -0.010 C 
ATOM     32  C   UNL     1     -13.597   0.200   0.376  0.00  0.00    -0.010 C 
ATOM     33  H   UNL     1     -13.871   0.004   2.801  0.00  0.00    -0.084 HD
ATOM     34  H   UNL     1     -14.447  -1.444   2.341  0.00  0.00    -0.084 HD
ENDBRANCH  21  23
ENDBRANCH   2  19
TORSDOF 4
