REMARK  Name = ZINC66246732
REMARK  9 active torsions:
REMARK  status: ('A' for Active; 'I' for Inactive)
REMARK    1  A    between atoms: C_1  and  C_2
REMARK    2  A    between atoms: C_2  and  C_3
REMARK    3  A    between atoms: C_2  and  O_4
REMARK    4  A    between atoms: O_4  and  C_5
REMARK    5  A    between atoms: C_8  and  C_15
REMARK    6  A    between atoms: C_9  and  C_11
REMARK    7  A    between atoms: C_15  and  N_16
REMARK    8  A    between atoms: N_18  and  C_19
REMARK    9  A    between atoms: C_19  and  C_20
REMARK                            x       y       z     vdW  Elec       q    Type
REMARK                         _______ _______ _______ _____ _____    ______ ____
ROOT
ATOM      1  C   UNL     1      -2.307  -0.986   5.899  0.00  0.00    +0.151 C 
ENDROOT
BRANCH   1   2
ATOM      2  N   UNL     1      -2.156   0.229   6.705  0.00  0.00    -0.354 N 
ATOM      3  C   UNL     1      -2.802   0.335   7.915  0.00  0.00    +0.169 C 
ATOM      4  N   UNL     1      -2.668   1.415   8.632  0.00  0.00    -0.355 N 
ATOM      5  N   UNL     1      -3.588  -0.697   8.368  0.00  0.00    -0.371 N 
ATOM      6  H   UNL     1      -1.601   0.957   6.386  0.00  0.00    +0.163 HD
ATOM      7  H   UNL     1      -3.688  -1.501   7.834  0.00  0.00    +0.159 HD
ATOM      8  H   UNL     1      -4.044  -0.622   9.221  0.00  0.00    +0.159 HD
ATOM      9  H   UNL     1      -2.113   2.144   8.312  0.00  0.00    +0.162 HD
BRANCH   4  10
ATOM     10  C   UNL     1      -3.356   1.529   9.920  0.00  0.00    +0.147 C 
BRANCH  10  11
ATOM     11  C   UNL     1      -3.033   2.885  10.553  0.00  0.00    +0.137 C 
ATOM     12  C   UNL     1      -3.723   3.011  11.934  0.00  0.00    +0.035 C 
ATOM     13  C   UNL     1      -2.802   4.051  12.629  0.00  0.00    +0.031 C 
ATOM     14  C   UNL     1      -1.415   3.699  12.049  0.00  0.00    +0.160 C 
ATOM     15  O   UNL     1      -1.626   2.986  10.823  0.00  0.00    -0.375 OA
ENDBRANCH  10  11
ENDBRANCH   4  10
ENDBRANCH   1   2
BRANCH   1  19
ATOM     16  C   UNL     1      -0.031  -0.600   2.303  0.00  0.00    +0.121 A 
ATOM     17  C   UNL     1      -1.400  -0.376   2.286  0.00  0.00    +0.046 A 
ATOM     18  C   UNL     1      -2.133  -0.502   3.450  0.00  0.00    +0.009 A 
ATOM     19  C   UNL     1      -1.504  -0.850   4.631  0.00  0.00    -0.016 A 
ATOM     20  C   UNL     1      -0.140  -1.072   4.651  0.00  0.00    +0.063 A 
ATOM     21  C   UNL     1       0.597  -0.954   3.489  0.00  0.00    +0.058 A 
BRANCH  20  22
ATOM     22  C   UNL     1       0.543  -1.450   5.940  0.00  0.00    +0.418 C 
ATOM     23  F   UNL     1       1.912  -1.622   5.710  0.00  0.00    -0.166 F 
ATOM     24  F   UNL     1       0.352  -0.436   6.884  0.00  0.00    -0.166 F 
ATOM     25  F   UNL     1      -0.002  -2.645   6.423  0.00  0.00    -0.166 F 
ENDBRANCH  20  22
BRANCH  16  26
ATOM     26  O   UNL     1       0.693  -0.477   1.160  0.00  0.00    -0.489 OA
BRANCH  26  28
ATOM     27  C   UNL     1      -0.292   1.273  -0.184  0.00  0.00    +0.051 C 
ATOM     28  C   UNL     1      -0.034  -0.229  -0.045  0.00  0.00    +0.167 C 
ATOM     29  C   UNL     1       0.781  -0.720  -1.243  0.00  0.00    +0.051 C 
ENDBRANCH  26  28
ENDBRANCH  16  26
ENDBRANCH   1  19
TORSDOF 7
