REMARK  Name = ZINC21263523
REMARK  11 active torsions:
REMARK  status: ('A' for Active; 'I' for Inactive)
REMARK    1  A    between atoms: C_1  and  C_2
REMARK    2  A    between atoms: C_2  and  C_29
REMARK    3  A    between atoms: C_4  and  N_10
REMARK    4  A    between atoms: C_6  and  C_8
REMARK    5  A    between atoms: C_6  and  C_9
REMARK    6  A    between atoms: N_10  and  C_11
REMARK    7  A    between atoms: C_11  and  N_13
REMARK    8  A    between atoms: N_13  and  C_14
REMARK    9  A    between atoms: N_13  and  C_22
REMARK   10  A    between atoms: C_14  and  C_15
REMARK   11  A    between atoms: C_22  and  C_23
REMARK                            x       y       z     vdW  Elec       q    Type
REMARK                         _______ _______ _______ _____ _____    ______ ____
ROOT
ATOM      1  C   UNL     1      -3.741   1.015   3.602  0.00  0.00    +0.133 C 
ATOM      2  S   UNL     1      -3.615   0.525   5.238  0.00  0.00    -0.019 S 
ENDROOT
BRANCH   1   3
ATOM      3  N   UNL     1      -4.702   0.492   2.815  0.00  0.00    -0.324 N 
ATOM      4  H   UNL     1      -4.784   0.806   1.764  0.00  0.00    +0.148 HD
BRANCH   3   8
ATOM      5  C   UNL     1      -8.467  -1.011   4.452  0.00  0.00    -0.010 C 
ATOM      6  C   UNL     1      -7.925  -1.486   3.105  0.00  0.00    -0.072 C 
ATOM      7  C   UNL     1      -6.936  -0.461   2.546  0.00  0.00    +0.009 C 
ATOM      8  C   UNL     1      -5.641  -0.497   3.360  0.00  0.00    +0.069 C 
ATOM      9  C   UNL     1      -5.028  -1.892   3.240  0.00  0.00    +0.009 C 
ATOM     10  C   UNL     1      -6.000  -2.955   3.747  0.00  0.00    -0.072 C 
ATOM     11  N   UNL     1      -7.333  -2.810   3.192  0.00  0.00    +0.386 N 
ATOM     12  C   UNL     1      -6.023  -2.948   5.278  0.00  0.00    -0.010 C 
ATOM     13  C   UNL     1      -5.449  -4.331   3.305  0.00  0.00    -0.010 C 
ATOM     14  C   UNL     1      -9.117  -1.560   2.125  0.00  0.00    -0.010 C 
ATOM     15  H   UNL     1      -7.963  -3.453   3.823  0.00  0.00    -0.084 HD
ATOM     16  H   UNL     1      -7.258  -3.245   2.184  0.00  0.00    -0.084 HD
ENDBRANCH   3   8
ENDBRANCH   1   3
BRANCH   1  17
ATOM     17  N   UNL     1      -2.880   1.922   3.102  0.00  0.00    -0.306 N 
BRANCH  17  18
ATOM     18  C   UNL     1      -1.835   2.490   3.957  0.00  0.00    +0.142 C 
BRANCH  18  19
ATOM     19  C   UNL     1      -2.358   3.732   4.632  0.00  0.00    -0.027 A 
ATOM     20  C   UNL     1      -2.202   4.965   4.027  0.00  0.00    +0.005 A 
ATOM     21  C   UNL     1      -2.686   6.104   4.642  0.00  0.00    +0.003 A 
ATOM     22  C   UNL     1      -3.317   6.013   5.868  0.00  0.00    +0.038 A 
ATOM     23  C   UNL     1      -3.469   4.780   6.478  0.00  0.00    +0.124 A 
ATOM     24  C   UNL     1      -2.989   3.638   5.858  0.00  0.00    +0.043 A 
ATOM     25  F   UNL     1      -4.085   4.689   7.677  0.00  0.00    -0.205 F 
ENDBRANCH  18  19
ENDBRANCH  17  18
BRANCH  17  26
ATOM     26  C   UNL     1      -2.988   2.341   1.702  0.00  0.00    +0.138 C 
BRANCH  26  27
ATOM     27  C   UNL     1      -2.131   1.423   0.827  0.00  0.00    +0.136 C 
ATOM     28  C   UNL     1      -2.230   1.847  -0.655  0.00  0.00    +0.035 C 
ATOM     29  C   UNL     1      -0.804   1.620  -1.206  0.00  0.00    +0.031 C 
ATOM     30  C   UNL     1      -0.013   1.086   0.008  0.00  0.00    +0.160 C 
ATOM     31  O   UNL     1      -0.731   1.573   1.163  0.00  0.00    -0.375 OA
ENDBRANCH  26  27
ENDBRANCH  17  26
ENDBRANCH   1  17
TORSDOF 7
