REMARK  Name = ZINC39534236
REMARK  11 active torsions:
REMARK  status: ('A' for Active; 'I' for Inactive)
REMARK    1  A    between atoms: C_1  and  O_2
REMARK    2  A    between atoms: O_2  and  N_3
REMARK    3  A    between atoms: N_3  and  C_4
REMARK    4  A    between atoms: C_4  and  C_5
REMARK    5  A    between atoms: C_5  and  C_7
REMARK    6  A    between atoms: C_5  and  N_23
REMARK    7  A    between atoms: C_10  and  S_13
REMARK    8  A    between atoms: S_13  and  O_16
REMARK    9  A    between atoms: O_16  and  C_17
REMARK   10  A    between atoms: C_27  and  C_30
REMARK   11  A    between atoms: C_35  and  O_36
REMARK                            x       y       z     vdW  Elec       q    Type
REMARK                         _______ _______ _______ _____ _____    ______ ____
ROOT
ATOM      1  C   UNL     1       1.502  -2.643   2.221  0.00  0.00    +0.103 C 
ENDROOT
BRANCH   1   2
ATOM      2  N   UNL     1       0.933  -2.193   3.499  0.00  0.00    -0.297 NA
ATOM      3  C   UNL     1      -0.512  -1.956   3.377  0.00  0.00    +0.066 C 
ATOM      4  C   UNL     1      -1.076  -1.548   4.740  0.00  0.00    -0.066 C 
ATOM      5  N   UNL     1      -0.400  -0.329   5.204  0.00  0.00    +0.385 N 
ATOM      6  C   UNL     1       1.039  -0.588   5.344  0.00  0.00    -0.023 C 
ATOM      7  C   UNL     1       1.620  -0.988   3.986  0.00  0.00    +0.074 C 
ATOM      8  H   UNL     1      -0.545   0.411   4.534  0.00  0.00    -0.085 HD
ATOM      9  H   UNL     1      -0.780  -0.053   6.097  0.00  0.00    -0.085 HD
BRANCH   6  10
ATOM     10  C   UNL     1       1.728   0.659   5.837  0.00  0.00    -0.019 A 
ATOM     11  C   UNL     1       1.114   1.889   5.698  0.00  0.00    +0.005 A 
ATOM     12  C   UNL     1       1.746   3.033   6.149  0.00  0.00    +0.000 A 
ATOM     13  C   UNL     1       2.993   2.949   6.741  0.00  0.00    +0.004 A 
ATOM     14  C   UNL     1       3.610   1.722   6.883  0.00  0.00    +0.045 A 
ATOM     15  C   UNL     1       2.976   0.572   6.435  0.00  0.00    +0.118 A 
BRANCH  15  16
ATOM     16  O   UNL     1       3.579  -0.638   6.579  0.00  0.00    -0.507 OA
ATOM     17  H   UNL     1       4.139  -0.889   5.831  0.00  0.00    +0.292 HD
ENDBRANCH  15  16
ENDBRANCH   6  10
ENDBRANCH   1   2
BRANCH   1  18
ATOM     18  C   UNL     1       1.458  -4.148   2.154  0.00  0.00    -0.029 A 
ATOM     19  C   UNL     1       0.314  -4.823   2.535  0.00  0.00    +0.007 A 
ATOM     20  C   UNL     1       0.273  -6.203   2.474  0.00  0.00    +0.031 A 
ATOM     21  C   UNL     1       1.376  -6.908   2.030  0.00  0.00    +0.128 A 
ATOM     22  C   UNL     1       2.520  -6.233   1.648  0.00  0.00    +0.031 A 
ATOM     23  C   UNL     1       2.559  -4.852   1.706  0.00  0.00    +0.007 A 
BRANCH  21  24
ATOM     24  S   UNL     1       1.325  -8.668   1.952  0.00  0.00    +0.151 S 
ATOM     25  O   UNL     1       2.671  -9.117   2.022  0.00  0.00    -0.131 OA
ATOM     26  O   UNL     1       0.333  -9.086   2.881  0.00  0.00    -0.131 OA
BRANCH  24  27
ATOM     27  O   UNL     1       0.811  -9.043   0.570  0.00  0.00    -0.342 OA
BRANCH  27  28
ATOM     28  C   UNL     1       1.727  -8.882  -0.422  0.00  0.00    +0.157 A 
ATOM     29  C   UNL     1       1.822  -7.670  -1.091  0.00  0.00    +0.048 A 
ATOM     30  C   UNL     1       2.753  -7.509  -2.098  0.00  0.00    +0.004 A 
ATOM     31  C   UNL     1       3.591  -8.555  -2.440  0.00  0.00    +0.000 A 
ATOM     32  C   UNL     1       3.498  -9.764  -1.776  0.00  0.00    +0.004 A 
ATOM     33  C   UNL     1       2.572  -9.928  -0.763  0.00  0.00    +0.048 A 
ENDBRANCH  27  28
ENDBRANCH  24  27
ENDBRANCH  21  24
ENDBRANCH   1  18
BRANCH   1  34
ATOM     34  C   UNL     1       0.689  -2.056   1.066  0.00  0.00    +0.134 C 
BRANCH  34  35
ATOM     35  N   UNL     1       0.787  -0.591   1.092  0.00  0.00    -0.200 NA
ATOM     36  H   UNL     1       0.413  -0.219   1.952  0.00  0.00    +0.154 HD
BRANCH  35  38
ATOM     37  C   UNL     1       0.176   1.427  -0.107  0.00  0.00    +0.221 C 
ATOM     38  O   UNL     1       0.119   0.000  -0.068  0.00  0.00    -0.303 OA
ENDBRANCH  35  38
ENDBRANCH  34  35
ENDBRANCH   1  34
TORSDOF 10
