REMARK  Name = ZINC48242945
REMARK  9 active torsions:
REMARK  status: ('A' for Active; 'I' for Inactive)
REMARK    1  A    between atoms: C_1  and  C_2
REMARK    2  A    between atoms: C_2  and  N_3
REMARK    3  A    between atoms: C_4  and  C_6
REMARK    4  A    between atoms: C_6  and  C_8
REMARK    5  A    between atoms: C_6  and  N_9
REMARK    6  A    between atoms: C_10  and  C_12
REMARK    7  A    between atoms: C_12  and  C_14
REMARK    8  A    between atoms: C_12  and  S_15
REMARK    9  A    between atoms: S_15  and  C_16
REMARK                            x       y       z     vdW  Elec       q    Type
REMARK                         _______ _______ _______ _____ _____    ______ ____
ROOT
ATOM      1  N   UNL     1       2.159  -3.263  -3.567  0.00  0.00    -0.303 N 
ATOM      2  C   UNL     1       2.051  -4.253  -4.476  0.00  0.00    +0.227 C 
ATOM      3  O   UNL     1       2.155  -4.004  -5.659  0.00  0.00    -0.275 OA
ATOM      4  H   UNL     1       2.076  -3.462  -2.622  0.00  0.00    +0.149 HD
ENDROOT
BRANCH   1   5
ATOM      5  C   UNL     1       2.400  -1.887  -4.008  0.00  0.00    +0.156 C 
ATOM      6  C   UNL     1       3.902  -1.670  -4.205  0.00  0.00    +0.038 C 
BRANCH   5   8
ATOM      7  N   UNL     1       2.002   0.401  -3.156  0.00  0.00    -0.314 N 
ATOM      8  C   UNL     1       1.887  -0.928  -2.965  0.00  0.00    +0.233 C 
ATOM      9  O   UNL     1       1.370  -1.352  -1.953  0.00  0.00    -0.274 OA
ATOM     10  H   UNL     1       2.415   0.741  -3.966  0.00  0.00    +0.149 HD
BRANCH   7  12
ATOM     11  C   UNL     1       1.754   2.770  -2.603  0.00  0.00    +0.024 C 
ATOM     12  C   UNL     1       1.502   1.333  -2.143  0.00  0.00    +0.101 C 
ENDBRANCH   7  12
ENDBRANCH   5   8
ENDBRANCH   1   5
BRANCH   2  13
ATOM     13  C   UNL     1       1.803  -5.668  -4.023  0.00  0.00    +0.134 C 
ATOM     14  C   UNL     1       3.119  -6.292  -3.555  0.00  0.00    +0.029 C 
BRANCH  13  15
ATOM     15  S   UNL     1       1.131  -6.636  -5.403  0.00  0.00    -0.113 S 
BRANCH  15  16
ATOM     16  C   UNL     1      -0.478  -5.963  -5.652  0.00  0.00    +0.009 A 
ATOM     17  C   UNL     1      -0.975  -5.005  -4.776  0.00  0.00    +0.016 A 
ATOM     18  C   UNL     1      -2.237  -4.480  -4.974  0.00  0.00    +0.016 A 
ATOM     19  C   UNL     1      -3.006  -4.906  -6.043  0.00  0.00    +0.018 A 
ATOM     20  C   UNL     1      -2.514  -5.860  -6.916  0.00  0.00    +0.016 A 
ATOM     21  C   UNL     1      -1.251  -6.385  -6.727  0.00  0.00    +0.016 A 
ATOM     22 BR   UNL     1      -4.733  -4.184  -6.310  0.00  0.00    -0.050 Br
ENDBRANCH  15  16
ENDBRANCH  13  15
ENDBRANCH   2  13
TORSDOF 6
