REMARK  Name = ZINC41601594
REMARK  7 active torsions:
REMARK  status: ('A' for Active; 'I' for Inactive)
REMARK    1  A    between atoms: C_1  and  C_2
REMARK    2  A    between atoms: C_2  and  C_24
REMARK    3  A    between atoms: C_4  and  N_10
REMARK    4  A    between atoms: C_6  and  C_8
REMARK    5  A    between atoms: C_6  and  C_9
REMARK    6  A    between atoms: C_15  and  C_18
REMARK    7  A    between atoms: C_18  and  C_19
REMARK                            x       y       z     vdW  Elec       q    Type
REMARK                         _______ _______ _______ _____ _____    ______ ____
ROOT
ATOM      1  N   UNL     1       1.633  -2.333  -2.511  0.00  0.00    -0.311 N 
ATOM      2  C   UNL     1       1.547  -3.624  -2.961  0.00  0.00    +0.213 A 
ATOM      3  N   UNL     1       0.854  -4.505  -2.269  0.00  0.00    -0.175 NA
ATOM      4  C   UNL     1       0.754  -5.773  -2.687  0.00  0.00    +0.297 A 
ATOM      5  O   UNL     1       0.110  -6.586  -2.042  0.00  0.00    -0.264 OA
ATOM      6  C   UNL     1       1.423  -6.177  -3.926  0.00  0.00    +0.135 A 
ATOM      7  N   UNL     1       2.103  -5.285  -4.595  0.00  0.00    -0.170 NA
ATOM      8  N   UNL     1       2.171  -3.970  -4.115  0.00  0.00    -0.248 N 
ATOM      9  H   UNL     1       2.137  -1.676  -3.016  0.00  0.00    +0.149 HD
ATOM     10  H   UNL     1       2.672  -3.303  -4.610  0.00  0.00    +0.192 HD
ENDROOT
BRANCH   1  14
ATOM     11  C   UNL     1      -0.019   1.542   0.011  0.00  0.00    -0.010 C 
ATOM     12  C   UNL     1       0.002  -0.004   0.002  0.00  0.00    -0.072 C 
ATOM     13  C   UNL     1       0.670  -0.443  -1.297  0.00  0.00    +0.009 C 
ATOM     14  C   UNL     1       0.963  -1.944  -1.265  0.00  0.00    +0.071 C 
ATOM     15  C   UNL     1       1.892  -2.223  -0.084  0.00  0.00    +0.009 C 
ATOM     16  C   UNL     1       1.233  -1.798   1.224  0.00  0.00    -0.072 C 
ATOM     17  N   UNL     1       0.711  -0.443   1.191  0.00  0.00    +0.386 N 
ATOM     18  C   UNL     1       2.314  -1.859   2.328  0.00  0.00    -0.010 C 
ATOM     19  C   UNL     1       0.143  -2.805   1.606  0.00  0.00    -0.010 C 
ATOM     20  C   UNL     1      -1.457  -0.473   0.018  0.00  0.00    -0.010 C 
ATOM     21  H   UNL     1       1.489   0.204   1.356  0.00  0.00    -0.084 HD
ATOM     22  H   UNL     1       0.093  -0.317   1.998  0.00  0.00    -0.084 HD
ENDBRANCH   1  14
BRANCH   6  23
ATOM     23  C   UNL     1       1.328  -7.597  -4.421  0.00  0.00    +0.137 C 
BRANCH  23  24
ATOM     24  C   UNL     1       2.103  -7.734  -5.706  0.00  0.00    +0.111 A 
ATOM     25  C   UNL     1       3.401  -8.069  -5.810  0.00  0.00    +0.045 A 
ATOM     26  C   UNL     1       3.712  -8.080  -7.189  0.00  0.00    +0.041 A 
ATOM     27  C   UNL     1       2.585  -7.752  -7.846  0.00  0.00    +0.195 A 
ATOM     28  O   UNL     1       1.612  -7.549  -6.943  0.00  0.00    -0.467 OA
ENDBRANCH  23  24
ENDBRANCH   6  23
TORSDOF 3
