REMARK  Name = ZINC06881956
REMARK  11 active torsions:
REMARK  status: ('A' for Active; 'I' for Inactive)
REMARK    1  A    between atoms: C_1  and  C_2
REMARK    2  A    between atoms: C_2  and  C_3
REMARK    3  A    between atoms: C_6  and  C_9
REMARK    4  A    between atoms: C_9  and  C_11
REMARK    5  A    between atoms: C_9  and  N_12
REMARK    6  A    between atoms: C_13  and  C_15
REMARK    7  A    between atoms: C_15  and  N_53
REMARK    8  A    between atoms: C_16  and  N_53
REMARK    9  A    between atoms: C_17  and  C_18
REMARK   10  A    between atoms: C_17  and  N_53
REMARK   11  A    between atoms: N_20  and  C_21
REMARK                            x       y       z     vdW  Elec       q    Type
REMARK                         _______ _______ _______ _____ _____    ______ ____
ROOT
ATOM      1  C   UNL     1       2.619   1.053  -3.176  0.00  0.00    -0.095 C 
ATOM      2  N   UNL     1       3.249   2.358  -2.887  0.00  0.00    +0.389 N 
ATOM      3  H   UNL     1       3.903   2.588  -3.644  0.00  0.00    -0.081 HD
ENDROOT
BRANCH   2   4
ATOM      4  C   UNL     1       2.215   3.412  -2.809  0.00  0.00    +0.019 C 
BRANCH   4   6
ATOM      5  N   UNL     1       0.668   4.546  -4.370  0.00  0.00    -0.310 N 
ATOM      6  C   UNL     1       1.622   3.614  -4.179  0.00  0.00    +0.197 C 
ATOM      7  O   UNL     1       2.008   2.941  -5.112  0.00  0.00    -0.278 OA
ATOM      8  H   UNL     1       0.360   5.084  -3.625  0.00  0.00    +0.149 HD
BRANCH   5   9
ATOM      9  C   UNL     1       0.096   4.746  -5.704  0.00  0.00    +0.100 C 
ATOM     10  C   UNL     1       0.984   5.704  -6.502  0.00  0.00    +0.033 C 
BRANCH   9  14
ATOM     11  C   UNL     1      -3.822   6.409  -5.338  0.00  0.00    -0.048 A 
ATOM     12  C   UNL     1      -3.569   5.438  -6.289  0.00  0.00    +0.004 A 
ATOM     13  C   UNL     1      -2.301   4.900  -6.408  0.00  0.00    +0.006 A 
ATOM     14  C   UNL     1      -1.286   5.333  -5.575  0.00  0.00    -0.027 A 
ATOM     15  C   UNL     1      -1.540   6.300  -4.621  0.00  0.00    +0.006 A 
ATOM     16  C   UNL     1      -2.807   6.842  -4.506  0.00  0.00    +0.004 A 
BRANCH  11  18
ATOM     17  C   UNL     1      -6.017   6.169  -4.210  0.00  0.00    +0.009 C 
ATOM     18  C   UNL     1      -5.204   6.995  -5.208  0.00  0.00    +0.032 C 
ENDBRANCH  11  18
ENDBRANCH   9  14
ENDBRANCH   5   9
ENDBRANCH   4   6
ENDBRANCH   2   4
BRANCH   2  19
ATOM     19  C   UNL     1       3.995   2.288  -1.613  0.00  0.00    +0.019 C 
BRANCH  19  20
ATOM     20  C   UNL     1       5.176   1.369  -1.791  0.00  0.00    +0.201 C 
ATOM     21  O   UNL     1       5.362   0.821  -2.858  0.00  0.00    -0.278 OA
ATOM     22  N   UNL     1       6.025   1.155  -0.767  0.00  0.00    -0.285 N 
ATOM     23  H   UNL     1       5.918   1.648   0.062  0.00  0.00    +0.155 HD
BRANCH  22  24
ATOM     24  C   UNL     1       7.060   0.221  -0.898  0.00  0.00    +0.070 A 
ATOM     25  C   UNL     1       6.845  -1.109  -0.562  0.00  0.00    +0.064 A 
ATOM     26  C   UNL     1       7.868  -2.029  -0.697  0.00  0.00    +0.022 A 
ATOM     27  C   UNL     1       9.107  -1.624  -1.157  0.00  0.00    +0.003 A 
ATOM     28  C   UNL     1       9.327  -0.299  -1.488  0.00  0.00    +0.022 A 
ATOM     29  C   UNL     1       8.307   0.625  -1.360  0.00  0.00    +0.064 A 
ATOM     30 CL   UNL     1       8.584   2.288  -1.774  0.00  0.00    -0.082 Cl
ATOM     31 CL   UNL     1       5.291  -1.618   0.022  0.00  0.00    -0.082 Cl
ENDBRANCH  22  24
ENDBRANCH  19  20
ENDBRANCH   2  19
TORSDOF 8
