REMARK  Name = ZINC36587102
REMARK  15 active torsions:
REMARK  status: ('A' for Active; 'I' for Inactive)
REMARK    1  A    between atoms: C_1  and  C_2
REMARK    2  A    between atoms: C_5  and  C_8
REMARK    3  A    between atoms: C_8  and  C_10
REMARK    4  A    between atoms: C_8  and  N_24
REMARK    5  A    between atoms: N_12  and  C_13
REMARK    6  A    between atoms: C_13  and  S_14
REMARK    7  A    between atoms: S_14  and  C_17
REMARK    8  A    between atoms: C_20  and  C_23
REMARK    9  A    between atoms: N_24  and  C_35
REMARK   10  A    between atoms: C_25  and  C_27
REMARK   11  A    between atoms: C_31  and  O_34
REMARK   12  A    between atoms: C_32  and  O_33
REMARK   13  A    between atoms: C_35  and  C_36
REMARK   14  A    between atoms: C_35  and  C_37
REMARK   15  A    between atoms: C_35  and  C_38
REMARK                            x       y       z     vdW  Elec       q    Type
REMARK                         _______ _______ _______ _____ _____    ______ ____
ROOT
ATOM      1  C   UNL     1       0.580  -5.746   2.520  0.00  0.00    +0.193 C 
ENDROOT
BRANCH   1   6
ATOM      2  C   UNL     1      -4.099  -2.472   1.639  0.00  0.00    +0.044 C 
ATOM      3  C   UNL     1      -2.879  -3.326   1.869  0.00  0.00    -0.050 A 
ATOM      4  C   UNL     1      -2.909  -4.672   1.557  0.00  0.00    +0.004 A 
ATOM      5  C   UNL     1      -1.789  -5.455   1.768  0.00  0.00    +0.006 A 
ATOM      6  C   UNL     1      -0.640  -4.892   2.290  0.00  0.00    -0.018 A 
ATOM      7  C   UNL     1      -0.610  -3.545   2.600  0.00  0.00    +0.006 A 
ATOM      8  C   UNL     1      -1.728  -2.761   2.386  0.00  0.00    +0.004 A 
ENDBRANCH   1   6
BRANCH   1   9
ATOM      9  C   UNL     1       0.602  -6.215   3.952  0.00  0.00    +0.239 C 
ATOM     10  O   UNL     1       1.615  -6.106   4.611  0.00  0.00    -0.273 OA
ATOM     11  N   UNL     1      -0.504  -6.755   4.502  0.00  0.00    -0.294 N 
ATOM     12  H   UNL     1      -1.314  -6.842   3.975  0.00  0.00    +0.150 HD
BRANCH  11  13
ATOM     13  C   UNL     1      -0.483  -7.210   5.894  0.00  0.00    +0.278 C 
BRANCH  13  14
ATOM     14  S   UNL     1      -1.116  -5.895   6.970  0.00  0.00    +0.013 S 
ATOM     15  O   UNL     1      -1.161  -6.344   8.318  0.00  0.00    -0.168 OA
ATOM     16  O   UNL     1      -0.505  -4.655   6.640  0.00  0.00    -0.168 OA
BRANCH  14  17
ATOM     17  C   UNL     1      -2.804  -5.702   6.504  0.00  0.00    +0.090 A 
ATOM     18  C   UNL     1      -3.148  -4.812   5.504  0.00  0.00    +0.027 A 
ATOM     19  C   UNL     1      -4.473  -4.661   5.138  0.00  0.00    +0.005 A 
ATOM     20  C   UNL     1      -5.453  -5.400   5.772  0.00  0.00    -0.050 A 
ATOM     21  C   UNL     1      -5.110  -6.291   6.771  0.00  0.00    +0.005 A 
ATOM     22  C   UNL     1      -3.785  -6.445   7.134  0.00  0.00    +0.027 A 
ATOM     23  C   UNL     1      -6.897  -5.234   5.374  0.00  0.00    +0.044 C 
ENDBRANCH  14  17
ENDBRANCH  13  14
ENDBRANCH  11  13
ENDBRANCH   1   9
BRANCH   1  24
ATOM     24  N   UNL     1       1.786  -4.960   2.245  0.00  0.00    -0.277 N 
ATOM     25  C   UNL     1       2.395  -4.290   3.243  0.00  0.00    +0.252 C 
ATOM     26  O   UNL     1       1.736  -3.808   4.143  0.00  0.00    -0.270 OA
BRANCH  25  27
ATOM     27  C   UNL     1       3.863  -4.141   3.242  0.00  0.00    +0.082 A 
ATOM     28  C   UNL     1       4.587  -4.324   2.060  0.00  0.00    +0.017 A 
ATOM     29  C   UNL     1       5.958  -4.183   2.064  0.00  0.00    +0.005 A 
ATOM     30  C   UNL     1       6.625  -3.861   3.234  0.00  0.00    +0.049 A 
ATOM     31  C   UNL     1       5.922  -3.678   4.412  0.00  0.00    +0.159 A 
ATOM     32  C   UNL     1       4.537  -3.810   4.424  0.00  0.00    +0.171 A 
BRANCH  32  33
ATOM     33  O   UNL     1       3.843  -3.625   5.576  0.00  0.00    -0.503 OA
ATOM     34  H   UNL     1       3.729  -4.429   6.100  0.00  0.00    +0.292 HD
ENDBRANCH  32  33
BRANCH  31  35
ATOM     35  O   UNL     1       6.585  -3.362   5.557  0.00  0.00    -0.503 OA
ATOM     36  H   UNL     1       6.689  -2.412   5.702  0.00  0.00    +0.292 HD
ENDBRANCH  31  35
ENDBRANCH  25  27
BRANCH  24  37
ATOM     37  C   UNL     1       2.328  -4.903   0.885  0.00  0.00    +0.030 C 
ATOM     38  C   UNL     1       1.193  -5.080  -0.125  0.00  0.00    +0.031 C 
ATOM     39  C   UNL     1       3.002  -3.548   0.662  0.00  0.00    +0.031 C 
ATOM     40  C   UNL     1       3.356  -6.021   0.699  0.00  0.00    +0.031 C 
ENDBRANCH  24  37
ENDBRANCH   1  24
TORSDOF 10
