REMARK  Name = ZINC20108246
REMARK  10 active torsions:
REMARK  status: ('A' for Active; 'I' for Inactive)
REMARK    1  A    between atoms: C_1  and  C_2
REMARK    2  A    between atoms: C_2  and  C_3
REMARK    3  A    between atoms: C_2  and  C_4
REMARK    4  A    between atoms: C_7  and  N_10
REMARK    5  A    between atoms: C_11  and  C_13
REMARK    6  A    between atoms: C_13  and  C_15
REMARK    7  A    between atoms: C_13  and  N_27
REMARK    8  A    between atoms: C_20  and  N_21
REMARK    9  A    between atoms: C_30  and  C_33
REMARK   10  A    between atoms: C_33  and  C_34
REMARK                            x       y       z     vdW  Elec       q    Type
REMARK                         _______ _______ _______ _____ _____    ______ ____
ROOT
ATOM      1  C   UNL     1       1.532   3.304   0.310  0.00  0.00    +0.053 C 
ENDROOT
BRANCH   1   2
ATOM      2  C   UNL     1       1.413   1.809   0.161  0.00  0.00    -0.018 A 
ATOM      3  C   UNL     1       2.492   0.998   0.458  0.00  0.00    +0.054 A 
ATOM      4  C   UNL     1       2.385  -0.376   0.321  0.00  0.00    +0.167 A 
ATOM      5  C   UNL     1       1.187  -0.938  -0.117  0.00  0.00    +0.168 A 
ATOM      6  C   UNL     1       0.110  -0.118  -0.413  0.00  0.00    +0.082 A 
ATOM      7  C   UNL     1       0.225   1.253  -0.274  0.00  0.00    +0.132 A 
ATOM      8  O   UNL     1       1.334  -2.293  -0.169  0.00  0.00    -0.453 OA
ATOM      9  C   UNL     1       2.497  -2.585   0.629  0.00  0.00    +0.466 C 
ATOM     10  O   UNL     1       3.281  -1.381   0.543  0.00  0.00    -0.453 OA
BRANCH   7  11
ATOM     11  N   UNL     1      -0.926   2.126  -0.597  0.00  0.00    +0.057 N 
ATOM     12  O   UNL     1      -1.925   1.653  -1.107  0.00  0.00    -0.126 OA
ATOM     13  O   UNL     1      -0.873   3.318  -0.351  0.00  0.00    -0.126 OA
ENDBRANCH   7  11
ENDBRANCH   1   2
BRANCH   1  14
ATOM     14  N   UNL     1       2.905   3.720  -0.006  0.00  0.00    +0.390 N 
ATOM     15  C   UNL     1       3.294   3.273  -1.350  0.00  0.00    -0.077 C 
ATOM     16  C   UNL     1       4.771   3.594  -1.588  0.00  0.00    -0.015 C 
ATOM     17  C   UNL     1       4.989   5.104  -1.448  0.00  0.00    -0.010 C 
ATOM     18  C   UNL     1       4.532   5.551  -0.057  0.00  0.00    -0.015 C 
ATOM     19  C   UNL     1       3.061   5.173   0.137  0.00  0.00    -0.077 C 
ATOM     20  H   UNL     1       3.581   3.237   0.716  0.00  0.00    -0.080 HD
BRANCH  17  21
ATOM     21  C   UNL     1       6.475   5.424  -1.625  0.00  0.00    +0.038 C 
BRANCH  21  22
ATOM     22  C   UNL     1       6.894   5.097  -3.035  0.00  0.00    -0.047 A 
ATOM     23  C   UNL     1       7.373   3.836  -3.339  0.00  0.00    +0.003 A 
ATOM     24  C   UNL     1       7.754   3.535  -4.633  0.00  0.00    +0.000 A 
ATOM     25  C   UNL     1       7.665   4.497  -5.622  0.00  0.00    +0.000 A 
ATOM     26  C   UNL     1       7.191   5.759  -5.317  0.00  0.00    +0.000 A 
ATOM     27  C   UNL     1       6.806   6.059  -4.024  0.00  0.00    +0.003 A 
ENDBRANCH  21  22
ENDBRANCH  17  21
ENDBRANCH   1  14
BRANCH   1  29
ATOM     28  N   UNL     1      -0.060   3.578   2.183  0.00  0.00    -0.287 N 
ATOM     29  C   UNL     1       1.203   3.695   1.728  0.00  0.00    +0.208 C 
ATOM     30  O   UNL     1       2.075   4.115   2.459  0.00  0.00    -0.277 OA
ATOM     31  H   UNL     1      -0.832   3.114   1.552  0.00  0.00    +0.155 HD
BRANCH  28  35
ATOM     32  C   UNL     1      -1.043   4.976   5.983  0.00  0.00    -0.045 A 
ATOM     33  C   UNL     1      -1.666   3.849   5.480  0.00  0.00    +0.006 A 
ATOM     34  C   UNL     1      -1.342   3.383   4.221  0.00  0.00    +0.023 A 
ATOM     35  C   UNL     1      -0.390   4.048   3.459  0.00  0.00    +0.033 A 
ATOM     36  C   UNL     1       0.237   5.177   3.969  0.00  0.00    +0.023 A 
ATOM     37  C   UNL     1      -0.095   5.641   5.227  0.00  0.00    +0.006 A 
BRANCH  32  39
ATOM     38  C   UNL     1      -0.150   5.477   8.241  0.00  0.00    +0.012 C 
ATOM     39  C   UNL     1      -1.398   5.482   7.357  0.00  0.00    +0.013 C 
ATOM     40  C   UNL     1      -1.942   6.908   7.251  0.00  0.00    +0.012 C 
ENDBRANCH  32  39
ENDBRANCH  28  35
ENDBRANCH   1  29
TORSDOF 8
