REMARK  Name = ZINC20618076
REMARK  7 active torsions:
REMARK  status: ('A' for Active; 'I' for Inactive)
REMARK    1  A    between atoms: C_4  and  C_7
REMARK    2  A    between atoms: C_7  and  C_8
REMARK    3  A    between atoms: N_11  and  C_14
REMARK    4  A    between atoms: C_14  and  C_15
REMARK    5  A    between atoms: C_15  and  N_16
REMARK    6  A    between atoms: C_17  and  C_19
REMARK    7  A    between atoms: C_22  and  N_25
REMARK                            x       y       z     vdW  Elec       q    Type
REMARK                         _______ _______ _______ _____ _____    ______ ____
ROOT
ATOM      1  N   UNL     1       5.774   4.136   0.254  0.00  0.00    -0.313 N 
ATOM      2  C   UNL     1       4.543   4.678   0.331  0.00  0.00    +0.244 C 
ATOM      3  O   UNL     1       4.414   5.879   0.469  0.00  0.00    -0.270 OA
ATOM      4  H   UNL     1       5.890   3.050   0.129  0.00  0.00    +0.149 HD
ENDROOT
BRANCH   2   5
ATOM      5  C   UNL     1       3.350   3.813   0.247  0.00  0.00    +0.037 A 
ATOM      6  C   UNL     1       2.072   4.374   0.327  0.00  0.00    +0.015 A 
ATOM      7  C   UNL     1       0.961   3.564   0.248  0.00  0.00    +0.028 A 
ATOM      8  C   UNL     1       1.110   2.190   0.089  0.00  0.00    +0.067 A 
ATOM      9  C   UNL     1       2.381   1.628   0.015  0.00  0.00    +0.028 A 
ATOM     10  C   UNL     1       3.495   2.433   0.088  0.00  0.00    +0.015 A 
BRANCH   8  11
ATOM     11  N   UNL     1      -0.017   1.374   0.010  0.00  0.00    -0.226 NA
ATOM     12  C   UNL     1       0.055   0.162  -0.642  0.00  0.00    +0.155 C 
ATOM     13  N   UNL     1       1.083  -0.326  -1.332  0.00  0.00    -0.318 N 
ATOM     14  C   UNL     1       0.875  -1.558  -2.016  0.00  0.00    +0.108 C 
ATOM     15  C   UNL     1       1.962  -2.439  -2.600  0.00  0.00    +0.189 C 
ATOM     16  S   UNL     1       0.972  -3.950  -3.009  0.00  0.00    -0.028 S 
ATOM     17  O   UNL     1       1.516  -5.064  -2.314  0.00  0.00    -0.174 OA
ATOM     18  O   UNL     1       0.794  -4.021  -4.418  0.00  0.00    -0.174 OA
ATOM     19  C   UNL     1      -0.637  -3.470  -2.219  0.00  0.00    +0.182 C 
ATOM     20  C   UNL     1      -0.099  -2.473  -1.187  0.00  0.00    +0.097 C 
ATOM     21  S   UNL     1      -1.223  -1.100  -0.751  0.00  0.00    -0.084 S 
ATOM     22  H   UNL     1       2.060   0.177  -1.390  0.00  0.00    +0.148 HD
ENDBRANCH   8  11
ENDBRANCH   2   5
BRANCH   1  23
ATOM     23  C   UNL     1       6.958   4.995   0.337  0.00  0.00    +0.086 C 
BRANCH  23  24
ATOM     24  C   UNL     1       8.220   4.136   0.223  0.00  0.00    -0.060 C 
BRANCH  24  28
ATOM     25  C   UNL     1      11.953   6.086  -0.513  0.00  0.00    -0.010 C 
ATOM     26  C   UNL     1      11.827   5.121   0.669  0.00  0.00    -0.015 C 
ATOM     27  C   UNL     1      10.630   4.195   0.440  0.00  0.00    -0.078 C 
ATOM     28  N   UNL     1       9.407   4.997   0.306  0.00  0.00    +0.381 N 
ATOM     29  C   UNL     1       9.486   5.898  -0.851  0.00  0.00    -0.078 C 
ATOM     30  C   UNL     1      10.649   6.875  -0.659  0.00  0.00    -0.015 C 
ATOM     31  H   UNL     1       9.314   5.618   1.210  0.00  0.00    -0.082 HD
BRANCH  25  32
ATOM     32  C   UNL     1      13.111   7.054  -0.262  0.00  0.00    +0.038 C 
BRANCH  32  36
ATOM     33  C   UNL     1      13.684   9.515  -3.705  0.00  0.00    +0.000 A 
ATOM     34  C   UNL     1      12.823   9.920  -2.702  0.00  0.00    +0.000 A 
ATOM     35  C   UNL     1      12.638   9.123  -1.587  0.00  0.00    +0.003 A 
ATOM     36  C   UNL     1      13.313   7.922  -1.477  0.00  0.00    -0.047 A 
ATOM     37  C   UNL     1      14.178   7.520  -2.478  0.00  0.00    +0.003 A 
ATOM     38  C   UNL     1      14.360   8.314  -3.594  0.00  0.00    +0.000 A 
ENDBRANCH  32  36
ENDBRANCH  25  32
ENDBRANCH  24  28
ENDBRANCH  23  24
ENDBRANCH   1  23
TORSDOF 7
