REMARK  Name = ZINC43105891
REMARK  9 active torsions:
REMARK  status: ('A' for Active; 'I' for Inactive)
REMARK    1  A    between atoms: C_1  and  C_2
REMARK    2  A    between atoms: C_2  and  C_3
REMARK    3  A    between atoms: C_3  and  C_5
REMARK    4  A    between atoms: C_3  and  N_21
REMARK    5  A    between atoms: C_5  and  C_7
REMARK    6  A    between atoms: C_5  and  N_12
REMARK    7  A    between atoms: N_12  and  C_13
REMARK    8  A    between atoms: N_12  and  C_14
REMARK    9  A    between atoms: C_14  and  C_15
REMARK                            x       y       z     vdW  Elec       q    Type
REMARK                         _______ _______ _______ _____ _____    ______ ____
ROOT
ATOM      1  C   UNL     1       0.655  -2.037   1.299  0.00  0.00    -0.014 C 
ENDROOT
BRANCH   1   2
ATOM      2  C   UNL     1       1.394  -2.627   0.125  0.00  0.00    -0.022 A 
ATOM      3  C   UNL     1       2.638  -3.162   0.081  0.00  0.00    +0.009 A 
ATOM      4  C   UNL     1       3.116  -3.649  -1.121  0.00  0.00    +0.008 A 
ATOM      5  C   UNL     1       2.327  -3.577  -2.221  0.00  0.00    +0.045 A 
ATOM      6  S   UNL     1       0.854  -2.808  -1.567  0.00  0.00    -0.103 S 
ENDBRANCH   1   2
BRANCH   1   7
ATOM      7  N   UNL     1      -0.753  -2.450   1.248  0.00  0.00    +0.386 N 
ATOM      8  C   UNL     1      -1.474  -1.876   2.392  0.00  0.00    -0.095 C 
ATOM      9  H   UNL     1      -1.170  -2.122   0.390  0.00  0.00    -0.081 HD
BRANCH   7  10
ATOM     10  C   UNL     1      -0.837  -3.916   1.303  0.00  0.00    -0.042 C 
BRANCH  10  11
ATOM     11  C   UNL     1      -2.271  -4.344   1.127  0.00  0.00    -0.056 A 
ATOM     12  C   UNL     1      -3.100  -4.486   2.225  0.00  0.00    +0.024 A 
ATOM     13  C   UNL     1      -4.385  -4.873   2.032  0.00  0.00    +0.055 A 
ATOM     14  S   UNL     1      -4.455  -5.051   0.257  0.00  0.00    -0.090 S 
ATOM     15  C   UNL     1      -2.768  -4.592  -0.108  0.00  0.00    +0.048 A 
ATOM     16 BR   UNL     1      -5.750  -5.153   3.311  0.00  0.00    -0.043 Br
ENDBRANCH  10  11
ENDBRANCH   7  10
ENDBRANCH   1   7
BRANCH   1  17
ATOM     17  C   UNL     1       0.742  -0.511   1.242  0.00  0.00    +0.042 C 
BRANCH  17  18
ATOM     18  N   UNL     1       2.151  -0.103   1.171  0.00  0.00    -0.328 NA
ATOM     19  H   UNL     1       2.647  -0.370   2.009  0.00  0.00    +0.118 HD
ATOM     20  H   UNL     1       2.598  -0.483   0.350  0.00  0.00    +0.118 HD
ENDBRANCH  17  18
BRANCH  17  22
ATOM     21  C   UNL     1      -0.019   1.526   0.010  0.00  0.00    +0.005 C 
ATOM     22  C   UNL     1       0.002  -0.004   0.002  0.00  0.00    +0.014 C 
ENDBRANCH  17  22
ENDBRANCH   1  17
TORSDOF 7
