REMARK  Name = ZINC37425858
REMARK  13 active torsions:
REMARK  status: ('A' for Active; 'I' for Inactive)
REMARK    1  A    between atoms: C_1  and  C_2
REMARK    2  A    between atoms: C_2  and  C_3
REMARK    3  A    between atoms: C_3  and  C_5
REMARK    4  A    between atoms: C_3  and  N_6
REMARK    5  A    between atoms: C_7  and  C_9
REMARK    6  A    between atoms: C_9  and  N_10
REMARK    7  A    between atoms: C_13  and  C_23
REMARK    8  A    between atoms: N_15  and  C_16
REMARK    9  A    between atoms: C_21  and  C_22
REMARK   10  A    between atoms: C_23  and  C_24
REMARK   11  A    between atoms: C_23  and  C_25
REMARK   12  A    between atoms: C_23  and  C_26
REMARK   13  A    between atoms: C_27  and  C_33
REMARK                            x       y       z     vdW  Elec       q    Type
REMARK                         _______ _______ _______ _____ _____    ______ ____
ROOT
ATOM      1  N   UNL     1      -8.814   1.937  -5.106  0.00  0.00    -0.246 N 
ATOM      2  C   UNL     1      -8.537   0.733  -4.443  0.00  0.00    +0.136 A 
ATOM      3  C   UNL     1      -9.317  -0.370  -4.527  0.00  0.00    +0.034 A 
ATOM      4  C   UNL     1      -8.739  -1.365  -3.736  0.00  0.00    +0.075 A 
ATOM      5  N   UNL     1      -7.647  -0.878  -3.197  0.00  0.00    -0.169 NA
ATOM      6  N   UNL     1      -7.493   0.449  -3.629  0.00  0.00    -0.217 N 
ATOM      7  C   UNL     1     -10.578  -0.472  -5.346  0.00  0.00    +0.118 C 
ATOM      8  S   UNL     1     -11.895   0.483  -4.510  0.00  0.00    -0.138 S 
ATOM      9  C   UNL     1     -10.988   1.965  -3.954  0.00  0.00    +0.166 C 
ATOM     10  C   UNL     1     -10.047   2.447  -5.014  0.00  0.00    +0.231 C 
ATOM     11  O   UNL     1     -10.408   3.301  -5.797  0.00  0.00    -0.274 OA
ENDROOT
BRANCH   6  12
ATOM     12  C   UNL     1      -6.450   1.319  -3.283  0.00  0.00    +0.070 A 
ATOM     13  C   UNL     1      -6.736   2.595  -2.815  0.00  0.00    +0.028 A 
ATOM     14  C   UNL     1      -5.706   3.451  -2.474  0.00  0.00    +0.002 A 
ATOM     15  C   UNL     1      -4.392   3.038  -2.599  0.00  0.00    +0.000 A 
ATOM     16  C   UNL     1      -4.105   1.768  -3.064  0.00  0.00    +0.005 A 
ATOM     17  C   UNL     1      -5.130   0.906  -3.401  0.00  0.00    -0.025 A 
ATOM     18  C   UNL     1      -4.817  -0.480  -3.902  0.00  0.00    +0.046 C 
ENDBRANCH   6  12
BRANCH   7  19
ATOM     19  C   UNL     1     -10.991  -1.917  -5.460  0.00  0.00    +0.007 A 
ATOM     20  C   UNL     1     -11.859  -2.620  -4.692  0.00  0.00    +0.012 A 
ATOM     21  C   UNL     1     -12.088  -3.951  -4.986  0.00  0.00    +0.008 A 
ATOM     22  C   UNL     1     -11.438  -4.514  -6.033  0.00  0.00    +0.045 A 
ATOM     23  S   UNL     1     -10.471  -3.145  -6.647  0.00  0.00    -0.100 S 
ENDBRANCH   7  19
BRANCH   4  24
ATOM     24  C   UNL     1      -9.277  -2.758  -3.536  0.00  0.00    +0.007 C 
ATOM     25  C   UNL     1      -9.114  -3.559  -4.829  0.00  0.00    +0.017 C 
ATOM     26  C   UNL     1      -8.505  -3.446  -2.409  0.00  0.00    +0.017 C 
ATOM     27  C   UNL     1     -10.760  -2.683  -3.166  0.00  0.00    +0.017 C 
ENDBRANCH   4  24
BRANCH   1  28
ATOM     28  C   UNL     1      -7.775   2.624  -5.877  0.00  0.00    +0.210 C 
BRANCH  28  30
ATOM     29  N   UNL     1      -7.090   2.818  -8.246  0.00  0.00    -0.311 N 
ATOM     30  C   UNL     1      -7.883   2.231  -7.328  0.00  0.00    +0.231 C 
ATOM     31  O   UNL     1      -8.682   1.385  -7.669  0.00  0.00    -0.274 OA
ATOM     32  H   UNL     1      -6.402   3.441  -7.965  0.00  0.00    +0.149 HD
BRANCH  29  33
ATOM     33  C   UNL     1      -7.269   2.517  -9.669  0.00  0.00    +0.070 C 
ATOM     34  C   UNL     1      -8.272   3.500 -10.277  0.00  0.00    +0.028 C 
BRANCH  33  36
ATOM     35  C   UNL     1      -4.962   1.579  -9.869  0.00  0.00    +0.005 C 
ATOM     36  C   UNL     1      -5.927   2.646 -10.390  0.00  0.00    +0.018 C 
ENDBRANCH  33  36
ENDBRANCH  29  33
ENDBRANCH  28  30
ENDBRANCH   1  28
TORSDOF 7
