REMARK  Name = ZINC17315799
REMARK  12 active torsions:
REMARK  status: ('A' for Active; 'I' for Inactive)
REMARK    1  A    between atoms: C_1  and  C_2
REMARK    2  A    between atoms: C_2  and  O_3
REMARK    3  A    between atoms: O_3  and  C_4
REMARK    4  A    between atoms: N_13  and  C_14
REMARK    5  A    between atoms: C_14  and  C_15
REMARK    6  A    between atoms: C_15  and  C_16
REMARK    7  A    between atoms: C_16  and  N_67
REMARK    8  A    between atoms: C_17  and  N_67
REMARK    9  A    between atoms: C_18  and  N_67
REMARK   10  A    between atoms: C_19  and  C_21
REMARK   11  A    between atoms: C_24  and  S_27
REMARK   12  A    between atoms: S_27  and  N_30
REMARK                            x       y       z     vdW  Elec       q    Type
REMARK                         _______ _______ _______ _____ _____    ______ ____
ROOT
ATOM      1  C   UNL     1       0.012  -3.019   5.322  0.00  0.00    +0.147 A 
ATOM      2  C   UNL     1      -0.601  -4.227   5.563  0.00  0.00    +0.048 A 
ATOM      3  C   UNL     1      -1.737  -4.613   4.867  0.00  0.00    +0.005 A 
ATOM      4  C   UNL     1      -2.265  -3.767   3.909  0.00  0.00    +0.017 A 
ATOM      5  C   UNL     1      -1.661  -2.558   3.661  0.00  0.00    +0.044 A 
ATOM      6  C   UNL     1      -0.504  -2.129   4.347  0.00  0.00    +0.122 A 
ATOM      7  N   UNL     1      -0.025  -0.918   3.986  0.00  0.00    -0.221 NA
ATOM      8  C   UNL     1      -0.598  -0.179   3.066  0.00  0.00    +0.168 A 
ATOM      9  S   UNL     1      -1.976  -1.198   2.562  0.00  0.00    -0.052 S 
ATOM     10  N   UNL     1      -0.225   1.071   2.599  0.00  0.00    -0.246 N 
ATOM     11  C   UNL     1       0.859   1.686   3.112  0.00  0.00    +0.252 C 
ATOM     12  O   UNL     1       1.572   1.101   3.904  0.00  0.00    -0.270 OA
ENDROOT
BRANCH  11  13
ATOM     13  C   UNL     1       1.182   3.071   2.710  0.00  0.00    +0.037 A 
ATOM     14  C   UNL     1       1.138   3.439   1.364  0.00  0.00    +0.015 A 
ATOM     15  C   UNL     1       1.435   4.735   0.996  0.00  0.00    +0.029 A 
ATOM     16  C   UNL     1       1.787   5.667   1.957  0.00  0.00    +0.106 A 
ATOM     17  C   UNL     1       1.839   5.307   3.292  0.00  0.00    +0.029 A 
ATOM     18  C   UNL     1       1.538   4.016   3.674  0.00  0.00    +0.015 A 
BRANCH  16  19
ATOM     19  S   UNL     1       2.171   7.318   1.478  0.00  0.00    +0.061 S 
ATOM     20  O   UNL     1       1.521   7.542   0.234  0.00  0.00    -0.153 OA
ATOM     21  O   UNL     1       1.940   8.136   2.616  0.00  0.00    -0.153 OA
BRANCH  19  22
ATOM     22  N   UNL     1       3.799   7.375   1.177  0.00  0.00    -0.177 NA
ATOM     23  C   UNL     1       4.842   7.695   2.163  0.00  0.00    +0.109 C 
ATOM     24  C   UNL     1       6.197   7.650   1.428  0.00  0.00    +0.018 C 
ATOM     25  C   UNL     1       5.794   7.872  -0.054  0.00  0.00    +0.018 C 
ATOM     26  C   UNL     1       4.442   7.118  -0.124  0.00  0.00    +0.109 C 
ENDBRANCH  19  22
ENDBRANCH  16  19
ENDBRANCH  11  13
BRANCH   1  27
ATOM     27  O   UNL     1       1.123  -2.676   6.026  0.00  0.00    -0.490 OA
BRANCH  27  29
ATOM     28  C   UNL     1       2.843  -3.060   7.680  0.00  0.00    +0.048 C 
ATOM     29  C   UNL     1       1.594  -3.616   6.994  0.00  0.00    +0.226 C 
ENDBRANCH  27  29
ENDBRANCH   1  27
BRANCH  10  30
ATOM     30  C   UNL     1      -1.010   1.725   1.550  0.00  0.00    +0.114 C 
BRANCH  30  31
ATOM     31  C   UNL     1      -0.591   1.178   0.184  0.00  0.00    +0.001 C 
BRANCH  31  32
ATOM     32  C   UNL     1      -1.312   1.955  -0.920  0.00  0.00    -0.078 C 
BRANCH  32  35
ATOM     33  C   UNL     1      -1.378   0.049  -2.412  0.00  0.00    -0.097 C 
ATOM     34  C   UNL     1      -1.391   2.295  -3.316  0.00  0.00    -0.097 C 
ATOM     35  N   UNL     1      -0.880   1.429  -2.232  0.00  0.00    +0.376 N 
ATOM     36  H   UNL     1       0.146   1.421  -2.268  0.00  0.00    -0.083 HD
ENDBRANCH  32  35
ENDBRANCH  31  32
ENDBRANCH  30  31
ENDBRANCH  10  30
TORSDOF 9
