REMARK  Name = ZINC05276471
REMARK  8 active torsions:
REMARK  status: ('A' for Active; 'I' for Inactive)
REMARK    1  A    between atoms: C_1  and  C_2
REMARK    2  A    between atoms: C_17  and  C_29
REMARK    3  A    between atoms: C_22  and  C_23
REMARK    4  A    between atoms: C_22  and  O_28
REMARK    5  A    between atoms: C_23  and  N_24
REMARK    6  A    between atoms: N_24  and  C_25
REMARK    7  A    between atoms: C_25  and  C_26
REMARK    8  A    between atoms: C_26  and  O_27
REMARK                            x       y       z     vdW  Elec       q    Type
REMARK                         _______ _______ _______ _____ _____    ______ ____
ROOT
ATOM      1  C   UNL     1      -0.019   1.522   0.010  0.00  0.00    +0.012 C 
ATOM      2  C   UNL     1       0.002  -0.004   0.002  0.00  0.00    -0.026 C 
ATOM      3  C   UNL     1      -1.450  -0.509   0.092  0.00  0.00    +0.007 C 
ATOM      4  C   UNL     1      -2.116   0.005   1.365  0.00  0.00    +0.001 C 
ATOM      5  C   UNL     1      -1.341  -0.444   2.603  0.00  0.00    +0.000 C 
ATOM      6  C   UNL     1       0.114   0.025   2.511  0.00  0.00    +0.004 C 
ATOM      7  C   UNL     1       0.739  -0.530   1.236  0.00  0.00    -0.005 C 
ATOM      8  C   UNL     1       2.220  -0.172   1.157  0.00  0.00    +0.004 C 
ATOM      9  C   UNL     1       2.820  -0.912  -0.039  0.00  0.00    +0.004 C 
ATOM     10  C   UNL     1       2.147  -0.480  -1.338  0.00  0.00    -0.004 C 
ATOM     11  C   UNL     1       0.629  -0.554  -1.271  0.00  0.00    -0.001 C 
ATOM     12  C   UNL     1      -0.050  -0.013  -2.521  0.00  0.00    +0.005 C 
ATOM     13  C   UNL     1       0.528   1.292  -3.070  0.00  0.00    +0.010 C 
ATOM     14  C   UNL     1       2.031   1.188  -3.186  0.00  0.00    -0.002 C 
ATOM     15  C   UNL     1       2.609   0.879  -1.784  0.00  0.00    +0.001 C 
ATOM     16  C   UNL     1       4.116   1.051  -2.026  0.00  0.00    +0.007 C 
ATOM     17  C   UNL     1       4.174   2.326  -2.913  0.00  0.00    +0.034 C 
ATOM     18  C   UNL     1       2.771   2.481  -3.552  0.00  0.00    +0.057 C 
ATOM     19  C   UNL     1       2.407   0.117  -4.210  0.00  0.00    +0.014 C 
ENDROOT
BRANCH  18  20
ATOM     20  O   UNL     1       2.095   3.611  -3.005  0.00  0.00    -0.390 OA
ATOM     21  H   UNL     1       2.518   4.457  -3.205  0.00  0.00    +0.210 HD
ENDBRANCH  18  20
BRANCH  18  22
ATOM     22  C   UNL     1       2.887   2.607  -5.071  0.00  0.00    -0.047 C 
BRANCH  22  23
ATOM     23  N   UNL     1       3.700   3.785  -5.403  0.00  0.00    +0.382 N 
ATOM     24  H   UNL     1       3.260   4.613  -5.029  0.00  0.00    -0.086 HD
ATOM     25  H   UNL     1       4.620   3.683  -5.003  0.00  0.00    -0.086 HD
BRANCH  23  26
ATOM     26  C   UNL     1       3.812   3.907  -6.863  0.00  0.00    -0.054 C 
BRANCH  26  27
ATOM     27  C   UNL     1       4.658   5.134  -7.209  0.00  0.00    +0.137 C 
BRANCH  27  28
ATOM     28  O   UNL     1       5.994   4.938  -6.742  0.00  0.00    -0.397 OA
ATOM     29  H   UNL     1       6.588   5.678  -6.927  0.00  0.00    +0.209 HD
ENDBRANCH  27  28
ENDBRANCH  26  27
ENDBRANCH  23  26
ENDBRANCH  22  23
ENDBRANCH  18  22
TORSDOF 6
