REMARK  Name = ZINC64610812
REMARK  7 active torsions:
REMARK  status: ('A' for Active; 'I' for Inactive)
REMARK    1  A    between atoms: C_1  and  C_2
REMARK    2  A    between atoms: C_7  and  C_12
REMARK    3  A    between atoms: C_12  and  N_13
REMARK    4  A    between atoms: C_14  and  C_16
REMARK    5  A    between atoms: C_19  and  C_22
REMARK    6  A    between atoms: C_22  and  N_23
REMARK    7  A    between atoms: C_28  and  C_30
REMARK                            x       y       z     vdW  Elec       q    Type
REMARK                         _______ _______ _______ _____ _____    ______ ____
ROOT
ATOM      1  C   UNL     1       4.961  -4.014   1.381  0.00  0.00    +0.329 C 
ATOM      2  N   UNL     1       5.077  -4.002  -0.083  0.00  0.00    -0.338 N 
ATOM      3  C   UNL     1       5.010  -2.783  -0.493  0.00  0.00    +0.125 C 
ATOM      4  N   UNL     1       4.856  -1.908   0.542  0.00  0.00    -0.249 N 
ATOM      5  O   UNL     1       4.819  -2.637   1.762  0.00  0.00    -0.239 OA
ATOM      6  H   UNL     1       4.783  -0.944   0.460  0.00  0.00    +0.196 HD
ATOM      7  H   UNL     1       5.187  -4.783  -0.648  0.00  0.00    +0.164 HD
ENDROOT
BRANCH   1   9
ATOM      8  N   UNL     1       2.513  -4.326   1.543  0.00  0.00    -0.308 N 
ATOM      9  C   UNL     1       3.747  -4.801   1.802  0.00  0.00    +0.265 C 
ATOM     10  O   UNL     1       3.881  -5.862   2.374  0.00  0.00    -0.271 OA
ATOM     11  H   UNL     1       2.406  -3.477   1.085  0.00  0.00    +0.149 HD
BRANCH   8  12
ATOM     12  C   UNL     1       1.332  -5.091   1.952  0.00  0.00    +0.151 C 
BRANCH  12  19
ATOM     13  C   UNL     1      -0.018   1.503   0.010  0.00  0.00    +0.044 C 
ATOM     14  C   UNL     1       0.002  -0.004   0.002  0.00  0.00    -0.048 A 
ATOM     15  C   UNL     1       0.005  -0.672  -1.235  0.00  0.00    +0.005 A 
ATOM     16  C   UNL     1       0.022  -2.017  -1.335  0.00  0.00    +0.027 A 
ATOM     17  C   UNL     1       0.040  -2.834  -0.114  0.00  0.00    +0.060 A 
ATOM     18  N   UNL     1       0.057  -4.120   0.090  0.00  0.00    -0.362 N 
ATOM     19  C   UNL     1       0.067  -4.335   1.542  0.00  0.00    +0.191 C 
ATOM     20  N   UNL     1       0.053  -3.002   2.159  0.00  0.00    -0.362 N 
ATOM     21  C   UNL     1       0.037  -2.127   1.195  0.00  0.00    +0.060 A 
ATOM     22  C   UNL     1       0.022  -0.657   1.181  0.00  0.00    +0.030 A 
ATOM     23  H   UNL     1       0.062  -4.809  -0.593  0.00  0.00    +0.162 HD
ATOM     24  H   UNL     1       0.055  -2.810   3.109  0.00  0.00    +0.162 HD
ENDBRANCH  12  19
ENDBRANCH   8  12
ENDBRANCH   1   9
BRANCH   3  25
ATOM     25  C   UNL     1       5.092  -2.373  -1.941  0.00  0.00    +0.221 C 
BRANCH  25  26
ATOM     26  N   UNL     1       6.491  -2.127  -2.300  0.00  0.00    -0.222 N 
ATOM     27  C   UNL     1       7.232  -3.144  -2.779  0.00  0.00    +0.268 A 
ATOM     28  O   UNL     1       6.742  -4.254  -2.910  0.00  0.00    -0.266 OA
ATOM     29  C   UNL     1       8.582  -2.917  -3.129  0.00  0.00    +0.074 A 
ATOM     30  C   UNL     1       9.081  -1.659  -2.963  0.00  0.00    +0.035 A 
ATOM     31  C   UNL     1       8.220  -0.659  -2.453  0.00  0.00    +0.092 A 
ATOM     32  N   UNL     1       6.975  -0.947  -2.155  0.00  0.00    -0.168 NA
BRANCH  31  33
ATOM     33  C   UNL     1       8.726   0.722  -2.259  0.00  0.00    +0.002 A 
ATOM     34  C   UNL     1      10.044   1.036  -2.583  0.00  0.00    +0.013 A 
ATOM     35  C   UNL     1      10.510   2.322  -2.401  0.00  0.00    +0.039 A 
ATOM     36  C   UNL     1       9.669   3.300  -1.895  0.00  0.00    +0.123 A 
ATOM     37  C   UNL     1       8.358   2.992  -1.571  0.00  0.00    +0.039 A 
ATOM     38  C   UNL     1       7.882   1.711  -1.756  0.00  0.00    +0.013 A 
ATOM     39  F   UNL     1      10.130   4.558  -1.718  0.00  0.00    -0.205 F 
ENDBRANCH  31  33
ENDBRANCH  25  26
ENDBRANCH   3  25
TORSDOF 6
