REMARK  Name = ZINC12496072
REMARK  12 active torsions:
REMARK  status: ('A' for Active; 'I' for Inactive)
REMARK    1  A    between atoms: C_1  and  C_2
REMARK    2  A    between atoms: C_2  and  N_3
REMARK    3  A    between atoms: C_8  and  C_27
REMARK    4  A    between atoms: C_10  and  C_15
REMARK    5  A    between atoms: C_10  and  C_22
REMARK    6  A    between atoms: C_15  and  C_16
REMARK    7  A    between atoms: C_22  and  O_24
REMARK    8  A    between atoms: O_24  and  C_25
REMARK    9  A    between atoms: C_25  and  C_26
REMARK   10  A    between atoms: C_30  and  O_35
REMARK   11  A    between atoms: C_31  and  O_33
REMARK   12  A    between atoms: O_33  and  C_34
REMARK                            x       y       z     vdW  Elec       q    Type
REMARK                         _______ _______ _______ _____ _____    ______ ____
ROOT
ATOM      1  N   UNL     1       4.883  -1.290   0.188  0.00  0.00    -0.242 N 
ATOM      2  C   UNL     1       4.143  -2.189  -0.539  0.00  0.00    +0.224 C 
ATOM      3  O   UNL     1       4.319  -3.385  -0.631  0.00  0.00    -0.275 OA
ATOM      4  C   UNL     1       3.112  -1.401  -1.171  0.00  0.00    +0.077 C 
ATOM      5  C   UNL     1       2.199  -1.465  -2.328  0.00  0.00    -0.027 C 
ATOM      6  C   UNL     1       2.678   0.834  -1.735  0.00  0.00    +0.048 C 
ATOM      7  C   UNL     1       3.879  -0.050  -1.447  0.00  0.00    +0.086 C 
ATOM      8  C   UNL     1       4.608   0.008  -0.142  0.00  0.00    +0.225 C 
ATOM      9  O   UNL     1       4.895   1.001   0.491  0.00  0.00    -0.275 OA
ATOM     10  N   UNL     1       1.692  -0.059  -2.401  0.00  0.00    +0.396 N 
ATOM     11  H   UNL     1       0.786   0.007  -1.921  0.00  0.00    -0.083 HD
ATOM     12  H   UNL     1       1.581   0.219  -3.383  0.00  0.00    -0.083 HD
ENDROOT
BRANCH   5  13
ATOM     13  C   UNL     1       1.078  -2.439  -2.073  0.00  0.00    -0.057 A 
ATOM     14  C   UNL     1       0.069  -2.113  -1.185  0.00  0.00    +0.006 A 
ATOM     15  C   UNL     1      -0.961  -3.004  -0.948  0.00  0.00    +0.049 A 
ATOM     16  C   UNL     1      -0.985  -4.226  -1.601  0.00  0.00    +0.158 A 
ATOM     17  C   UNL     1       0.030  -4.554  -2.494  0.00  0.00    +0.161 A 
ATOM     18  C   UNL     1       1.057  -3.655  -2.732  0.00  0.00    +0.051 A 
BRANCH  17  19
ATOM     19  O   UNL     1       0.011  -5.752  -3.136  0.00  0.00    -0.491 OA
ATOM     20  C   UNL     1       1.086  -6.021  -4.039  0.00  0.00    +0.277 C 
ENDBRANCH  17  19
BRANCH  16  21
ATOM     21  O   UNL     1      -1.998  -5.103  -1.368  0.00  0.00    -0.503 OA
ATOM     22  H   UNL     1      -2.755  -4.995  -1.960  0.00  0.00    +0.292 HD
ENDBRANCH  16  21
ENDBRANCH   5  13
BRANCH   1  24
ATOM     23  C   UNL     1       5.168  -1.777   2.568  0.00  0.00    +0.025 C 
ATOM     24  C   UNL     1       5.861  -1.679   1.207  0.00  0.00    +0.113 C 
ENDBRANCH   1  24
BRANCH   6  25
ATOM     25  C   UNL     1       3.071   1.964  -2.651  0.00  0.00    +0.297 C 
ATOM     26  O   UNL     1       4.213   2.356  -2.672  0.00  0.00    -0.252 OA
BRANCH  25  27
ATOM     27  O   UNL     1       2.151   2.535  -3.445  0.00  0.00    -0.466 OA
BRANCH  27  28
ATOM     28  C   UNL     1       2.600   3.619  -4.301  0.00  0.00    +0.228 C 
ATOM     29  C   UNL     1       1.421   4.140  -5.125  0.00  0.00    +0.048 C 
ENDBRANCH  27  28
ENDBRANCH  25  27
ENDBRANCH   6  25
BRANCH   6  30
ATOM     30  C   UNL     1       2.101   1.387  -0.430  0.00  0.00    +0.034 C 
BRANCH  30  31
ATOM     31  C   UNL     1       0.956   2.316  -0.741  0.00  0.00    -0.048 A 
ATOM     32  C   UNL     1      -0.333   1.823  -0.818  0.00  0.00    +0.003 A 
ATOM     33  C   UNL     1      -1.382   2.674  -1.109  0.00  0.00    +0.000 A 
ATOM     34  C   UNL     1      -1.144   4.020  -1.312  0.00  0.00    +0.000 A 
ATOM     35  C   UNL     1       0.145   4.514  -1.235  0.00  0.00    +0.000 A 
ATOM     36  C   UNL     1       1.195   3.661  -0.950  0.00  0.00    +0.003 A 
ENDBRANCH  30  31
ENDBRANCH   6  30
TORSDOF 9
