REMARK  Name = ZINC38689237
REMARK  13 active torsions:
REMARK  status: ('A' for Active; 'I' for Inactive)
REMARK    1  A    between atoms: C_1  and  C_2
REMARK    2  A    between atoms: C_2  and  O_3
REMARK    3  A    between atoms: O_3  and  C_4
REMARK    4  A    between atoms: C_9  and  C_33
REMARK    5  A    between atoms: C_11  and  N_14
REMARK    6  A    between atoms: C_15  and  C_17
REMARK    7  A    between atoms: C_17  and  N_18
REMARK    8  A    between atoms: N_21  and  C_24
REMARK    9  A    between atoms: C_24  and  C_25
REMARK   10  A    between atoms: C_26  and  C_27
REMARK   11  A    between atoms: C_33  and  O_35
REMARK   12  A    between atoms: O_35  and  C_36
REMARK   13  A    between atoms: C_36  and  C_37
REMARK                            x       y       z     vdW  Elec       q    Type
REMARK                         _______ _______ _______ _____ _____    ______ ____
ROOT
ATOM      1  N   UNL     1       2.527  -3.908  -4.907  0.00  0.00    -0.285 N 
ATOM      2  C   UNL     1       2.748  -2.584  -5.024  0.00  0.00    +0.231 C 
ATOM      3  O   UNL     1       2.562  -1.852  -4.075  0.00  0.00    -0.274 OA
ATOM      4  H   UNL     1       2.756  -4.504  -5.637  0.00  0.00    +0.155 HD
ENDROOT
BRANCH   1  11
ATOM      5  C   UNL     1       1.932  -8.139  -3.496  0.00  0.00    +0.121 A 
ATOM      6  C   UNL     1       1.321  -8.219  -2.236  0.00  0.00    +0.047 A 
ATOM      7  C   UNL     1       0.961  -7.112  -1.545  0.00  0.00    +0.029 A 
ATOM      8  C   UNL     1       1.201  -5.825  -2.094  0.00  0.00    +0.045 A 
ATOM      9  N   UNL     1       0.948  -4.618  -1.629  0.00  0.00    -0.367 N 
ATOM     10  C   UNL     1       1.402  -3.624  -2.606  0.00  0.00    +0.234 C 
ATOM     11  C   UNL     1       1.981  -4.410  -3.762  0.00  0.00    +0.053 C 
ATOM     12  C   UNL     1       1.843  -5.742  -3.417  0.00  0.00    +0.021 A 
ATOM     13  C   UNL     1       2.197  -6.942  -4.082  0.00  0.00    +0.057 A 
ATOM     14  H   UNL     1       0.529  -4.420  -0.777  0.00  0.00    +0.161 HD
BRANCH  10  15
ATOM     15  C   UNL     1       0.239  -2.789  -3.076  0.00  0.00    +0.336 C 
ATOM     16  O   UNL     1      -0.883  -3.233  -3.023  0.00  0.00    -0.248 OA
BRANCH  15  17
ATOM     17  O   UNL     1       0.450  -1.552  -3.552  0.00  0.00    -0.463 OA
BRANCH  17  18
ATOM     18  C   UNL     1      -0.698  -0.816  -3.979  0.00  0.00    +0.229 C 
ATOM     19  C   UNL     1      -0.263   0.560  -4.486  0.00  0.00    +0.048 C 
ENDBRANCH  17  18
ENDBRANCH  15  17
ENDBRANCH  10  15
BRANCH   5  20
ATOM     20  O   UNL     1       2.271  -9.286  -4.144  0.00  0.00    -0.492 OA
BRANCH  20  22
ATOM     21  C   UNL     1       2.421 -11.688  -4.359  0.00  0.00    +0.048 C 
ATOM     22  C   UNL     1       1.970 -10.517  -3.484  0.00  0.00    +0.225 C 
ENDBRANCH  20  22
ENDBRANCH   5  20
ENDBRANCH   1  11
BRANCH   2  23
ATOM     23  C   UNL     1       3.227  -2.013  -6.334  0.00  0.00    +0.180 C 
BRANCH  23  24
ATOM     24  N   UNL     1       3.391  -0.559  -6.203  0.00  0.00    -0.298 NA
ATOM     25  C   UNL     1       4.477  -0.233  -5.268  0.00  0.00    +0.066 C 
ATOM     26  C   UNL     1       4.575   1.287  -5.115  0.00  0.00    -0.063 C 
ATOM     27  N   UNL     1       4.836   1.895  -6.426  0.00  0.00    +0.384 N 
ATOM     28  C   UNL     1       3.732   1.581  -7.342  0.00  0.00    -0.063 C 
ATOM     29  C   UNL     1       3.626   0.065  -7.513  0.00  0.00    +0.066 C 
ATOM     30  H   UNL     1       5.698   1.528  -6.801  0.00  0.00    -0.081 HD
BRANCH  27  31
ATOM     31  C   UNL     1       4.949   3.352  -6.276  0.00  0.00    -0.051 C 
BRANCH  31  32
ATOM     32  C   UNL     1       5.337   3.965  -7.597  0.00  0.00    -0.045 C 
ATOM     33  C   UNL     1       4.593   4.926  -8.126  0.00  0.00    +0.002 C 
BRANCH  33  34
ATOM     34  C   UNL     1       4.974   5.527  -9.422  0.00  0.00    -0.025 A 
ATOM     35  C   UNL     1       6.114   5.081 -10.093  0.00  0.00    +0.008 A 
ATOM     36  C   UNL     1       6.464   5.646 -11.302  0.00  0.00    +0.001 A 
ATOM     37  C   UNL     1       5.689   6.653 -11.849  0.00  0.00    +0.000 A 
ATOM     38  C   UNL     1       4.558   7.099 -11.188  0.00  0.00    +0.001 A 
ATOM     39  C   UNL     1       4.193   6.538  -9.982  0.00  0.00    +0.008 A 
ENDBRANCH  33  34
ENDBRANCH  31  32
ENDBRANCH  27  31
ENDBRANCH  23  24
ENDBRANCH   2  23
TORSDOF 11
