REMARK  Name = ZINC08493775
REMARK  12 active torsions:
REMARK  status: ('A' for Active; 'I' for Inactive)
REMARK    1  A    between atoms: C_1  and  C_2
REMARK    2  A    between atoms: C_7  and  N_8
REMARK    3  A    between atoms: C_9  and  C_11
REMARK    4  A    between atoms: C_11  and  N_12
REMARK    5  A    between atoms: N_12  and  C_13
REMARK    6  A    between atoms: N_12  and  C_14
REMARK    7  A    between atoms: C_14  and  C_16
REMARK    8  A    between atoms: C_14  and  C_17
REMARK    9  A    between atoms: N_19  and  C_20
REMARK   10  A    between atoms: C_20  and  C_21
REMARK   11  A    between atoms: C_20  and  C_22
REMARK   12  A    between atoms: C_20  and  C_23
REMARK                            x       y       z     vdW  Elec       q    Type
REMARK                         _______ _______ _______ _____ _____    ______ ____
ROOT
ATOM      1  C   UNL     1       0.680   0.178   5.146  0.00  0.00    +0.020 C 
ENDROOT
BRANCH   1   3
ATOM      2  N   UNL     1       1.929   0.166   3.011  0.00  0.00    -0.287 N 
ATOM      3  C   UNL     1       1.585  -0.485   4.140  0.00  0.00    +0.201 C 
ATOM      4  O   UNL     1       2.005  -1.604   4.347  0.00  0.00    -0.278 OA
ATOM      5  H   UNL     1       1.649   1.085   2.876  0.00  0.00    +0.155 HD
BRANCH   2  12
ATOM      6  C   UNL     1       1.569   0.939   0.296  0.00  0.00    +0.046 C 
ATOM      7  C   UNL     1       2.545  -0.138   0.695  0.00  0.00    -0.028 A 
ATOM      8  C   UNL     1       3.301  -0.777  -0.268  0.00  0.00    +0.020 A 
ATOM      9  C   UNL     1       4.197  -1.766   0.098  0.00  0.00    +0.018 A 
ATOM     10  C   UNL     1       4.338  -2.118   1.429  0.00  0.00    +0.017 A 
ATOM     11  C   UNL     1       3.585  -1.482   2.396  0.00  0.00    +0.024 A 
ATOM     12  C   UNL     1       2.689  -0.485   2.032  0.00  0.00    +0.036 A 
ATOM     13 BR   UNL     1       5.230  -2.639  -1.224  0.00  0.00    -0.050 Br
ENDBRANCH   2  12
ENDBRANCH   1   3
BRANCH   1  14
ATOM     14  N   UNL     1       0.458  -0.730   6.279  0.00  0.00    +0.391 N 
ATOM     15  C   UNL     1       1.728  -0.951   6.985  0.00  0.00    -0.094 C 
ATOM     16  H   UNL     1       0.105  -1.612   5.939  0.00  0.00    -0.080 HD
BRANCH  14  17
ATOM     17  C   UNL     1      -0.518  -0.134   7.201  0.00  0.00    +0.016 C 
ATOM     18  C   UNL     1      -1.818   0.157   6.449  0.00  0.00    -0.004 C 
BRANCH  17  19
ATOM     19  C   UNL     1      -0.794  -1.095   8.329  0.00  0.00    +0.200 C 
ATOM     20  O   UNL     1      -0.679  -2.289   8.151  0.00  0.00    -0.278 OA
ATOM     21  N   UNL     1      -1.170  -0.626   9.536  0.00  0.00    -0.312 N 
ATOM     22  H   UNL     1      -1.262   0.329   9.678  0.00  0.00    +0.149 HD
BRANCH  21  23
ATOM     23  C   UNL     1      -1.439  -1.560  10.632  0.00  0.00    +0.026 C 
ATOM     24  C   UNL     1      -0.179  -2.376  10.928  0.00  0.00    +0.031 C 
ATOM     25  C   UNL     1      -1.844  -0.775  11.882  0.00  0.00    +0.031 C 
ATOM     26  C   UNL     1      -2.575  -2.503  10.232  0.00  0.00    +0.031 C 
ENDBRANCH  21  23
ENDBRANCH  17  19
ENDBRANCH  14  17
ENDBRANCH   1  14
TORSDOF 6
