REMARK  Name = ZINC59170509
REMARK  9 active torsions:
REMARK  status: ('A' for Active; 'I' for Inactive)
REMARK    1  A    between atoms: C_1  and  O_2
REMARK    2  A    between atoms: O_2  and  C_3
REMARK    3  A    between atoms: C_7  and  N_9
REMARK    4  A    between atoms: C_10  and  C_12
REMARK    5  A    between atoms: C_18  and  O_33
REMARK    6  A    between atoms: N_22  and  C_23
REMARK    7  A    between atoms: C_26  and  S_29
REMARK    8  A    between atoms: S_29  and  N_32
REMARK    9  A    between atoms: O_33  and  C_34
REMARK                            x       y       z     vdW  Elec       q    Type
REMARK                         _______ _______ _______ _____ _____    ______ ____
ROOT
ATOM      1  C   UNL     1      -3.773  -6.132   0.286  0.00  0.00    +0.098 A 
ATOM      2  C   UNL     1      -4.994  -6.794   0.284  0.00  0.00    +0.030 A 
ATOM      3  C   UNL     1      -4.966  -8.257   0.341  0.00  0.00    +0.022 A 
ATOM      4  C   UNL     1      -6.120  -9.007   0.078  0.00  0.00    +0.012 A 
ATOM      5  C   UNL     1      -6.070 -10.371   0.131  0.00  0.00    +0.004 A 
ATOM      6  C   UNL     1      -4.886 -11.023   0.445  0.00  0.00    +0.049 A 
ATOM      7  C   UNL     1      -3.735 -10.303   0.711  0.00  0.00    +0.163 A 
ATOM      8  C   UNL     1      -3.764  -8.912   0.664  0.00  0.00    +0.179 A 
ATOM      9  O   UNL     1      -2.650  -8.187   0.929  0.00  0.00    -0.435 OA
ATOM     10  C   UNL     1      -2.556  -6.965   0.340  0.00  0.00    +0.212 A 
ATOM     11  N   UNL     1      -1.418  -6.537  -0.162  0.00  0.00    -0.325 N 
ATOM     12  H   UNL     1      -1.393  -5.711  -0.670  0.00  0.00    +0.169 HD
ENDROOT
BRANCH  11  13
ATOM     13  C   UNL     1      -0.271  -7.255   0.034  0.00  0.00    +0.042 A 
ATOM     14  C   UNL     1       0.027  -7.772   1.297  0.00  0.00    +0.027 A 
ATOM     15  C   UNL     1       1.186  -8.495   1.487  0.00  0.00    +0.030 A 
ATOM     16  C   UNL     1       2.052  -8.710   0.430  0.00  0.00    +0.105 A 
ATOM     17  C   UNL     1       1.764  -8.201  -0.825  0.00  0.00    +0.030 A 
ATOM     18  C   UNL     1       0.606  -7.481  -1.030  0.00  0.00    +0.027 A 
BRANCH  16  19
ATOM     19  S   UNL     1       3.530  -9.636   0.681  0.00  0.00    +0.056 S 
ATOM     20  O   UNL     1       4.440  -9.233  -0.334  0.00  0.00    -0.153 OA
ATOM     21  O   UNL     1       3.840  -9.537   2.065  0.00  0.00    -0.153 OA
BRANCH  19  22
ATOM     22  N   UNL     1       3.169 -11.225   0.389  0.00  0.00    -0.204 NA
ATOM     23  H   UNL     1       3.852 -11.823   0.048  0.00  0.00    +0.144 HD
ATOM     24  H   UNL     1       2.274 -11.558   0.559  0.00  0.00    +0.144 HD
ENDBRANCH  19  22
ENDBRANCH  16  19
ENDBRANCH  11  13
BRANCH   1  26
ATOM     25  N   UNL     1      -2.507  -4.044   0.373  0.00  0.00    -0.281 N 
ATOM     26  C   UNL     1      -3.696  -4.662   0.231  0.00  0.00    +0.253 C 
ATOM     27  O   UNL     1      -4.706  -4.006   0.056  0.00  0.00    -0.270 OA
ATOM     28  H   UNL     1      -1.695  -4.568   0.459  0.00  0.00    +0.155 HD
BRANCH  25  33
ATOM     29  C   UNL     1      -1.453  -0.623   1.226  0.00  0.00    +0.122 A 
ATOM     30  C   UNL     1      -2.325   0.120   0.442  0.00  0.00    +0.046 A 
ATOM     31  C   UNL     1      -3.251  -0.518  -0.360  0.00  0.00    +0.005 A 
ATOM     32  C   UNL     1      -3.314  -1.898  -0.384  0.00  0.00    +0.023 A 
ATOM     33  C   UNL     1      -2.444  -2.647   0.398  0.00  0.00    +0.037 A 
ATOM     34  C   UNL     1      -1.508  -2.008   1.200  0.00  0.00    +0.069 A 
BRANCH  29  36
ATOM     35  C   UNL     1      -0.542   1.435   1.992  0.00  0.00    +0.277 C 
ATOM     36  O   UNL     1      -0.542   0.006   2.014  0.00  0.00    -0.495 OA
ENDBRANCH  29  36
ENDBRANCH  25  33
ENDBRANCH   1  26
BRANCH   7  37
ATOM     37  O   UNL     1      -2.580 -10.951   1.019  0.00  0.00    -0.491 OA
ATOM     38  C   UNL     1      -2.626 -12.379   1.050  0.00  0.00    +0.277 C 
ENDBRANCH   7  37
TORSDOF 7
