REMARK  Name = ZINC20157570
REMARK  4 active torsions:
REMARK  status: ('A' for Active; 'I' for Inactive)
REMARK    1  A    between atoms: C_1  and  C_2
REMARK    2  A    between atoms: C_10  and  C_14
REMARK    3  A    between atoms: N_17  and  C_18
REMARK    4  A    between atoms: C_18  and  C_19
REMARK                            x       y       z     vdW  Elec       q    Type
REMARK                         _______ _______ _______ _____ _____    ______ ____
ROOT
ATOM      1  C   UNL     1      -1.300  -0.762   0.011  0.00  0.00    +0.086 C 
ATOM      2  C   UNL     1       0.002  -0.004   0.002  0.00  0.00    +0.111 A 
ATOM      3  N   UNL     1       1.129  -0.665  -0.013  0.00  0.00    -0.227 NA
ATOM      4  C   UNL     1       2.296  -0.026  -0.020  0.00  0.00    +0.116 A 
ATOM      5  C   UNL     1       2.377   1.375  -0.013  0.00  0.00    +0.076 A 
ATOM      6  C   UNL     1       3.727   1.938  -0.021  0.00  0.00    -0.023 A 
ATOM      7  C   UNL     1       4.755   1.063  -0.036  0.00  0.00    -0.004 A 
ATOM      8  S   UNL     1       3.995  -0.539  -0.039  0.00  0.00    -0.073 S 
ATOM      9  C   UNL     1       6.219   1.382  -0.047  0.00  0.00    +0.046 C 
ATOM     10  C   UNL     1       6.395   2.858   0.336  0.00  0.00    -0.009 C 
ATOM     11  C   UNL     1       5.416   3.700  -0.488  0.00  0.00    +0.008 C 
ATOM     12  C   UNL     1       3.985   3.442  -0.015  0.00  0.00    +0.037 C 
ATOM     13  C   UNL     1       7.829   3.299   0.035  0.00  0.00    +0.008 C 
ATOM     14  C   UNL     1       1.123   2.070   0.002  0.00  0.00    +0.263 A 
ATOM     15  O   UNL     1       1.090   3.288   0.009  0.00  0.00    -0.267 OA
ATOM     16  N   UNL     1      -0.016   1.354   0.009  0.00  0.00    -0.287 N 
ENDROOT
BRANCH  16  17
ATOM     17  C   UNL     1      -1.303   2.054   0.019  0.00  0.00    +0.222 C 
BRANCH  17  18
ATOM     18  C   UNL     1      -1.738   2.286   1.444  0.00  0.00    +0.235 C 
ATOM     19  O   UNL     1      -1.041   1.904   2.360  0.00  0.00    -0.274 OA
ATOM     20  N   UNL     1      -2.901   2.918   1.699  0.00  0.00    -0.300 N 
ATOM     21  C   UNL     1      -3.752   3.391   0.599  0.00  0.00    +0.108 C 
ATOM     22  C   UNL     1      -5.166   2.825   0.797  0.00  0.00    +0.019 C 
ATOM     23  C   UNL     1      -5.671   3.205   2.191  0.00  0.00    +0.003 C 
ATOM     24  C   UNL     1      -4.754   2.593   3.252  0.00  0.00    +0.019 C 
ATOM     25  C   UNL     1      -3.338   3.152   3.082  0.00  0.00    +0.108 C 
ENDBRANCH  17  18
ENDBRANCH  16  17
TORSDOF 2
