REMARK  Name = ZINC41438029
REMARK  5 active torsions:
REMARK  status: ('A' for Active; 'I' for Inactive)
REMARK    1  A    between atoms: C_1  and  C_2
REMARK    2  A    between atoms: C_3  and  O_24
REMARK    3  A    between atoms: C_10  and  C_11
REMARK    4  A    between atoms: O_24  and  C_25
REMARK    5  A    between atoms: C_25  and  C_26
REMARK                            x       y       z     vdW  Elec       q    Type
REMARK                         _______ _______ _______ _____ _____    ______ ____
ROOT
ATOM      1  C   UNL     1       0.990   1.399   0.042  0.00  0.00    +0.051 C 
ATOM      2  C   UNL     1       0.929  -0.106   0.056  0.00  0.00    +0.034 A 
ATOM      3  C   UNL     1       1.115  -0.818  -1.118  0.00  0.00    +0.128 A 
ATOM      4  C   UNL     1       1.062  -2.209  -1.119  0.00  0.00    +0.047 A 
ATOM      5  C   UNL     1       0.825  -2.888   0.043  0.00  0.00    +0.019 A 
ATOM      6  C   UNL     1       0.636  -2.184   1.233  0.00  0.00    +0.068 A 
ATOM      7  C   UNL     1       0.692  -0.781   1.248  0.00  0.00    +0.146 A 
ATOM      8  O   UNL     1       0.487  -0.330   2.504  0.00  0.00    -0.451 OA
ATOM      9  C   UNL     1       0.294  -1.345   3.378  0.00  0.00    +0.176 C 
ATOM     10  C   UNL     1       0.062  -1.224   4.711  0.00  0.00    +0.061 C 
ATOM     11  C   UNL     1       0.367  -2.603   2.621  0.00  0.00    +0.231 C 
ATOM     12  O   UNL     1       0.246  -3.739   3.047  0.00  0.00    -0.283 OA
ENDROOT
BRANCH  10  13
ATOM     13  C   UNL     1       0.161   0.090   5.355  0.00  0.00    +0.022 A 
ATOM     14  C   UNL     1       0.138   1.258   4.582  0.00  0.00    +0.027 A 
ATOM     15  C   UNL     1       0.233   2.488   5.196  0.00  0.00    +0.019 A 
ATOM     16  C   UNL     1       0.351   2.575   6.575  0.00  0.00    +0.024 A 
ATOM     17  C   UNL     1       0.375   1.431   7.351  0.00  0.00    +0.022 A 
ATOM     18  C   UNL     1       0.272   0.186   6.753  0.00  0.00    +0.136 A 
ATOM     19  O   UNL     1       0.279  -0.945   7.504  0.00  0.00    -0.465 OA
ATOM     20  C   UNL     1       0.750  -0.825   8.850  0.00  0.00    +0.395 C 
ATOM     21  O   UNL     1       0.119   0.310   9.456  0.00  0.00    -0.339 OA
ATOM     22  C   UNL     1       0.509   1.549   8.848  0.00  0.00    +0.202 C 
ATOM     23 BR   UNL     1       0.201   4.065   4.153  0.00  0.00    -0.050 Br
ENDBRANCH  10  13
BRANCH   3  24
ATOM     24  O   UNL     1       1.350  -0.153  -2.278  0.00  0.00    -0.477 OA
BRANCH  24  25
ATOM     25  C   UNL     1       1.533  -0.944  -3.453  0.00  0.00    +0.346 C 
BRANCH  25  26
ATOM     26  C   UNL     1       1.776  -0.061  -4.606  0.00  0.00    +0.104 C 
ATOM     27  N   UNL     1       1.963   0.620  -5.496  0.00  0.00    -0.193 NA
ENDBRANCH  25  26
ENDBRANCH  24  25
ENDBRANCH   3  24
TORSDOF 4
