REMARK  Name = ZINC01695765
REMARK  2 active torsions:
REMARK  status: ('A' for Active; 'I' for Inactive)
REMARK    1  A    between atoms: C_8  and  N_9
REMARK    2  A    between atoms: C_18  and  N_20
REMARK                            x       y       z     vdW  Elec       q    Type
REMARK                         _______ _______ _______ _____ _____    ______ ____
ROOT
ATOM      1  C   UNL     1       2.418   4.147  -0.001  0.00  0.00    +0.002 A 
ATOM      2  C   UNL     1       1.227   3.487   0.008  0.00  0.00    +0.010 A 
ATOM      3  C   UNL     1       1.203   2.083   0.002  0.00  0.00    +0.006 A 
ATOM      4  C   UNL     1       2.423   1.364  -0.014  0.00  0.00    +0.006 A 
ATOM      5  C   UNL     1       2.399  -0.039  -0.021  0.00  0.00    +0.010 A 
ATOM      6  C   UNL     1       1.208  -0.699  -0.013  0.00  0.00    +0.002 A 
ATOM      7  C   UNL     1       0.002  -0.004   0.002  0.00  0.00    +0.024 A 
ATOM      8  C   UNL     1      -0.017   1.373   0.010  0.00  0.00    +0.052 A 
ATOM      9  C   UNL     1       3.642   2.074  -0.023  0.00  0.00    +0.052 A 
ATOM     10  C   UNL     1       3.624   3.451  -0.016  0.00  0.00    +0.024 A 
ENDROOT
BRANCH   8  11
ATOM     11  N   UNL     1      -1.234   2.062   0.019  0.00  0.00    -0.200 N 
ATOM     12  C   UNL     1      -1.911   2.455  -1.075  0.00  0.00    +0.270 C 
ATOM     13  O   UNL     1      -1.568   2.272  -2.225  0.00  0.00    -0.268 OA
ATOM     14  C   UNL     1      -3.144   3.146  -0.640  0.00  0.00    +0.127 C 
ATOM     15  C   UNL     1      -3.138   3.138   0.708  0.00  0.00    +0.127 C 
ATOM     16  C   UNL     1      -1.903   2.438   1.124  0.00  0.00    +0.270 C 
ATOM     17  O   UNL     1      -1.553   2.236   2.269  0.00  0.00    -0.268 OA
ATOM     18 CL   UNL     1      -4.345   3.819   1.753  0.00  0.00    -0.076 Cl
ATOM     19 CL   UNL     1      -4.361   3.838  -1.666  0.00  0.00    -0.076 Cl
ENDBRANCH   8  11
BRANCH   9  20
ATOM     20  N   UNL     1       4.860   1.385  -0.038  0.00  0.00    -0.200 N 
ATOM     21  C   UNL     1       5.520   1.003  -1.146  0.00  0.00    +0.270 C 
ATOM     22  O   UNL     1       5.161   1.198  -2.289  0.00  0.00    -0.268 OA
ATOM     23  C   UNL     1       6.759   0.308  -0.735  0.00  0.00    +0.127 C 
ATOM     24  C   UNL     1       6.773   0.302   0.612  0.00  0.00    +0.127 C 
ATOM     25  C   UNL     1       5.545   0.998   1.053  0.00  0.00    +0.270 C 
ATOM     26  O   UNL     1       5.211   1.189   2.205  0.00  0.00    -0.268 OA
ATOM     27 CL   UNL     1       7.995  -0.390   1.633  0.00  0.00    -0.076 Cl
ATOM     28 CL   UNL     1       7.961  -0.374  -1.786  0.00  0.00    -0.076 Cl
ENDBRANCH   9  20
TORSDOF 2
