REMARK  Name = ZINC00093620
REMARK  8 active torsions:
REMARK  status: ('A' for Active; 'I' for Inactive)
REMARK    1  A    between atoms: C_1  and  C_2
REMARK    2  A    between atoms: C_2  and  O_3
REMARK    3  A    between atoms: O_3  and  C_4
REMARK    4  A    between atoms: C_9  and  O_10
REMARK    5  A    between atoms: O_10  and  C_11
REMARK    6  A    between atoms: C_11  and  C_12
REMARK    7  A    between atoms: C_13  and  C_17
REMARK    8  A    between atoms: C_20  and  O_24
REMARK                            x       y       z     vdW  Elec       q    Type
REMARK                         _______ _______ _______ _____ _____    ______ ____
ROOT
ATOM      1  C   UNL     1       1.205  -0.688  -0.016  0.00  0.00    +0.162 A 
ATOM      2  C   UNL     1       0.002  -0.004   0.002  0.00  0.00    +0.053 A 
ATOM      3  C   UNL     1      -0.017   1.383   0.010  0.00  0.00    -0.044 A 
ATOM      4  C   UNL     1       1.168   2.088   0.002  0.00  0.00    -0.050 A 
ATOM      5  C   UNL     1       2.377   1.407  -0.019  0.00  0.00    +0.052 A 
ATOM      6  C   UNL     1       2.401   0.023  -0.028  0.00  0.00    +0.162 A 
ATOM      7  C   UNL     1       1.197   3.594   0.022  0.00  0.00    -0.010 C 
ATOM      8  C   UNL     1      -1.175   3.539   0.445  0.00  0.00    -0.077 C 
ATOM      9  C   UNL     1      -1.352   2.081   0.020  0.00  0.00    +0.016 C 
ATOM     10  N   UNL     1      -0.108   4.141  -0.375  0.00  0.00    +0.386 N 
ATOM     11  H   UNL     1      -0.279   3.929  -1.365  0.00  0.00    -0.085 HD
ATOM     12  H   UNL     1      -0.106   5.159  -0.238  0.00  0.00    -0.085 HD
ENDROOT
BRANCH   7  13
ATOM     13  C   UNL     1       2.249   4.084  -0.939  0.00  0.00    -0.056 A 
ATOM     14  C   UNL     1       3.487   4.479  -0.464  0.00  0.00    +0.006 A 
ATOM     15  C   UNL     1       4.453   4.929  -1.342  0.00  0.00    +0.047 A 
ATOM     16  C   UNL     1       4.183   4.985  -2.702  0.00  0.00    +0.135 A 
ATOM     17  C   UNL     1       2.940   4.588  -3.176  0.00  0.00    +0.082 A 
ATOM     18  C   UNL     1       1.978   4.133  -2.293  0.00  0.00    +0.026 A 
ATOM     19 CL   UNL     1       2.596   4.656  -4.876  0.00  0.00    -0.080 Cl
BRANCH  16  20
ATOM     20  O   UNL     1       5.132   5.427  -3.567  0.00  0.00    -0.505 OA
ATOM     21  H   UNL     1       5.706   4.729  -3.912  0.00  0.00    +0.292 HD
ENDBRANCH  16  20
ENDBRANCH   7  13
BRANCH   1  22
ATOM     22  O   UNL     1       1.218  -2.047  -0.023  0.00  0.00    -0.489 OA
BRANCH  22  24
ATOM     23  C   UNL     1       0.167  -4.223  -0.019  0.00  0.00    +0.048 C 
ATOM     24  C   UNL     1      -0.049  -2.709  -0.010  0.00  0.00    +0.226 C 
ENDBRANCH  22  24
ENDBRANCH   1  22
BRANCH   6  25
ATOM     25  O   UNL     1       3.589  -0.639  -0.048  0.00  0.00    -0.489 OA
BRANCH  25  26
ATOM     26  C   UNL     1       4.776   0.158  -0.059  0.00  0.00    +0.226 C 
ATOM     27  C   UNL     1       6.003  -0.756  -0.082  0.00  0.00    +0.048 C 
ENDBRANCH  25  26
ENDBRANCH   6  25
TORSDOF 6
