REMARK  Name = ZINC05772516
REMARK  2 active torsions:
REMARK  status: ('A' for Active; 'I' for Inactive)
REMARK    1  A    between atoms: C_4  and  C_7
REMARK    2  A    between atoms: C_17  and  C_19
REMARK                            x       y       z     vdW  Elec       q    Type
REMARK                         _______ _______ _______ _____ _____    ______ ____
ROOT
ATOM      1  C   UNL     1      -0.024   1.066  -0.177  0.00  0.00    +0.028 C 
ATOM      2  C   UNL     1      -1.206   1.711  -0.003  0.00  0.00    +0.082 A 
ATOM      3  C   UNL     1      -1.484   3.152   0.061  0.00  0.00    +0.288 A 
ATOM      4  O   UNL     1      -0.587   3.967  -0.048  0.00  0.00    -0.265 OA
ATOM      5  N   UNL     1      -2.755   3.545   0.243  0.00  0.00    -0.170 N 
ATOM      6  C   UNL     1      -3.724   2.582   0.360  0.00  0.00    +0.201 A 
ATOM      7  S   UNL     1      -2.848   1.038   0.205  0.00  0.00    -0.044 S 
ATOM      8  N   UNL     1      -4.995   2.844   0.539  0.00  0.00    -0.181 NA
ATOM      9  C   UNL     1      -5.429   4.107   0.621  0.00  0.00    +0.300 A 
ATOM     10  O   UNL     1      -6.613   4.354   0.788  0.00  0.00    -0.263 OA
ATOM     11  C   UNL     1      -4.439   5.193   0.504  0.00  0.00    +0.158 A 
ATOM     12  N   UNL     1      -3.181   4.899   0.325  0.00  0.00    -0.156 NA
ENDROOT
BRANCH   1  16
ATOM     13  C   UNL     1       3.464   3.264  -1.166  0.00  0.00    +0.000 A 
ATOM     14  C   UNL     1       3.536   2.238  -0.239  0.00  0.00    +0.001 A 
ATOM     15  C   UNL     1       2.407   1.519   0.089  0.00  0.00    +0.008 A 
ATOM     16  C   UNL     1       1.185   1.827  -0.520  0.00  0.00    -0.024 A 
ATOM     17  C   UNL     1       1.122   2.861  -1.461  0.00  0.00    +0.008 A 
ATOM     18  C   UNL     1       2.259   3.575  -1.772  0.00  0.00    +0.001 A 
ENDBRANCH   1  16
BRANCH  11  19
ATOM     19  C   UNL     1      -4.870   6.608   0.588  0.00  0.00    +0.007 A 
ATOM     20  C   UNL     1      -6.153   6.974   0.184  0.00  0.00    +0.010 A 
ATOM     21  C   UNL     1      -6.550   8.293   0.269  0.00  0.00    +0.001 A 
ATOM     22  C   UNL     1      -5.674   9.253   0.745  0.00  0.00    +0.000 A 
ATOM     23  C   UNL     1      -4.398   8.896   1.142  0.00  0.00    +0.001 A 
ATOM     24  C   UNL     1      -3.991   7.580   1.066  0.00  0.00    +0.010 A 
ENDBRANCH  11  19
TORSDOF 2
