REMARK  Name = ZINC46561570
REMARK  4 active torsions:
REMARK  status: ('A' for Active; 'I' for Inactive)
REMARK    1  A    between atoms: C_1  and  C_2
REMARK    2  A    between atoms: C_2  and  C_3
REMARK    3  A    between atoms: C_2  and  C_4
REMARK    4  A    between atoms: C_12  and  C_14
REMARK                            x       y       z     vdW  Elec       q    Type
REMARK                         _______ _______ _______ _____ _____    ______ ____
ROOT
ATOM      1  C   UNL     1      -1.305  -0.901  -0.837  0.00  0.00    +0.218 C 
ATOM      2  O   UNL     1      -2.227  -0.157  -1.099  0.00  0.00    -0.275 OA
ATOM      3  N   UNL     1      -1.548  -2.185  -0.506  0.00  0.00    -0.298 N 
ATOM      4  C   UNL     1      -0.455  -3.066  -0.074  0.00  0.00    +0.126 C 
ATOM      5  C   UNL     1      -0.813  -3.656   1.295  0.00  0.00    +0.126 C 
ATOM      6  N   UNL     1      -2.177  -4.200   1.230  0.00  0.00    -0.298 N 
ATOM      7  C   UNL     1      -3.271  -3.318   0.798  0.00  0.00    +0.126 C 
ATOM      8  C   UNL     1      -2.913  -2.727  -0.566  0.00  0.00    +0.126 C 
ATOM      9  C   UNL     1      -2.420  -5.483   1.561  0.00  0.00    +0.222 C 
ATOM     10  O   UNL     1      -1.502  -6.218   1.855  0.00  0.00    -0.275 OA
ENDROOT
BRANCH   9  11
ATOM     11  C   UNL     1      -3.834  -6.005   1.565  0.00  0.00    +0.117 C 
ATOM     12  C   UNL     1      -3.826  -7.514   1.821  0.00  0.00    +0.055 C 
ATOM     13  C   UNL     1      -5.226  -7.986   2.119  0.00  0.00    -0.004 A 
ATOM     14  C   UNL     1      -5.511  -9.338   2.010  0.00  0.00    +0.027 A 
ATOM     15  C   UNL     1      -6.784  -9.806   2.279  0.00  0.00    +0.041 A 
ATOM     16  C   UNL     1      -7.779  -8.923   2.659  0.00  0.00    +0.023 A 
ATOM     17  C   UNL     1      -7.500  -7.576   2.767  0.00  0.00    +0.047 A 
ATOM     18  C   UNL     1      -6.221  -7.101   2.495  0.00  0.00    +0.124 A 
ATOM     19  O   UNL     1      -5.989  -5.767   2.602  0.00  0.00    -0.491 OA
ATOM     20  C   UNL     1      -4.631  -5.330   2.688  0.00  0.00    +0.242 C 
ATOM     21 CL   UNL     1      -7.133 -11.501   2.141  0.00  0.00    -0.084 Cl
ENDBRANCH   9  11
BRANCH   1  23
ATOM     22  C   UNL     1       0.196   0.797  -1.842  0.00  0.00    +0.017 C 
ATOM     23  C   UNL     1       0.112  -0.390  -0.881  0.00  0.00    +0.069 C 
ATOM     24  C   UNL     1       0.537   0.056   0.519  0.00  0.00    +0.017 C 
ENDBRANCH   1  23
TORSDOF 2
