REMARK  Name = ZINC41069232
REMARK  6 active torsions:
REMARK  status: ('A' for Active; 'I' for Inactive)
REMARK    1  A    between atoms: C_3  and  C_9
REMARK    2  A    between atoms: C_4  and  O_8
REMARK    3  A    between atoms: C_6  and  O_7
REMARK    4  A    between atoms: C_9  and  N_10
REMARK    5  A    between atoms: N_10  and  C_11
REMARK    6  A    between atoms: C_11  and  C_12
REMARK                            x       y       z     vdW  Elec       q    Type
REMARK                         _______ _______ _______ _____ _____    ______ ____
ROOT
ATOM      1  N   UNL     1       4.200   2.249  -1.391  0.00  0.00    +0.385 N 
ATOM      2  H   UNL     1       4.368   1.311  -1.722  0.00  0.00    -0.085 HD
ATOM      3  H   UNL     1       3.531   2.704  -1.993  0.00  0.00    -0.085 HD
ENDROOT
BRANCH   1   4
ATOM      4  C   UNL     1       3.670   2.196  -0.022  0.00  0.00    -0.043 C 
BRANCH   4   7
ATOM      5  C   UNL     1      -0.017   1.383   0.010  0.00  0.00    +0.046 A 
ATOM      6  C   UNL     1       1.170   2.092   0.002  0.00  0.00    +0.009 A 
ATOM      7  C   UNL     1       2.377   1.421  -0.013  0.00  0.00    -0.023 A 
ATOM      8  C   UNL     1       2.402   0.033  -0.021  0.00  0.00    +0.122 A 
ATOM      9  C   UNL     1       1.213  -0.680  -0.013  0.00  0.00    +0.091 A 
ATOM     10  C   UNL     1       0.002  -0.004   0.002  0.00  0.00    +0.120 A 
BRANCH  10  11
ATOM     11  O   UNL     1      -1.165  -0.700   0.010  0.00  0.00    -0.507 OA
ATOM     12  H   UNL     1      -1.512  -0.897  -0.871  0.00  0.00    +0.292 HD
ENDBRANCH  10  11
BRANCH   8  13
ATOM     13  O   UNL     1       3.590  -0.626  -0.036  0.00  0.00    -0.506 OA
ATOM     14  H   UNL     1       3.942  -0.822   0.843  0.00  0.00    +0.292 HD
ENDBRANCH   8  13
ENDBRANCH   4   7
ENDBRANCH   1   4
BRANCH   1  15
ATOM     15  C   UNL     1       5.459   3.005  -1.399  0.00  0.00    -0.043 C 
BRANCH  15  16
ATOM     16  C   UNL     1       6.003   3.059  -2.803  0.00  0.00    -0.028 A 
ATOM     17  C   UNL     1       7.011   2.194  -3.188  0.00  0.00    +0.019 A 
ATOM     18  C   UNL     1       7.510   2.244  -4.477  0.00  0.00    +0.018 A 
ATOM     19  C   UNL     1       7.002   3.158  -5.382  0.00  0.00    +0.018 A 
ATOM     20  C   UNL     1       5.995   4.023  -4.999  0.00  0.00    +0.039 A 
ATOM     21  C   UNL     1       5.490   3.970  -3.710  0.00  0.00    +0.125 A 
ATOM     22  F   UNL     1       4.502   4.812  -3.336  0.00  0.00    -0.205 F 
ATOM     23 BR   UNL     1       8.889   1.061  -5.002  0.00  0.00    -0.050 Br
ENDBRANCH  15  16
ENDBRANCH   1  15
TORSDOF 6
