REMARK  Name = ZINC59099773
REMARK  13 active torsions:
REMARK  status: ('A' for Active; 'I' for Inactive)
REMARK    1  A    between atoms: C_1  and  C_2
REMARK    2  A    between atoms: C_5  and  N_9
REMARK    3  A    between atoms: C_7  and  C_8
REMARK    4  A    between atoms: N_9  and  C_10
REMARK    5  A    between atoms: C_10  and  N_12
REMARK    6  A    between atoms: N_12  and  C_13
REMARK    7  A    between atoms: N_12  and  C_20
REMARK    8  A    between atoms: C_13  and  C_14
REMARK    9  A    between atoms: C_17  and  C_19
REMARK   10  A    between atoms: C_22  and  C_28
REMARK   11  A    between atoms: C_22  and  C_29
REMARK   12  A    between atoms: C_24  and  C_26
REMARK   13  A    between atoms: C_24  and  C_27
REMARK                            x       y       z     vdW  Elec       q    Type
REMARK                         _______ _______ _______ _____ _____    ______ ____
ROOT
ATOM      1  N   UNL     1      -0.472  -6.209  -1.079  0.00  0.00    -0.302 N 
ENDROOT
BRANCH   1   2
ATOM      2  C   UNL     1      -0.604  -6.909   0.205  0.00  0.00    +0.073 C 
ATOM      3  C   UNL     1      -1.705  -6.240   1.030  0.00  0.00    +0.009 C 
ATOM      4  C   UNL     1      -1.846  -6.950   2.377  0.00  0.00    -0.072 C 
ATOM      5  N   UNL     1      -0.581  -7.025   3.092  0.00  0.00    +0.386 N 
ATOM      6  C   UNL     1       0.591  -7.455   2.348  0.00  0.00    -0.072 C 
ATOM      7  C   UNL     1       0.710  -6.795   0.978  0.00  0.00    +0.009 C 
ATOM      8  C   UNL     1       1.838  -7.042   3.166  0.00  0.00    -0.010 C 
ATOM      9  C   UNL     1       0.640  -8.978   2.199  0.00  0.00    -0.010 C 
ATOM     10  C   UNL     1      -2.482  -8.326   2.185  0.00  0.00    -0.010 C 
ATOM     11  C   UNL     1      -2.820  -6.111   3.236  0.00  0.00    -0.010 C 
ATOM     12  H   UNL     1      -0.386  -6.105   3.496  0.00  0.00    -0.084 HD
ATOM     13  H   UNL     1      -0.702  -7.650   3.893  0.00  0.00    -0.084 HD
ENDBRANCH   1   2
BRANCH   1  14
ATOM     14  C   UNL     1      -0.284  -4.875  -1.104  0.00  0.00    +0.138 C 
ATOM     15  S   UNL     1      -0.255  -4.042  -2.599  0.00  0.00    -0.018 S 
BRANCH  14  16
ATOM     16  N   UNL     1      -0.118  -4.196   0.049  0.00  0.00    -0.297 N 
ATOM     17  H   UNL     1      -0.056  -4.676   0.889  0.00  0.00    +0.154 HD
BRANCH  16  22
ATOM     18  C   UNL     1       0.213   1.466  -0.018  0.00  0.00    +0.044 C 
ATOM     19  C   UNL     1       0.125  -0.038  -0.000  0.00  0.00    -0.047 A 
ATOM     20  C   UNL     1       0.892  -0.784  -0.876  0.00  0.00    +0.005 A 
ATOM     21  C   UNL     1       0.814  -2.163  -0.862  0.00  0.00    +0.023 A 
ATOM     22  C   UNL     1      -0.036  -2.800   0.033  0.00  0.00    +0.033 A 
ATOM     23  C   UNL     1      -0.805  -2.048   0.910  0.00  0.00    +0.027 A 
ATOM     24  C   UNL     1      -0.718  -0.669   0.896  0.00  0.00    -0.046 A 
ATOM     25  C   UNL     1      -1.548   0.148   1.852  0.00  0.00    +0.044 C 
ENDBRANCH  16  22
ENDBRANCH  14  16
ENDBRANCH   1  14
BRANCH   1  26
ATOM     26  C   UNL     1      -0.545  -6.962  -2.334  0.00  0.00    +0.181 C 
BRANCH  26  27
ATOM     27  C   UNL     1       0.837  -7.418  -2.727  0.00  0.00    +0.122 A 
ATOM     28  C   UNL     1       1.411  -8.582  -2.374  0.00  0.00    +0.046 A 
ATOM     29  C   UNL     1       2.699  -8.597  -2.958  0.00  0.00    +0.045 A 
ATOM     30  C   UNL     1       2.834  -7.441  -3.633  0.00  0.00    +0.102 A 
ATOM     31  O   UNL     1       1.701  -6.734  -3.494  0.00  0.00    -0.463 OA
ATOM     32  C   UNL     1       4.049  -7.015  -4.417  0.00  0.00    +0.086 C 
ENDBRANCH  26  27
ENDBRANCH   1  26
TORSDOF 6
