REMARK  Name = ZINC33326683
REMARK  9 active torsions:
REMARK  status: ('A' for Active; 'I' for Inactive)
REMARK    1  A    between atoms: C_1  and  C_2
REMARK    2  A    between atoms: C_6  and  N_8
REMARK    3  A    between atoms: N_8  and  C_9
REMARK    4  A    between atoms: N_8  and  C_10
REMARK    5  A    between atoms: N_11  and  C_12
REMARK    6  A    between atoms: C_15  and  N_18
REMARK    7  A    between atoms: N_21  and  C_22
REMARK    8  A    between atoms: C_25  and  O_29
REMARK    9  A    between atoms: O_29  and  C_30
REMARK                            x       y       z     vdW  Elec       q    Type
REMARK                         _______ _______ _______ _____ _____    ______ ____
ROOT
ATOM      1  C   UNL     1      -8.213   1.356   0.414  0.00  0.00    +0.032 A 
ATOM      2  C   UNL     1      -8.045   2.715   0.649  0.00  0.00    +0.025 A 
ATOM      3  C   UNL     1      -6.777   3.237   0.806  0.00  0.00    +0.025 A 
ATOM      4  C   UNL     1      -5.668   2.403   0.730  0.00  0.00    +0.035 A 
ATOM      5  C   UNL     1      -5.836   1.046   0.489  0.00  0.00    +0.025 A 
ATOM      6  C   UNL     1      -7.104   0.523   0.337  0.00  0.00    +0.025 A 
ENDROOT
BRANCH   1  14
ATOM      7  C   UNL     1     -12.506  -2.311  -1.768  0.00  0.00    +0.086 C 
ATOM      8  C   UNL     1     -11.161  -1.631  -1.734  0.00  0.00    +0.107 A 
ATOM      9  N   UNL     1     -10.920  -0.737  -0.798  0.00  0.00    -0.332 N 
ATOM     10  C   UNL     1      -9.744  -0.114  -0.734  0.00  0.00    +0.105 A 
ATOM     11  C   UNL     1      -8.767  -0.418  -1.678  0.00  0.00    +0.085 A 
ATOM     12  C   UNL     1      -9.061  -1.373  -2.646  0.00  0.00    +0.126 A 
ATOM     13  N   UNL     1     -10.261  -1.950  -2.642  0.00  0.00    -0.219 NA
ATOM     14  N   UNL     1      -9.499   0.827   0.255  0.00  0.00    -0.301 N 
ATOM     15  H   UNL     1     -10.315   1.157   0.914  0.00  0.00    +0.154 HD
ATOM     16  H   UNL     1     -11.695  -0.495  -0.055  0.00  0.00    +0.168 HD
BRANCH  12  17
ATOM     17  N   UNL     1      -8.120  -1.715  -3.605  0.00  0.00    -0.321 N 
ATOM     18  C   UNL     1      -6.767  -1.156  -3.536  0.00  0.00    +0.130 C 
ATOM     19  C   UNL     1      -8.477  -2.635  -4.687  0.00  0.00    +0.130 C 
ENDBRANCH  12  17
ENDBRANCH   1  14
BRANCH   4  20
ATOM     20  N   UNL     1      -4.381   2.933   0.889  0.00  0.00    -0.269 N 
ATOM     21  C   UNL     1      -4.169   3.936   1.765  0.00  0.00    +0.308 C 
ATOM     22  O   UNL     1      -5.074   4.320   2.480  0.00  0.00    -0.252 OA
ATOM     23  N   UNL     1      -2.953   4.512   1.848  0.00  0.00    -0.269 N 
ATOM     24  H   UNL     1      -3.543   2.531   0.300  0.00  0.00    +0.156 HD
ATOM     25  H   UNL     1      -2.160   4.227   1.141  0.00  0.00    +0.156 HD
BRANCH  23  26
ATOM     26  C   UNL     1      -2.700   5.475   2.834  0.00  0.00    +0.036 A 
ATOM     27  C   UNL     1      -3.275   5.348   4.092  0.00  0.00    +0.027 A 
ATOM     28  C   UNL     1      -3.030   6.300   5.062  0.00  0.00    +0.049 A 
ATOM     29  C   UNL     1      -2.201   7.377   4.784  0.00  0.00    +0.138 A 
ATOM     30  C   UNL     1      -1.622   7.502   3.529  0.00  0.00    +0.084 A 
ATOM     31  C   UNL     1      -1.871   6.553   2.555  0.00  0.00    +0.047 A 
ATOM     32 CL   UNL     1      -0.585   8.850   3.182  0.00  0.00    -0.080 Cl
BRANCH  29  33
ATOM     33  O   UNL     1      -1.956   8.311   5.742  0.00  0.00    -0.494 OA
ATOM     34  C   UNL     1      -2.585   8.120   7.011  0.00  0.00    +0.277 C 
ENDBRANCH  29  33
ENDBRANCH  23  26
ENDBRANCH   4  20
TORSDOF 5
