REMARK  Name = ZINC08253749
REMARK  9 active torsions:
REMARK  status: ('A' for Active; 'I' for Inactive)
REMARK    1  A    between atoms: C_1  and  C_2
REMARK    2  A    between atoms: C_2  and  O_3
REMARK    3  A    between atoms: O_3  and  C_4
REMARK    4  A    between atoms: C_6  and  C_16
REMARK    5  A    between atoms: C_9  and  O_10
REMARK    6  A    between atoms: O_10  and  C_11
REMARK    7  A    between atoms: C_11  and  C_12
REMARK    8  A    between atoms: C_16  and  N_50
REMARK    9  A    between atoms: C_17  and  N_50
REMARK                            x       y       z     vdW  Elec       q    Type
REMARK                         _______ _______ _______ _____ _____    ______ ____
ROOT
ATOM      1  C   UNL     1      -0.561   0.005   2.998  0.00  0.00    +0.164 A 
ATOM      2  C   UNL     1      -0.011  -0.365   4.215  0.00  0.00    +0.051 A 
ATOM      3  C   UNL     1       0.938   0.439   4.819  0.00  0.00    -0.059 A 
ATOM      4  C   UNL     1       1.345   1.611   4.208  0.00  0.00    +0.025 A 
ATOM      5  C   UNL     1       0.803   1.984   2.991  0.00  0.00    +0.086 A 
ATOM      6  C   UNL     1      -0.148   1.182   2.381  0.00  0.00    +0.181 A 
ATOM      7 CL   UNL     1       1.316   3.457   2.228  0.00  0.00    -0.080 Cl
ENDROOT
BRANCH   1   8
ATOM      8  O   UNL     1      -1.498  -0.782   2.406  0.00  0.00    -0.489 OA
BRANCH   8  10
ATOM      9  C   UNL     1      -2.931  -2.725   2.284  0.00  0.00    +0.048 C 
ATOM     10  C   UNL     1      -1.874  -1.975   3.098  0.00  0.00    +0.226 C 
ENDBRANCH   8  10
ENDBRANCH   1   8
BRANCH   6  11
ATOM     11  O   UNL     1      -0.682   1.547   1.184  0.00  0.00    -0.478 OA
BRANCH  11  12
ATOM     12  C   UNL     1      -0.013   1.086   0.008  0.00  0.00    +0.324 C 
BRANCH  12  13
ATOM     13  C   UNL     1      -0.742   1.585  -1.213  0.00  0.00    +0.248 C 
ATOM     14  O   UNL     1      -1.736   2.268  -1.088  0.00  0.00    -0.272 OA
ATOM     15  N   UNL     1      -0.288   1.272  -2.443  0.00  0.00    -0.327 N 
ATOM     16  H   UNL     1       0.507   0.726  -2.543  0.00  0.00    +0.145 HD
ATOM     17  H   UNL     1      -0.758   1.594  -3.229  0.00  0.00    +0.145 HD
ENDBRANCH  12  13
ENDBRANCH  11  12
ENDBRANCH   6  11
BRANCH   3  18
ATOM     18  C   UNL     1       1.530   0.038   6.145  0.00  0.00    -0.046 C 
BRANCH  18  19
ATOM     19  N   UNL     1       0.709   0.605   7.232  0.00  0.00    +0.384 N 
ATOM     20  H   UNL     1      -0.250   0.245   7.155  0.00  0.00    -0.085 HD
ATOM     21  H   UNL     1       0.698   1.628   7.150  0.00  0.00    -0.085 HD
BRANCH  19  22
ATOM     22  C   UNL     1       1.266   0.227   8.545  0.00  0.00    -0.071 C 
ATOM     23  C   UNL     1       0.752  -1.178   8.921  0.00  0.00    -0.016 C 
ATOM     24  C   UNL     1       1.674  -1.762   9.958  0.00  0.00    -0.002 C 
ATOM     25  C   UNL     1       1.178  -1.510  11.394  0.00  0.00    -0.000 C 
ATOM     26  C   UNL     1       0.627  -0.085  11.595  0.00  0.00    -0.000 C 
ATOM     27  C   UNL     1       1.471   0.960  10.917  0.00  0.00    -0.002 C 
ATOM     28  C   UNL     1       0.880   1.236   9.520  0.00  0.00    -0.016 C 
ENDBRANCH  19  22
ENDBRANCH  18  19
ENDBRANCH   3  18
TORSDOF 8
