REMARK  Name = ZINC08076046
REMARK  11 active torsions:
REMARK  status: ('A' for Active; 'I' for Inactive)
REMARK    1  A    between atoms: C_1  and  C_2
REMARK    2  A    between atoms: C_2  and  C_3
REMARK    3  A    between atoms: C_2  and  C_4
REMARK    4  A    between atoms: C_4  and  C_6
REMARK    5  A    between atoms: C_4  and  N_19
REMARK    6  A    between atoms: N_8  and  C_9
REMARK    7  A    between atoms: C_11  and  C_17
REMARK    8  A    between atoms: C_11  and  C_18
REMARK    9  A    between atoms: C_13  and  C_15
REMARK   10  A    between atoms: C_13  and  C_16
REMARK   11  A    between atoms: C_20  and  C_22
REMARK                            x       y       z     vdW  Elec       q    Type
REMARK                         _______ _______ _______ _____ _____    ______ ____
ROOT
ATOM      1  C   UNL     1      -2.526   0.078   0.388  0.00  0.00    +0.162 C 
ENDROOT
BRANCH   1   2
ATOM      2  C   UNL     1      -3.034   0.413  -0.991  0.00  0.00    +0.234 C 
ATOM      3  O   UNL     1      -3.509  -0.456  -1.690  0.00  0.00    -0.274 OA
ATOM      4  N   UNL     1      -2.959   1.679  -1.447  0.00  0.00    -0.311 N 
ATOM      5  H   UNL     1      -2.645   2.388  -0.863  0.00  0.00    +0.149 HD
BRANCH   4   6
ATOM      6  C   UNL     1      -3.352   1.986  -2.828  0.00  0.00    +0.070 C 
ATOM      7  C   UNL     1      -2.151   1.774  -3.752  0.00  0.00    +0.009 C 
ATOM      8  C   UNL     1      -2.542   2.102  -5.193  0.00  0.00    -0.072 C 
ATOM      9  N   UNL     1      -3.112   3.435  -5.316  0.00  0.00    +0.386 N 
ATOM     10  C   UNL     1      -4.129   3.827  -4.353  0.00  0.00    -0.072 C 
ATOM     11  C   UNL     1      -3.773   3.453  -2.918  0.00  0.00    +0.009 C 
ATOM     12  C   UNL     1      -4.251   5.368  -4.408  0.00  0.00    -0.010 C 
ATOM     13  C   UNL     1      -5.502   3.257  -4.716  0.00  0.00    -0.010 C 
ATOM     14  C   UNL     1      -3.472   1.024  -5.746  0.00  0.00    -0.010 C 
ATOM     15  C   UNL     1      -1.247   2.068  -6.037  0.00  0.00    -0.010 C 
ATOM     16  H   UNL     1      -2.349   4.115  -5.274  0.00  0.00    -0.084 HD
ATOM     17  H   UNL     1      -3.505   3.530  -6.256  0.00  0.00    -0.084 HD
ENDBRANCH   4   6
ENDBRANCH   1   2
BRANCH   1  18
ATOM     18  N   UNL     1      -3.143  -1.169   0.846  0.00  0.00    -0.300 N 
ATOM     19  C   UNL     1      -3.263  -1.417   2.165  0.00  0.00    +0.250 C 
ATOM     20  O   UNL     1      -2.859  -0.606   2.975  0.00  0.00    -0.270 OA
ATOM     21  H   UNL     1      -3.466  -1.817   0.199  0.00  0.00    +0.150 HD
BRANCH  19  22
ATOM     22  C   UNL     1      -3.885  -2.673   2.626  0.00  0.00    +0.107 A 
ATOM     23  C   UNL     1      -3.097  -3.808   2.849  0.00  0.00    +0.138 A 
ATOM     24  C   UNL     1      -3.688  -4.980   3.281  0.00  0.00    +0.039 A 
ATOM     25  C   UNL     1      -5.053  -5.034   3.493  0.00  0.00    +0.006 A 
ATOM     26  C   UNL     1      -5.840  -3.918   3.275  0.00  0.00    +0.039 A 
ATOM     27  C   UNL     1      -5.265  -2.735   2.848  0.00  0.00    +0.138 A 
ATOM     28  F   UNL     1      -6.034  -1.644   2.641  0.00  0.00    -0.205 F 
ATOM     29  F   UNL     1      -1.763  -3.757   2.642  0.00  0.00    -0.205 F 
ENDBRANCH  19  22
ENDBRANCH   1  18
BRANCH   1  31
ATOM     30  C   UNL     1      -0.483  -0.364   1.757  0.00  0.00    +0.009 C 
ATOM     31  C   UNL     1      -1.006  -0.091   0.345  0.00  0.00    +0.012 C 
ATOM     32  C   UNL     1      -0.649  -1.266  -0.567  0.00  0.00    +0.009 C 
ENDBRANCH   1  31
TORSDOF 5
