REMARK  Name = ZINC04754177
REMARK  17 active torsions:
REMARK  status: ('A' for Active; 'I' for Inactive)
REMARK    1  A    between atoms: C_1  and  C_2
REMARK    2  A    between atoms: C_2  and  C_30
REMARK    3  A    between atoms: N_5  and  N_6
REMARK    4  A    between atoms: C_7  and  C_9
REMARK    5  A    between atoms: C_9  and  C_10
REMARK    6  A    between atoms: C_10  and  C_11
REMARK    7  A    between atoms: C_13  and  C_22
REMARK    8  A    between atoms: C_14  and  O_21
REMARK    9  A    between atoms: C_15  and  C_17
REMARK   10  A    between atoms: C_17  and  C_18
REMARK   11  A    between atoms: C_17  and  C_19
REMARK   12  A    between atoms: C_17  and  C_20
REMARK   13  A    between atoms: C_22  and  C_23
REMARK   14  A    between atoms: C_22  and  C_24
REMARK   15  A    between atoms: C_22  and  C_25
REMARK   16  A    between atoms: C_27  and  C_28
REMARK   17  A    between atoms: C_27  and  C_29
REMARK                            x       y       z     vdW  Elec       q    Type
REMARK                         _______ _______ _______ _____ _____    ______ ____
ROOT
ATOM      1  C   UNL     1       4.271  -0.102   3.243  0.00  0.00    +0.102 C 
ENDROOT
BRANCH   1   3
ATOM      2  N   UNL     1       6.720  -0.368   3.023  0.00  0.00    -0.207 N 
ATOM      3  C   UNL     1       5.507  -0.951   3.090  0.00  0.00    +0.232 C 
ATOM      4  O   UNL     1       5.410  -2.158   3.027  0.00  0.00    -0.274 OA
ATOM      5  H   UNL     1       6.798   0.598   3.073  0.00  0.00    +0.177 HD
BRANCH   2  10
ATOM      6  C   UNL     1      12.352  -1.440   1.119  0.00  0.00    -0.010 C 
ATOM      7  C   UNL     1      10.909  -0.890   1.162  0.00  0.00    -0.068 C 
ATOM      8  C   UNL     1      10.256  -1.413   2.445  0.00  0.00    +0.039 C 
ATOM      9  C   UNL     1       9.009  -0.601   2.717  0.00  0.00    +0.034 C 
ATOM     10  N   UNL     1       7.870  -1.156   2.881  0.00  0.00    -0.189 NA
ATOM     11  C   UNL     1       9.179   0.900   2.789  0.00  0.00    +0.039 C 
ATOM     12  C   UNL     1       9.844   1.375   1.494  0.00  0.00    -0.068 C 
ATOM     13  C   UNL     1      10.350   2.815   1.732  0.00  0.00    -0.010 C 
ATOM     14  C   UNL     1       8.792   1.440   0.380  0.00  0.00    -0.010 C 
ATOM     15  C   UNL     1      10.168  -1.464  -0.051  0.00  0.00    -0.010 C 
ATOM     16  N   UNL     1      11.044   0.592   1.085  0.00  0.00    +0.386 N 
ATOM     17  H   UNL     1      11.264   0.837   0.112  0.00  0.00    -0.084 HD
ATOM     18  H   UNL     1      11.824   0.869   1.692  0.00  0.00    -0.084 HD
ENDBRANCH   2  10
ENDBRANCH   1   3
BRANCH   1  19
ATOM     19  C   UNL     1       3.036  -1.005   3.293  0.00  0.00    +0.044 C 
BRANCH  19  20
ATOM     20  C   UNL     1       1.800  -0.156   3.446  0.00  0.00    -0.046 A 
ATOM     21  C   UNL     1       1.334   0.163   4.708  0.00  0.00    +0.011 A 
ATOM     22  C   UNL     1       0.201   0.941   4.851  0.00  0.00    -0.000 A 
ATOM     23  C   UNL     1      -0.466   1.406   3.727  0.00  0.00    +0.124 A 
ATOM     24  C   UNL     1       0.001   1.080   2.462  0.00  0.00    -0.000 A 
ATOM     25  C   UNL     1       1.135   0.302   2.324  0.00  0.00    +0.011 A 
BRANCH  24  26
ATOM     26  C   UNL     1      -0.723   1.580   1.238  0.00  0.00    -0.009 C 
ATOM     27  C   UNL     1      -0.003   1.087  -0.018  0.00  0.00    +0.015 C 
ATOM     28  C   UNL     1      -0.744   3.110   1.247  0.00  0.00    +0.015 C 
ATOM     29  C   UNL     1      -2.159   1.050   1.244  0.00  0.00    +0.015 C 
ENDBRANCH  24  26
BRANCH  22  30
ATOM     30  C   UNL     1      -0.306   1.289   6.226  0.00  0.00    -0.009 C 
ATOM     31  C   UNL     1       0.607   0.660   7.281  0.00  0.00    +0.015 C 
ATOM     32  C   UNL     1      -0.313   2.809   6.398  0.00  0.00    +0.015 C 
ATOM     33  C   UNL     1      -1.728   0.750   6.397  0.00  0.00    +0.015 C 
ENDBRANCH  22  30
BRANCH  23  34
ATOM     34  O   UNL     1      -1.577   2.176   3.864  0.00  0.00    -0.506 OA
ATOM     35  H   UNL     1      -2.401   1.673   3.906  0.00  0.00    +0.292 HD
ENDBRANCH  23  34
ENDBRANCH  19  20
ENDBRANCH   1  19
TORSDOF 7
