REMARK  Name = ZINC36264952
REMARK  5 active torsions:
REMARK  status: ('A' for Active; 'I' for Inactive)
REMARK    1  A    between atoms: C_4  and  C_17
REMARK    2  A    between atoms: C_6  and  S_7
REMARK    3  A    between atoms: S_7  and  N_10
REMARK    4  A    between atoms: N_10  and  C_11
REMARK    5  A    between atoms: C_14  and  N_16
REMARK                            x       y       z     vdW  Elec       q    Type
REMARK                         _______ _______ _______ _____ _____    ______ ____
ROOT
ATOM      1  S   UNL     1      -1.512  -0.905   0.012  0.00  0.00    +0.059 S 
ATOM      2  O   UNL     1      -1.218  -2.186   0.553  0.00  0.00    -0.153 OA
ATOM      3  O   UNL     1      -2.492  -0.046   0.578  0.00  0.00    -0.153 OA
ENDROOT
BRANCH   1   9
ATOM      4  C   UNL     1      -0.017   1.378   0.010  0.00  0.00    +0.030 A 
ATOM      5  C   UNL     1       1.171   2.086   0.002  0.00  0.00    +0.022 A 
ATOM      6  C   UNL     1       2.378   1.410  -0.013  0.00  0.00    +0.053 A 
ATOM      7  C   UNL     1       2.396   0.027  -0.021  0.00  0.00    +0.075 A 
ATOM      8  C   UNL     1       1.208  -0.680  -0.013  0.00  0.00    +0.042 A 
ATOM      9  C   UNL     1       0.002  -0.004   0.002  0.00  0.00    +0.106 A 
ATOM     10 CL   UNL     1       3.870   2.298  -0.023  0.00  0.00    -0.083 Cl
BRANCH   7  11
ATOM     11  C   UNL     1       3.711  -0.710  -0.038  0.00  0.00    +0.419 C 
ATOM     12  F   UNL     1       3.473  -2.088  -0.043  0.00  0.00    -0.166 F 
ATOM     13  F   UNL     1       4.429  -0.356  -1.185  0.00  0.00    -0.166 F 
ATOM     14  F   UNL     1       4.451  -0.368   1.099  0.00  0.00    -0.166 F 
ENDBRANCH   7  11
ENDBRANCH   1   9
BRANCH   1  15
ATOM     15  N   UNL     1      -1.948  -1.147  -1.567  0.00  0.00    -0.189 NA
ATOM     16  H   UNL     1      -2.756  -0.738  -1.915  0.00  0.00    +0.148 HD
BRANCH  15  17
ATOM     17  C   UNL     1      -1.115  -1.980  -2.438  0.00  0.00    +0.061 C 
ATOM     18  C   UNL     1      -1.031  -1.592  -3.916  0.00  0.00    +0.004 C 
ATOM     19  C   UNL     1      -1.825  -2.831  -3.492  0.00  0.00    -0.055 C 
BRANCH  19  20
ATOM     20  N   UNL     1      -1.248  -4.145  -3.804  0.00  0.00    +0.381 N 
ATOM     21  H   UNL     1      -1.233  -4.712  -2.969  0.00  0.00    -0.090 HD
ATOM     22  H   UNL     1      -1.808  -4.600  -4.509  0.00  0.00    -0.090 HD
ATOM     23  H   UNL     1      -0.306  -4.027  -4.147  0.00  0.00    -0.090 HD
ENDBRANCH  19  20
ENDBRANCH  15  17
ENDBRANCH   1  15
TORSDOF 5
