REMARK  Name = ZINC05766439
REMARK  7 active torsions:
REMARK  status: ('A' for Active; 'I' for Inactive)
REMARK    1  A    between atoms: C_1  and  C_2
REMARK    2  A    between atoms: C_5  and  S_8
REMARK    3  A    between atoms: S_8  and  C_11
REMARK    4  A    between atoms: C_14  and  C_15
REMARK    5  A    between atoms: C_14  and  C_16
REMARK    6  A    between atoms: C_19  and  C_20
REMARK    7  A    between atoms: C_19  and  C_21
REMARK                            x       y       z     vdW  Elec       q    Type
REMARK                         _______ _______ _______ _____ _____    ______ ____
ROOT
ATOM      1  S   UNL     1      -0.548   2.760   0.852  0.00  0.00    +0.007 S 
ATOM      2  O   UNL     1      -0.475   4.176   0.762  0.00  0.00    -0.169 OA
ATOM      3  O   UNL     1      -1.717   2.067   0.437  0.00  0.00    -0.169 OA
ENDROOT
BRANCH   1   4
ATOM      4  C   UNL     1       0.923   2.010   0.101  0.00  0.00    +0.150 C 
ATOM      5  C   UNL     1       2.362   2.440   0.457  0.00  0.00    +0.166 C 
ATOM      6  C   UNL     1       1.768   2.791  -0.908  0.00  0.00    +0.021 C 
ATOM      7  C   UNL     1       2.297   2.028  -2.125  0.00  0.00    +0.015 C 
ATOM      8  C   UNL     1       1.394   4.253  -1.160  0.00  0.00    +0.015 C 
ATOM      9  N   UNL     1       3.113   1.192   0.610  0.00  0.00    -0.186 NA
ATOM     10  N   UNL     1       2.437   0.187   0.432  0.00  0.00    -0.184 NA
ATOM     11  C   UNL     1       1.037   0.471   0.107  0.00  0.00    +0.105 C 
ATOM     12  C   UNL     1       0.115  -0.125   1.172  0.00  0.00    +0.040 C 
ATOM     13  C   UNL     1       0.686  -0.091  -1.272  0.00  0.00    +0.040 C 
ENDBRANCH   1   4
BRANCH   1  18
ATOM     14  C   UNL     1      -0.061   1.565   6.746  0.00  0.00    +0.044 C 
ATOM     15  C   UNL     1      -0.183   1.864   5.274  0.00  0.00    -0.050 A 
ATOM     16  C   UNL     1       0.602   2.847   4.701  0.00  0.00    +0.005 A 
ATOM     17  C   UNL     1       0.491   3.120   3.350  0.00  0.00    +0.027 A 
ATOM     18  C   UNL     1      -0.406   2.411   2.573  0.00  0.00    +0.089 A 
ATOM     19  C   UNL     1      -1.195   1.432   3.147  0.00  0.00    +0.027 A 
ATOM     20  C   UNL     1      -1.079   1.154   4.497  0.00  0.00    +0.005 A 
ENDBRANCH   1  18
TORSDOF 2
