REMARK  Name = ZINC66908180
REMARK  9 active torsions:
REMARK  status: ('A' for Active; 'I' for Inactive)
REMARK    1  A    between atoms: C_1  and  N_2
REMARK    2  A    between atoms: N_2  and  C_3
REMARK    3  A    between atoms: N_2  and  C_4
REMARK    4  A    between atoms: C_4  and  C_5
REMARK    5  A    between atoms: C_10  and  C_11
REMARK    6  A    between atoms: C_11  and  N_12
REMARK    7  A    between atoms: N_15  and  C_16
REMARK    8  A    between atoms: C_16  and  C_17
REMARK    9  A    between atoms: C_17  and  O_27
REMARK                            x       y       z     vdW  Elec       q    Type
REMARK                         _______ _______ _______ _____ _____    ______ ____
ROOT
ATOM      1  N   UNL     1      -2.470  -2.346   2.506  0.00  0.00    -0.295 N 
ATOM      2  C   UNL     1      -2.720  -1.648   3.631  0.00  0.00    +0.300 C 
ATOM      3  O   UNL     1      -1.828  -1.449   4.434  0.00  0.00    -0.253 OA
ATOM      4  N   UNL     1      -3.957  -1.170   3.868  0.00  0.00    -0.296 N 
ATOM      5  H   UNL     1      -3.182  -2.505   1.866  0.00  0.00    +0.151 HD
ATOM      6  H   UNL     1      -4.669  -1.329   3.228  0.00  0.00    +0.150 HD
ENDROOT
BRANCH   1   7
ATOM      7  C   UNL     1      -1.125  -2.865   2.249  0.00  0.00    +0.141 C 
BRANCH   7  13
ATOM      8  C   UNL     1      -0.913  -2.683  -0.238  0.00  0.00    -0.059 A 
ATOM      9  C   UNL     1      -0.866  -3.252  -1.498  0.00  0.00    +0.002 A 
ATOM     10  C   UNL     1      -0.989  -4.621  -1.643  0.00  0.00    +0.000 A 
ATOM     11  C   UNL     1      -1.160  -5.422  -0.529  0.00  0.00    +0.000 A 
ATOM     12  C   UNL     1      -1.207  -4.853   0.730  0.00  0.00    +0.005 A 
ATOM     13  C   UNL     1      -1.079  -3.484   0.876  0.00  0.00    -0.029 A 
BRANCH   8  14
ATOM     14  C   UNL     1      -0.778  -1.191  -0.080  0.00  0.00    -0.043 C 
BRANCH  14  16
ATOM     15  C   UNL     1      -1.976   0.843   0.352  0.00  0.00    -0.096 C 
ATOM     16  N   UNL     1      -2.112  -0.591   0.063  0.00  0.00    +0.379 N 
ATOM     17  C   UNL     1      -2.866  -0.770  -1.185  0.00  0.00    -0.096 C 
ATOM     18  H   UNL     1      -2.604  -1.042   0.820  0.00  0.00    -0.082 HD
ENDBRANCH  14  16
ENDBRANCH   8  14
ENDBRANCH   7  13
ENDBRANCH   1   7
BRANCH   4  19
ATOM     19  C   UNL     1      -4.228  -0.411   5.091  0.00  0.00    +0.145 C 
BRANCH  19  20
ATOM     20  C   UNL     1      -5.723  -0.098   5.176  0.00  0.00    +0.107 C 
ATOM     21  C   UNL     1      -6.514  -1.404   5.157  0.00  0.00    +0.041 C 
ATOM     22  C   UNL     1      -7.983  -1.085   5.461  0.00  0.00    +0.008 C 
ATOM     23  C   UNL     1      -8.091  -0.667   6.926  0.00  0.00    +0.035 C 
ATOM     24  C   UNL     1      -7.088   0.411   7.244  0.00  0.00    -0.041 A 
ATOM     25  C   UNL     1      -5.999   0.670   6.443  0.00  0.00    -0.011 A 
ATOM     26  C   UNL     1      -5.107   1.674   6.798  0.00  0.00    +0.007 A 
ATOM     27  C   UNL     1      -5.307   2.416   7.944  0.00  0.00    +0.000 A 
ATOM     28  C   UNL     1      -6.402   2.159   8.746  0.00  0.00    +0.000 A 
ATOM     29  C   UNL     1      -7.288   1.160   8.396  0.00  0.00    +0.004 A 
BRANCH  20  30
ATOM     30  O   UNL     1      -6.102   0.698   4.052  0.00  0.00    -0.382 OA
ATOM     31  H   UNL     1      -5.635   1.542   3.992  0.00  0.00    +0.211 HD
ENDBRANCH  20  30
ENDBRANCH  19  20
ENDBRANCH   4  19
TORSDOF 7
