REMARK  Name = ZINC64521026
REMARK  8 active torsions:
REMARK  status: ('A' for Active; 'I' for Inactive)
REMARK    1  A    between atoms: C_3  and  C_6
REMARK    2  A    between atoms: C_6  and  N_7
REMARK    3  A    between atoms: C_11  and  C_13
REMARK    4  A    between atoms: C_13  and  N_14
REMARK    5  A    between atoms: C_15  and  C_17
REMARK    6  A    between atoms: C_17  and  O_18
REMARK    7  A    between atoms: O_18  and  C_19
REMARK    8  A    between atoms: C_22  and  C_25
REMARK                            x       y       z     vdW  Elec       q    Type
REMARK                         _______ _______ _______ _____ _____    ______ ____
ROOT
ATOM      1  N   UNL     1       7.826   3.822   4.141  0.00  0.00    -0.312 N 
ATOM      2  C   UNL     1       9.024   4.393   4.375  0.00  0.00    +0.251 C 
ATOM      3  O   UNL     1       9.774   4.628   3.451  0.00  0.00    -0.272 OA
ATOM      4  H   UNL     1       7.226   3.633   4.880  0.00  0.00    +0.149 HD
ENDROOT
BRANCH   1   5
ATOM      5  C   UNL     1       7.429   3.486   2.772  0.00  0.00    +0.106 C 
BRANCH   5  10
ATOM      6  N   UNL     1       4.235   2.004   1.357  0.00  0.00    +0.383 N 
ATOM      7  C   UNL     1       4.291   0.689   2.007  0.00  0.00    -0.078 C 
ATOM      8  C   UNL     1       4.707   0.857   3.470  0.00  0.00    -0.018 C 
ATOM      9  C   UNL     1       6.087   1.518   3.531  0.00  0.00    +0.001 C 
ATOM     10  C   UNL     1       6.036   2.854   2.785  0.00  0.00    -0.011 C 
ATOM     11  C   UNL     1       5.571   2.612   1.347  0.00  0.00    -0.073 C 
ATOM     12  H   UNL     1       3.599   2.601   1.864  0.00  0.00    -0.081 HD
BRANCH   6  13
ATOM     13  C   UNL     1       3.761   1.845  -0.024  0.00  0.00    -0.036 C 
BRANCH  13  16
ATOM     14  C   UNL     1      -0.016   1.351   0.009  0.00  0.00    +0.008 A 
ATOM     15  C   UNL     1       1.183   2.038   0.002  0.00  0.00    +0.009 A 
ATOM     16  C   UNL     1       2.343   1.336  -0.013  0.00  0.00    -0.027 A 
ATOM     17  S   UNL     1       1.754  -0.349  -0.017  0.00  0.00    -0.103 S 
ATOM     18  C   UNL     1       0.002  -0.004   0.002  0.00  0.00    +0.045 A 
ENDBRANCH  13  16
ENDBRANCH   6  13
ENDBRANCH   5  10
ENDBRANCH   1   5
BRANCH   2  19
ATOM     19  C   UNL     1       9.432   4.738   5.784  0.00  0.00    +0.324 C 
BRANCH  19  20
ATOM     20  O   UNL     1      10.734   5.328   5.771  0.00  0.00    -0.483 OA
BRANCH  20  21
ATOM     21  C   UNL     1      11.253   5.700   6.969  0.00  0.00    +0.121 A 
ATOM     22  C   UNL     1      10.524   5.495   8.134  0.00  0.00    +0.046 A 
ATOM     23  C   UNL     1      11.047   5.871   9.351  0.00  0.00    +0.016 A 
ATOM     24  C   UNL     1      12.313   6.459   9.414  0.00  0.00    +0.037 A 
ATOM     25  C   UNL     1      13.043   6.663   8.240  0.00  0.00    +0.016 A 
ATOM     26  C   UNL     1      12.515   6.280   7.027  0.00  0.00    +0.046 A 
BRANCH  24  27
ATOM     27  C   UNL     1      12.878   6.864  10.716  0.00  0.00    +0.242 C 
ATOM     28  O   UNL     1      12.241   6.686  11.736  0.00  0.00    -0.270 OA
ATOM     29  N   UNL     1      14.099   7.431  10.774  0.00  0.00    -0.325 N 
ATOM     30  H   UNL     1      14.607   7.574   9.960  0.00  0.00    +0.145 HD
ATOM     31  H   UNL     1      14.470   7.698  11.630  0.00  0.00    +0.145 HD
ENDBRANCH  24  27
ENDBRANCH  20  21
ENDBRANCH  19  20
ENDBRANCH   2  19
TORSDOF 8
