REMARK  Name = ZINC39928878
REMARK  15 active torsions:
REMARK  status: ('A' for Active; 'I' for Inactive)
REMARK    1  A    between atoms: C_1  and  C_2
REMARK    2  A    between atoms: C_2  and  O_3
REMARK    3  A    between atoms: O_3  and  C_4
REMARK    4  A    between atoms: C_7  and  N_10
REMARK    5  A    between atoms: N_10  and  C_11
REMARK    6  A    between atoms: C_11  and  C_12
REMARK    7  A    between atoms: C_18  and  O_24
REMARK    8  A    between atoms: O_24  and  C_25
REMARK    9  A    between atoms: C_26  and  C_28
REMARK   10  A    between atoms: C_30  and  O_38
REMARK   11  A    between atoms: C_31  and  O_36
REMARK   12  A    between atoms: C_32  and  O_34
REMARK   13  A    between atoms: O_34  and  C_35
REMARK   14  A    between atoms: O_36  and  C_37
REMARK   15  A    between atoms: O_38  and  C_39
REMARK                            x       y       z     vdW  Elec       q    Type
REMARK                         _______ _______ _______ _____ _____    ______ ____
ROOT
ATOM      1  N   UNL     1       3.171  -6.488   0.734  0.00  0.00    -0.266 N 
ATOM      2  C   UNL     1       2.208  -7.300   1.214  0.00  0.00    +0.251 C 
ATOM      3  O   UNL     1       2.066  -7.431   2.414  0.00  0.00    -0.270 OA
ENDROOT
BRANCH   1   7
ATOM      4  C   UNL     1       5.774  -4.562   3.361  0.00  0.00    +0.121 A 
ATOM      5  C   UNL     1       5.751  -5.948   3.299  0.00  0.00    +0.047 A 
ATOM      6  C   UNL     1       4.889  -6.586   2.430  0.00  0.00    +0.027 A 
ATOM      7  C   UNL     1       4.045  -5.841   1.617  0.00  0.00    +0.037 A 
ATOM      8  C   UNL     1       4.069  -4.454   1.679  0.00  0.00    +0.027 A 
ATOM      9  C   UNL     1       4.928  -3.817   2.553  0.00  0.00    +0.047 A 
BRANCH   4  10
ATOM     10  O   UNL     1       6.623  -3.934   4.218  0.00  0.00    -0.492 OA
BRANCH  10  12
ATOM     11  C   UNL     1       8.485  -3.872   5.757  0.00  0.00    +0.048 C 
ATOM     12  C   UNL     1       7.540  -4.757   4.942  0.00  0.00    +0.225 C 
ENDBRANCH  10  12
ENDBRANCH   4  10
ENDBRANCH   1   7
BRANCH   2  13
ATOM     13  C   UNL     1       1.326  -8.029   0.282  0.00  0.00    +0.044 A 
ATOM     14  C   UNL     1       1.869  -8.689  -0.823  0.00  0.00    +0.062 A 
ATOM     15  C   UNL     1       1.041  -9.372  -1.694  0.00  0.00    +0.166 A 
ATOM     16  C   UNL     1      -0.333  -9.401  -1.472  0.00  0.00    +0.204 A 
ATOM     17  C   UNL     1      -0.877  -8.744  -0.371  0.00  0.00    +0.166 A 
ATOM     18  C   UNL     1      -0.052  -8.065   0.506  0.00  0.00    +0.062 A 
BRANCH  17  19
ATOM     19  O   UNL     1      -2.219  -8.774  -0.157  0.00  0.00    -0.491 OA
ATOM     20  C   UNL     1      -2.709  -8.078   0.991  0.00  0.00    +0.277 C 
ENDBRANCH  17  19
BRANCH  16  21
ATOM     21  O   UNL     1      -1.145 -10.072  -2.331  0.00  0.00    -0.488 OA
ATOM     22  C   UNL     1      -1.398 -11.449  -2.043  0.00  0.00    +0.277 C 
ENDBRANCH  16  21
BRANCH  15  23
ATOM     23  O   UNL     1       1.569 -10.015  -2.770  0.00  0.00    -0.491 OA
ATOM     24  C   UNL     1       2.772  -9.477  -3.322  0.00  0.00    +0.277 C 
ENDBRANCH  15  23
ENDBRANCH   2  13
BRANCH   1  25
ATOM     25  C   UNL     1       3.303  -6.282  -0.710  0.00  0.00    +0.131 C 
BRANCH  25  26
ATOM     26  C   UNL     1       4.745  -6.567  -1.136  0.00  0.00    +0.116 C 
ATOM     27  C   UNL     1       4.909  -6.095  -2.567  0.00  0.00    -0.003 C 
ATOM     28  C   UNL     1       5.305  -7.015  -3.487  0.00  0.00    -0.007 A 
ATOM     29  C   UNL     1       5.487  -6.638  -4.891  0.00  0.00    +0.013 A 
ATOM     30  C   UNL     1       5.883  -7.581  -5.780  0.00  0.00    +0.046 A 
ATOM     31  C   UNL     1       6.120  -8.905  -5.380  0.00  0.00    +0.122 A 
ATOM     32  C   UNL     1       5.967  -9.318  -4.075  0.00  0.00    +0.069 A 
ATOM     33  C   UNL     1       5.560  -8.412  -3.087  0.00  0.00    +0.044 A 
ATOM     34  N   UNL     1       5.413  -8.823  -1.826  0.00  0.00    -0.284 N 
ATOM     35  C   UNL     1       5.034  -8.023  -0.846  0.00  0.00    +0.226 C 
ATOM     36  O   UNL     1       4.919  -8.455   0.285  0.00  0.00    -0.275 OA
ATOM     37  H   UNL     1       5.594  -9.754  -1.619  0.00  0.00    +0.155 HD
BRANCH  31  38
ATOM     38  O   UNL     1       6.515  -9.808  -6.310  0.00  0.00    -0.495 OA
ATOM     39  C   UNL     1       6.662  -9.336  -7.651  0.00  0.00    +0.277 C 
ENDBRANCH  31  38
ENDBRANCH  25  26
ENDBRANCH   1  25
TORSDOF 10
