REMARK  Name = ZINC66390468
REMARK  10 active torsions:
REMARK  status: ('A' for Active; 'I' for Inactive)
REMARK    1  A    between atoms: C_1  and  C_2
REMARK    2  A    between atoms: C_2  and  C_4
REMARK    3  A    between atoms: C_2  and  N_16
REMARK    4  A    between atoms: N_6  and  C_7
REMARK    5  A    between atoms: C_12  and  C_13
REMARK    6  A    between atoms: C_13  and  C_14
REMARK    7  A    between atoms: C_13  and  C_15
REMARK    8  A    between atoms: N_16  and  C_17
REMARK    9  A    between atoms: C_17  and  C_18
REMARK   10  A    between atoms: C_18  and  C_24
REMARK                            x       y       z     vdW  Elec       q    Type
REMARK                         _______ _______ _______ _____ _____    ______ ____
ROOT
ATOM      1  N   UNL     1       1.274  -0.327   1.336  0.00  0.00    +0.387 N 
ATOM      2  H   UNL     1       0.862   0.065   2.169  0.00  0.00    -0.085 HD
ATOM      3  H   UNL     1       1.281  -1.334   1.406  0.00  0.00    -0.085 HD
ENDROOT
BRANCH   1   5
ATOM      4  C   UNL     1       0.373   1.601   0.126  0.00  0.00    -0.004 C 
ATOM      5  C   UNL     1       0.488   0.076   0.163  0.00  0.00    +0.013 C 
BRANCH   5   6
ATOM      6  C   UNL     1      -0.889  -0.529   0.249  0.00  0.00    +0.203 C 
ATOM      7  O   UNL     1      -1.187  -1.228   1.195  0.00  0.00    -0.277 OA
ATOM      8  N   UNL     1      -1.791  -0.294  -0.725  0.00  0.00    -0.287 N 
ATOM      9  H   UNL     1      -1.581   0.324  -1.442  0.00  0.00    +0.155 HD
BRANCH   8  10
ATOM     10  C   UNL     1      -3.031  -0.942  -0.701  0.00  0.00    +0.037 A 
ATOM     11  C   UNL     1      -3.171  -2.153  -0.035  0.00  0.00    +0.023 A 
ATOM     12  C   UNL     1      -4.396  -2.790  -0.015  0.00  0.00    +0.002 A 
ATOM     13  C   UNL     1      -5.483  -2.224  -0.656  0.00  0.00    +0.000 A 
ATOM     14  C   UNL     1      -5.346  -1.019  -1.320  0.00  0.00    +0.006 A 
ATOM     15  C   UNL     1      -4.125  -0.373  -1.339  0.00  0.00    -0.024 A 
BRANCH  15  16
ATOM     16  C   UNL     1      -3.979   0.944  -2.057  0.00  0.00    +0.015 C 
ATOM     17  C   UNL     1      -4.444   0.788  -3.507  0.00  0.00    +0.012 C 
ATOM     18  C   UNL     1      -4.835   2.003  -1.359  0.00  0.00    +0.012 C 
ENDBRANCH  15  16
ENDBRANCH   8  10
ENDBRANCH   5   6
ENDBRANCH   1   5
BRANCH   1  19
ATOM     19  C   UNL     1       2.652   0.163   1.194  0.00  0.00    -0.070 C 
BRANCH  19  20
ATOM     20  C   UNL     1       3.444  -0.167   2.461  0.00  0.00    -0.015 C 
ATOM     21  C   UNL     1       2.706   0.384   3.685  0.00  0.00    +0.038 C 
ATOM     22  C   UNL     1       2.632   1.910   3.582  0.00  0.00    +0.160 C 
ATOM     23  O   UNL     1       3.954   2.443   3.480  0.00  0.00    -0.380 OA
ATOM     24  C   UNL     1       4.675   2.000   2.329  0.00  0.00    +0.160 C 
ATOM     25  C   UNL     1       4.831   0.478   2.381  0.00  0.00    +0.038 C 
BRANCH  20  26
ATOM     26  C   UNL     1       3.590  -1.662   2.589  0.00  0.00    -0.043 A 
ATOM     27  C   UNL     1       3.178  -2.487   1.559  0.00  0.00    +0.007 A 
ATOM     28  C   UNL     1       3.311  -3.857   1.675  0.00  0.00    +0.038 A 
ATOM     29  C   UNL     1       3.858  -4.404   2.824  0.00  0.00    +0.123 A 
ATOM     30  C   UNL     1       4.270  -3.577   3.855  0.00  0.00    +0.038 A 
ATOM     31  C   UNL     1       4.141  -2.207   3.734  0.00  0.00    +0.007 A 
ATOM     32  F   UNL     1       3.989  -5.744   2.938  0.00  0.00    -0.205 F 
ENDBRANCH  20  26
ENDBRANCH  19  20
ENDBRANCH   1  19
TORSDOF 7
