REMARK  Name = ZINC41353819
REMARK  5 active torsions:
REMARK  status: ('A' for Active; 'I' for Inactive)
REMARK    1  A    between atoms: C_1  and  O_2
REMARK    2  A    between atoms: O_2  and  C_3
REMARK    3  A    between atoms: C_6  and  C_9
REMARK    4  A    between atoms: C_11  and  O_12
REMARK    5  A    between atoms: C_21  and  C_23
REMARK                            x       y       z     vdW  Elec       q    Type
REMARK                         _______ _______ _______ _____ _____    ______ ____
ROOT
ATOM      1  C   UNL     1      -4.894  -2.115  -0.247  0.00  0.00    +0.139 A 
ATOM      2  C   UNL     1      -4.829  -3.442  -0.624  0.00  0.00    +0.093 A 
ATOM      3  C   UNL     1      -6.004  -4.172  -0.798  0.00  0.00    +0.131 A 
ATOM      4  C   UNL     1      -7.242  -3.516  -0.580  0.00  0.00    +0.059 A 
ATOM      5  C   UNL     1      -8.457  -4.203  -0.740  0.00  0.00    +0.017 A 
ATOM      6  C   UNL     1      -9.634  -3.559  -0.526  0.00  0.00    +0.024 A 
ATOM      7  C   UNL     1      -9.644  -2.205  -0.144  0.00  0.00    +0.037 A 
ATOM      8  C   UNL     1      -8.443  -1.510   0.019  0.00  0.00    +0.070 A 
ATOM      9  C   UNL     1      -7.241  -2.158  -0.196  0.00  0.00    +0.141 A 
ATOM     10  O   UNL     1      -6.071  -1.504  -0.037  0.00  0.00    -0.455 OA
ATOM     11  N   UNL     1     -10.827  -1.571   0.066  0.00  0.00    -0.279 N 
ATOM     12  C   UNL     1     -10.854  -0.416   0.722  0.00  0.00    +0.284 C 
ATOM     13  O   UNL     1      -9.836   0.013   1.246  0.00  0.00    -0.266 OA
ATOM     14  H   UNL     1     -11.652  -1.961  -0.263  0.00  0.00    +0.155 HD
ENDROOT
BRANCH  12  15
ATOM     15  C   UNL     1     -12.111   0.348   0.820  0.00  0.00    +0.191 A 
ATOM     16  C   UNL     1     -12.255   1.536   1.457  0.00  0.00    +0.063 A 
ATOM     17  C   UNL     1     -13.659   1.916   1.296  0.00  0.00    +0.022 A 
ATOM     18  C   UNL     1     -14.426   3.006   1.711  0.00  0.00    +0.027 A 
ATOM     19  C   UNL     1     -15.754   3.063   1.388  0.00  0.00    +0.019 A 
ATOM     20  C   UNL     1     -16.342   2.044   0.651  0.00  0.00    +0.019 A 
ATOM     21  C   UNL     1     -15.601   0.960   0.232  0.00  0.00    +0.048 A 
ATOM     22  C   UNL     1     -14.250   0.881   0.549  0.00  0.00    +0.136 A 
ATOM     23  O   UNL     1     -13.290  -0.027   0.283  0.00  0.00    -0.450 OA
ATOM     24 BR   UNL     1     -16.795   4.539   1.949  0.00  0.00    -0.050 Br
ENDBRANCH  12  15
BRANCH   1  28
ATOM     25  C   UNL     1      -1.297   0.075   0.276  0.00  0.00    +0.120 A 
ATOM     26  C   UNL     1      -2.522   0.695   0.489  0.00  0.00    +0.046 A 
ATOM     27  C   UNL     1      -3.692  -0.011   0.321  0.00  0.00    +0.015 A 
ATOM     28  C   UNL     1      -3.646  -1.355  -0.066  0.00  0.00    +0.018 A 
ATOM     29  C   UNL     1      -2.410  -1.975  -0.280  0.00  0.00    +0.015 A 
ATOM     30  C   UNL     1      -1.246  -1.259  -0.113  0.00  0.00    +0.046 A 
BRANCH  25  32
ATOM     31  C   UNL     1      -0.270   2.141   0.845  0.00  0.00    +0.277 C 
ATOM     32  O   UNL     1      -0.146   0.775   0.444  0.00  0.00    -0.495 OA
ENDBRANCH  25  32
ENDBRANCH   1  28
BRANCH   3  33
ATOM     33  O   UNL     1      -5.965  -5.471  -1.166  0.00  0.00    -0.506 OA
ATOM     34  H   UNL     1      -5.070  -5.818  -1.287  0.00  0.00    +0.292 HD
ENDBRANCH   3  33
TORSDOF 4
