REMARK  Name = ZINC63885802
REMARK  8 active torsions:
REMARK  status: ('A' for Active; 'I' for Inactive)
REMARK    1  A    between atoms: C_1  and  C_2
REMARK    2  A    between atoms: C_5  and  N_9
REMARK    3  A    between atoms: C_10  and  C_12
REMARK    4  A    between atoms: C_12  and  C_14
REMARK    5  A    between atoms: C_12  and  N_20
REMARK    6  A    between atoms: N_20  and  C_21
REMARK    7  A    between atoms: C_21  and  C_22
REMARK    8  A    between atoms: C_22  and  C_23
REMARK                            x       y       z     vdW  Elec       q    Type
REMARK                         _______ _______ _______ _____ _____    ______ ____
ROOT
ATOM      1  C   UNL     1       0.310  -6.351   1.119  0.00  0.00    +0.047 C 
ENDROOT
BRANCH   1   2
ATOM      2  C   UNL     1      -0.904  -6.956   0.462  0.00  0.00    -0.053 A 
ATOM      3  C   UNL     1      -2.078  -7.098   1.178  0.00  0.00    +0.002 A 
ATOM      4  C   UNL     1      -3.192  -7.653   0.576  0.00  0.00    +0.000 A 
ATOM      5  C   UNL     1      -3.132  -8.066  -0.742  0.00  0.00    +0.000 A 
ATOM      6  C   UNL     1      -1.958  -7.923  -1.458  0.00  0.00    +0.000 A 
ATOM      7  C   UNL     1      -0.846  -7.364  -0.857  0.00  0.00    +0.002 A 
ENDBRANCH   1   2
BRANCH   1   9
ATOM      8  N   UNL     1       0.059  -4.170  -0.022  0.00  0.00    -0.287 N 
ATOM      9  C   UNL     1       0.176  -4.850   1.136  0.00  0.00    +0.207 C 
ATOM     10  O   UNL     1       0.174  -4.254   2.192  0.00  0.00    -0.277 OA
ATOM     11  H   UNL     1      -0.015  -4.651  -0.861  0.00  0.00    +0.155 HD
BRANCH   8  16
ATOM     12  C   UNL     1       0.008   1.503   0.012  0.00  0.00    +0.045 C 
ATOM     13  C   UNL     1       0.022  -0.004   0.003  0.00  0.00    -0.032 A 
ATOM     14  C   UNL     1       0.777  -0.693   0.934  0.00  0.00    +0.006 A 
ATOM     15  C   UNL     1       0.792  -2.074   0.928  0.00  0.00    +0.023 A 
ATOM     16  C   UNL     1       0.046  -2.771  -0.014  0.00  0.00    +0.035 A 
ATOM     17  C   UNL     1      -0.712  -2.078  -0.948  0.00  0.00    +0.043 A 
ATOM     18  C   UNL     1      -0.726  -0.695  -0.934  0.00  0.00    +0.046 A 
ATOM     19 CL   UNL     1      -1.679   0.174  -2.096  0.00  0.00    -0.083 Cl
ENDBRANCH   8  16
ENDBRANCH   1   9
BRANCH   1  20
ATOM     20  N   UNL     1       0.421  -6.849   2.496  0.00  0.00    +0.390 N 
ATOM     21  H   UNL     1       1.185  -6.382   2.962  0.00  0.00    -0.084 HD
ATOM     22  H   UNL     1      -0.438  -6.663   2.991  0.00  0.00    -0.084 HD
BRANCH  20  23
ATOM     23  C   UNL     1       0.671  -8.296   2.475  0.00  0.00    -0.077 C 
BRANCH  23  24
ATOM     24  C   UNL     1       0.787  -8.814   3.910  0.00  0.00    +0.014 C 
BRANCH  24  25
ATOM     25  C   UNL     1       1.044 -10.299   3.889  0.00  0.00    -0.043 C 
ATOM     26  C   UNL     1       2.245 -10.918   3.958  0.00  0.00    -0.001 A 
ATOM     27  C   UNL     1       3.618 -10.413   4.068  0.00  0.00    +0.010 A 
ATOM     28  C   UNL     1       4.640 -11.297   4.117  0.00  0.00    +0.001 A 
ATOM     29  C   UNL     1       4.421 -12.681   4.064  0.00  0.00    +0.002 A 
ATOM     30  C   UNL     1       3.188 -13.220   3.963  0.00  0.00    +0.026 A 
ATOM     31  C   UNL     1       2.040 -12.383   3.905  0.00  0.00    +0.043 A 
ATOM     32  N   UNL     1       0.762 -12.659   3.807  0.00  0.00    -0.380 N 
ATOM     33  C   UNL     1       0.011 -11.399   3.793  0.00  0.00    +0.144 C 
ATOM     34  H   UNL     1       0.377 -13.548   3.756  0.00  0.00    +0.160 HD
ENDBRANCH  24  25
ENDBRANCH  23  24
ENDBRANCH  20  23
ENDBRANCH   1  20
TORSDOF 7
