REMARK  Name = ZINC10129883
REMARK  10 active torsions:
REMARK  status: ('A' for Active; 'I' for Inactive)
REMARK    1  A    between atoms: C_1  and  C_2
REMARK    2  A    between atoms: C_7  and  N_8
REMARK    3  A    between atoms: C_9  and  C_11
REMARK    4  A    between atoms: N_13  and  C_14
REMARK    5  A    between atoms: C_14  and  C_15
REMARK    6  A    between atoms: C_15  and  C_17
REMARK    7  A    between atoms: C_15  and  N_66
REMARK    8  A    between atoms: C_20  and  N_23
REMARK    9  A    between atoms: N_23  and  C_24
REMARK   10  A    between atoms: N_23  and  C_25
REMARK                            x       y       z     vdW  Elec       q    Type
REMARK                         _______ _______ _______ _____ _____    ______ ____
ROOT
ATOM      1  C   UNL     1      -4.984   0.491  -0.303  0.00  0.00    -0.020 C 
ENDROOT
BRANCH   1  11
ATOM      2  C   UNL     1      -3.224  -0.865   0.665  0.00  0.00    -0.073 C 
ATOM      3  C   UNL     1      -2.819  -1.535   1.978  0.00  0.00    +0.017 C 
ATOM      4  C   UNL     1      -3.825  -2.595   2.345  0.00  0.00    -0.048 A 
ATOM      5  C   UNL     1      -3.468  -3.546   3.290  0.00  0.00    +0.004 A 
ATOM      6  C   UNL     1      -4.363  -4.529   3.662  0.00  0.00    +0.000 A 
ATOM      7  C   UNL     1      -5.620  -4.567   3.089  0.00  0.00    +0.000 A 
ATOM      8  C   UNL     1      -5.975  -3.623   2.147  0.00  0.00    +0.002 A 
ATOM      9  C   UNL     1      -5.077  -2.635   1.771  0.00  0.00    -0.061 A 
ATOM     10  C   UNL     1      -5.509  -1.629   0.736  0.00  0.00    -0.042 C 
ATOM     11  N   UNL     1      -4.635  -0.445   0.789  0.00  0.00    +0.388 N 
ATOM     12  H   UNL     1      -4.766   0.029   1.690  0.00  0.00    -0.080 HD
ENDBRANCH   1  11
BRANCH   1  13
ATOM     13  C   UNL     1      -6.449   0.833  -0.211  0.00  0.00    -0.059 A 
ATOM     14  C   UNL     1      -7.037   1.021   1.026  0.00  0.00    +0.004 A 
ATOM     15  C   UNL     1      -8.378   1.340   1.114  0.00  0.00    +0.023 A 
ATOM     16  C   UNL     1      -9.139   1.460  -0.042  0.00  0.00    +0.029 A 
ATOM     17  C   UNL     1      -8.546   1.264  -1.283  0.00  0.00    +0.023 A 
ATOM     18  C   UNL     1      -7.204   0.952  -1.364  0.00  0.00    +0.004 A 
BRANCH  16  19
ATOM     19  N   UNL     1     -10.496   1.776   0.043  0.00  0.00    -0.336 N 
ATOM     20  C   UNL     1     -11.297   1.902  -1.177  0.00  0.00    +0.129 C 
ATOM     21  C   UNL     1     -11.120   1.982   1.353  0.00  0.00    +0.129 C 
ENDBRANCH  16  19
ENDBRANCH   1  13
BRANCH   1  22
ATOM     22  C   UNL     1      -4.152   1.766  -0.151  0.00  0.00    +0.094 C 
BRANCH  22  25
ATOM     23  C   UNL     1      -3.712   3.803  -1.414  0.00  0.00    +0.299 C 
ATOM     24  O   UNL     1      -2.882   4.105  -0.582  0.00  0.00    -0.265 OA
ATOM     25  N   UNL     1      -4.403   2.652  -1.290  0.00  0.00    -0.309 N 
ATOM     26  H   UNL     1      -5.067   2.411  -1.955  0.00  0.00    +0.149 HD
BRANCH  23  28
ATOM     27  N   UNL     1      -3.281   5.859  -2.696  0.00  0.00    -0.277 N 
ATOM     28  C   UNL     1      -3.968   4.706  -2.575  0.00  0.00    +0.303 C 
ATOM     29  O   UNL     1      -4.798   4.404  -3.408  0.00  0.00    -0.265 OA
ATOM     30  H   UNL     1      -2.675   6.139  -1.992  0.00  0.00    +0.155 HD
BRANCH  27  37
ATOM     31  C   UNL     1      -2.524   8.597  -2.544  0.00  0.00    +0.045 C 
ATOM     32  C   UNL     1      -3.085   7.994  -3.806  0.00  0.00    -0.029 A 
ATOM     33  C   UNL     1      -3.244   8.776  -4.933  0.00  0.00    +0.006 A 
ATOM     34  C   UNL     1      -3.759   8.224  -6.092  0.00  0.00    +0.020 A 
ATOM     35  C   UNL     1      -4.116   6.887  -6.126  0.00  0.00    +0.043 A 
ATOM     36  C   UNL     1      -3.953   6.098  -5.003  0.00  0.00    +0.043 A 
ATOM     37  C   UNL     1      -3.442   6.652  -3.836  0.00  0.00    +0.038 A 
ATOM     38 CL   UNL     1      -4.763   6.198  -7.582  0.00  0.00    -0.083 Cl
ENDBRANCH  27  37
ENDBRANCH  23  28
ENDBRANCH  22  25
ENDBRANCH   1  22
TORSDOF 7
