REMARK  Name = ZINC23339840
REMARK  7 active torsions:
REMARK  status: ('A' for Active; 'I' for Inactive)
REMARK    1  A    between atoms: C_1  and  O_2
REMARK    2  A    between atoms: O_2  and  C_3
REMARK    3  A    between atoms: C_7  and  C_9
REMARK    4  A    between atoms: C_13  and  N_15
REMARK    5  A    between atoms: C_18  and  N_21
REMARK    6  A    between atoms: N_21  and  C_22
REMARK    7  A    between atoms: C_22  and  C_23
REMARK                            x       y       z     vdW  Elec       q    Type
REMARK                         _______ _______ _______ _____ _____    ______ ____
ROOT
ATOM      1  N   UNL     1      -0.165   0.172   5.163  0.00  0.00    -0.330 N 
ATOM      2  C   UNL     1       0.343   1.516   4.863  0.00  0.00    +0.103 C 
ATOM      3  C   UNL     1      -0.322   2.043   3.589  0.00  0.00    +0.003 C 
ATOM      4  C   UNL     1      -0.016   1.091   2.429  0.00  0.00    -0.069 C 
ATOM      5  C   UNL     1      -0.512  -0.313   2.787  0.00  0.00    +0.003 C 
ATOM      6  C   UNL     1       0.159  -0.771   4.084  0.00  0.00    +0.103 C 
ENDROOT
BRANCH   1  11
ATOM      7  C   UNL     1       0.445  -1.992   8.080  0.00  0.00    -0.016 A 
ATOM      8  C   UNL     1       1.296  -1.181   8.829  0.00  0.00    +0.008 A 
ATOM      9  C   UNL     1       1.654   0.067   8.357  0.00  0.00    +0.002 A 
ATOM     10  C   UNL     1       1.171   0.516   7.143  0.00  0.00    +0.023 A 
ATOM     11  C   UNL     1       0.322  -0.286   6.389  0.00  0.00    +0.030 A 
ATOM     12  C   UNL     1      -0.047  -1.538   6.859  0.00  0.00    +0.031 A 
BRANCH   7  17
ATOM     13  C   UNL     1       0.183  -5.037  10.275  0.00  0.00    +0.121 A 
ATOM     14  C   UNL     1      -0.665  -5.838   9.524  0.00  0.00    +0.045 A 
ATOM     15  C   UNL     1      -1.149  -5.390   8.309  0.00  0.00    +0.004 A 
ATOM     16  C   UNL     1      -0.792  -4.143   7.837  0.00  0.00    +0.009 A 
ATOM     17  C   UNL     1       0.059  -3.332   8.585  0.00  0.00    -0.014 A 
ATOM     18  C   UNL     1       0.551  -3.786   9.807  0.00  0.00    +0.054 A 
BRANCH  13  20
ATOM     19  C   UNL     1       0.243  -6.783  11.888  0.00  0.00    +0.277 C 
ATOM     20  O   UNL     1       0.658  -5.481  11.469  0.00  0.00    -0.495 OA
ENDBRANCH  13  20
ENDBRANCH   7  17
ENDBRANCH   1  11
BRANCH   4  21
ATOM     21  N   UNL     1      -0.700   1.560   1.217  0.00  0.00    +0.382 N 
ATOM     22  H   UNL     1      -1.732   1.179   1.208  0.00  0.00    -0.085 HD
ATOM     23  H   UNL     1      -0.715   2.659   1.206  0.00  0.00    -0.085 HD
BRANCH  21  24
ATOM     24  C   UNL     1      -0.013   1.086   0.008  0.00  0.00    -0.060 C 
BRANCH  24  25
ATOM     25  C   UNL     1      -0.753   1.593  -1.232  0.00  0.00    +0.056 C 
ATOM     26  C   UNL     1       0.024   1.211  -2.511  0.00  0.00    +0.029 C 
ATOM     27  C   UNL     1      -0.235   2.438  -3.415  0.00  0.00    +0.097 C 
ATOM     28  C   UNL     1      -0.523   3.561  -2.443  0.00  0.00    +0.213 C 
ATOM     29  O   UNL     1      -0.504   4.742  -2.719  0.00  0.00    -0.276 OA
ATOM     30  N   UNL     1      -0.804   3.059  -1.228  0.00  0.00    -0.314 N 
ATOM     31  H   UNL     1      -1.051   3.599  -0.301  0.00  0.00    +0.149 HD
ENDBRANCH  24  25
ENDBRANCH  21  24
ENDBRANCH   4  21
TORSDOF 6
