REMARK  Name = ZINC03850990
REMARK  8 active torsions:
REMARK  status: ('A' for Active; 'I' for Inactive)
REMARK    1  A    between atoms: C_4  and  C_7
REMARK    2  A    between atoms: C_7  and  C_9
REMARK    3  A    between atoms: C_7  and  N_46
REMARK    4  A    between atoms: C_9  and  C_11
REMARK    5  A    between atoms: C_9  and  N_17
REMARK    6  A    between atoms: N_17  and  S_18
REMARK    7  A    between atoms: S_18  and  C_21
REMARK    8  A    between atoms: C_24  and  O_27
REMARK                            x       y       z     vdW  Elec       q    Type
REMARK                         _______ _______ _______ _____ _____    ______ ____
ROOT
ATOM      1  C   UNL     1       1.238   2.401   0.003  0.00  0.00    +0.096 C 
ENDROOT
BRANCH   1   2
ATOM      2  C   UNL     1       1.593   2.772  -1.414  0.00  0.00    -0.030 A 
ATOM      3  C   UNL     1       0.604   3.178  -2.290  0.00  0.00    +0.005 A 
ATOM      4  C   UNL     1       0.930   3.522  -3.589  0.00  0.00    +0.000 A 
ATOM      5  C   UNL     1       2.244   3.453  -4.013  0.00  0.00    +0.000 A 
ATOM      6  C   UNL     1       3.232   3.043  -3.138  0.00  0.00    +0.000 A 
ATOM      7  C   UNL     1       2.907   2.702  -1.838  0.00  0.00    +0.005 A 
ENDBRANCH   1   2
BRANCH   1   8
ATOM      8  N   UNL     1      -0.020   1.652   0.011  0.00  0.00    -0.184 NA
ATOM      9  H   UNL     1      -0.867   2.125   0.018  0.00  0.00    +0.149 HD
BRANCH   8  10
ATOM     10  S   UNL     1       0.002  -0.004   0.002  0.00  0.00    +0.059 S 
ATOM     11  O   UNL     1      -1.353  -0.429   0.040  0.00  0.00    -0.153 OA
ATOM     12  O   UNL     1       0.893  -0.392  -1.034  0.00  0.00    -0.153 OA
BRANCH  10  13
ATOM     13  C   UNL     1       0.735  -0.523   1.518  0.00  0.00    +0.105 A 
ATOM     14  C   UNL     1       2.102  -0.715   1.593  0.00  0.00    +0.032 A 
ATOM     15  C   UNL     1       2.680  -1.117   2.782  0.00  0.00    +0.047 A 
ATOM     16  C   UNL     1       1.886  -1.339   3.898  0.00  0.00    +0.117 A 
ATOM     17  C   UNL     1       0.513  -1.152   3.818  0.00  0.00    +0.047 A 
ATOM     18  C   UNL     1      -0.059  -0.744   2.628  0.00  0.00    +0.032 A 
BRANCH  16  19
ATOM     19  O   UNL     1       2.451  -1.739   5.067  0.00  0.00    -0.507 OA
ATOM     20  H   UNL     1       2.513  -2.699   5.165  0.00  0.00    +0.292 HD
ENDBRANCH  16  19
ENDBRANCH  10  13
ENDBRANCH   8  10
ENDBRANCH   1   8
BRANCH   1  21
ATOM     21  C   UNL     1       1.080   3.673   0.839  0.00  0.00    -0.021 C 
BRANCH  21  25
ATOM     22  C   UNL     1       0.074   2.621   4.855  0.00  0.00    +0.000 A 
ATOM     23  C   UNL     1      -0.914   3.032   3.980  0.00  0.00    +0.000 A 
ATOM     24  C   UNL     1      -0.589   3.372   2.680  0.00  0.00    +0.002 A 
ATOM     25  C   UNL     1       0.725   3.302   2.256  0.00  0.00    -0.060 A 
ATOM     26  C   UNL     1       1.712   2.886   3.129  0.00  0.00    +0.002 A 
ATOM     27  C   UNL     1       1.388   2.550   4.430  0.00  0.00    +0.000 A 
ENDBRANCH  21  25
BRANCH  21  30
ATOM     28  H   UNL     1       3.093   3.874   1.219  0.00  0.00    -0.089 HD
ATOM     29  H   UNL     1       2.568   4.741  -0.100  0.00  0.00    -0.089 HD
ATOM     30  N   UNL     1       2.335   4.444   0.846  0.00  0.00    +0.384 N 
ATOM     31  H   UNL     1       2.218   5.275   1.438  0.00  0.00    -0.089 HD
ENDBRANCH  21  30
ENDBRANCH   1  21
TORSDOF 8
