REMARK  Name = ZINC03322824
REMARK  8 active torsions:
REMARK  status: ('A' for Active; 'I' for Inactive)
REMARK    1  A    between atoms: C_4  and  C_7
REMARK    2  A    between atoms: C_7  and  C_9
REMARK    3  A    between atoms: C_14  and  N_15
REMARK    4  A    between atoms: C_16  and  C_18
REMARK    5  A    between atoms: C_18  and  O_19
REMARK    6  A    between atoms: O_19  and  C_20
REMARK    7  A    between atoms: C_20  and  C_22
REMARK    8  A    between atoms: C_27  and  C_28
REMARK                            x       y       z     vdW  Elec       q    Type
REMARK                         _______ _______ _______ _____ _____    ______ ____
ROOT
ATOM      1  N   UNL     1      -7.317  -0.351   0.029  0.00  0.00    -0.282 N 
ATOM      2  C   UNL     1      -6.059  -0.832  -0.010  0.00  0.00    +0.255 C 
ATOM      3  O   UNL     1      -5.867  -2.030  -0.007  0.00  0.00    -0.272 OA
ATOM      4  H   UNL     1      -7.469   0.603   0.113  0.00  0.00    +0.155 HD
ENDROOT
BRANCH   1  10
ATOM      5  C   UNL     1      -9.644  -0.857   0.482  0.00  0.00    +0.045 A 
ATOM      6  C   UNL     1     -10.722  -1.743   0.395  0.00  0.00    +0.033 A 
ATOM      7  C   UNL     1     -10.556  -2.969  -0.213  0.00  0.00    +0.042 A 
ATOM      8  C   UNL     1      -9.325  -3.328  -0.740  0.00  0.00    +0.022 A 
ATOM      9  C   UNL     1      -8.253  -2.462  -0.666  0.00  0.00    +0.025 A 
ATOM     10  C   UNL     1      -8.399  -1.225  -0.052  0.00  0.00    +0.044 A 
ATOM     11 CL   UNL     1     -11.896  -4.067  -0.321  0.00  0.00    -0.084 Cl
BRANCH   5  12
ATOM     12  C   UNL     1      -9.814   0.456   1.131  0.00  0.00    +0.195 C 
ATOM     13  O   UNL     1     -10.469   1.323   0.587  0.00  0.00    -0.287 OA
BRANCH  12  17
ATOM     14  C   UNL     1      -8.011   1.208   4.903  0.00  0.00    +0.000 A 
ATOM     15  C   UNL     1      -8.667   2.228   4.238  0.00  0.00    +0.001 A 
ATOM     16  C   UNL     1      -9.255   1.991   3.012  0.00  0.00    +0.012 A 
ATOM     17  C   UNL     1      -9.186   0.717   2.444  0.00  0.00    +0.022 A 
ATOM     18  C   UNL     1      -8.528  -0.309   3.124  0.00  0.00    +0.012 A 
ATOM     19  C   UNL     1      -7.940  -0.057   4.346  0.00  0.00    +0.001 A 
ENDBRANCH  12  17
ENDBRANCH   5  12
ENDBRANCH   1  10
BRANCH   2  20
ATOM     20  C   UNL     1      -4.890   0.118  -0.057  0.00  0.00    +0.328 C 
BRANCH  20  21
ATOM     21  O   UNL     1      -3.652  -0.639  -0.093  0.00  0.00    -0.452 OA
BRANCH  21  22
ATOM     22  C   UNL     1      -2.505   0.066  -0.137  0.00  0.00    +0.340 C 
ATOM     23  O   UNL     1      -2.538   1.281  -0.145  0.00  0.00    -0.245 OA
BRANCH  22  24
ATOM     24  C   UNL     1      -1.206  -0.637  -0.175  0.00  0.00    +0.071 A 
ATOM     25  C   UNL     1      -1.164  -2.033  -0.167  0.00  0.00    +0.015 A 
ATOM     26  C   UNL     1       0.052  -2.683  -0.203  0.00  0.00    +0.001 A 
ATOM     27  C   UNL     1       1.228  -1.955  -0.249  0.00  0.00    +0.001 A 
ATOM     28  C   UNL     1       1.193  -0.572  -0.263  0.00  0.00    +0.013 A 
ATOM     29  C   UNL     1      -0.016   0.091  -0.221  0.00  0.00    +0.069 A 
BRANCH  29  30
ATOM     30  C   UNL     1      -0.051   1.598  -0.231  0.00  0.00    +0.418 C 
ATOM     31  F   UNL     1       1.255   2.095  -0.279  0.00  0.00    -0.166 F 
ATOM     32  F   UNL     1      -0.760   2.040  -1.353  0.00  0.00    -0.166 F 
ATOM     33  F   UNL     1      -0.683   2.057   0.930  0.00  0.00    -0.166 F 
ENDBRANCH  29  30
ENDBRANCH  22  24
ENDBRANCH  21  22
ENDBRANCH  20  21
ENDBRANCH   2  20
TORSDOF 8
