REMARK  Name = ZINC42868493
REMARK  4 active torsions:
REMARK  status: ('A' for Active; 'I' for Inactive)
REMARK    1  A    between atoms: C_4  and  C_7
REMARK    2  A    between atoms: N_9  and  N_10
REMARK    3  A    between atoms: N_13  and  C_14
REMARK    4  A    between atoms: C_14  and  C_15
REMARK                            x       y       z     vdW  Elec       q    Type
REMARK                         _______ _______ _______ _____ _____    ______ ____
ROOT
ATOM      1  N   UNL     1       3.654  -2.228  -3.882  0.00  0.00    -0.218 N 
ATOM      2  C   UNL     1       3.793  -3.550  -4.104  0.00  0.00    +0.316 C 
ATOM      3  O   UNL     1       4.362  -3.942  -5.104  0.00  0.00    -0.251 OA
ATOM      4  N   UNL     1       3.301  -4.437  -3.216  0.00  0.00    -0.296 N 
ATOM      5  H   UNL     1       4.008  -1.589  -4.520  0.00  0.00    +0.174 HD
ATOM      6  H   UNL     1       2.847  -4.125  -2.418  0.00  0.00    +0.150 HD
ENDROOT
BRANCH   1   9
ATOM      7  C   UNL     1       2.859  -0.454  -2.507  0.00  0.00    +0.232 C 
ATOM      8  O   UNL     1       3.301   0.345  -3.306  0.00  0.00    -0.274 OA
ATOM      9  N   UNL     1       2.998  -1.776  -2.729  0.00  0.00    -0.233 N 
ATOM     10  H   UNL     1       2.644  -2.415  -2.091  0.00  0.00    +0.173 HD
BRANCH   7  14
ATOM     11  C   UNL     1      -0.019   1.526   0.010  0.00  0.00    +0.000 C 
ATOM     12  C   UNL     1       1.417   2.055  -0.000  0.00  0.00    +0.001 C 
ATOM     13  C   UNL     1       2.133   1.562  -1.259  0.00  0.00    +0.013 C 
ATOM     14  C   UNL     1       2.154   0.032  -1.268  0.00  0.00    +0.076 C 
ATOM     15  C   UNL     1       0.718  -0.497  -1.257  0.00  0.00    +0.013 C 
ATOM     16  C   UNL     1       0.002  -0.004   0.002  0.00  0.00    +0.001 C 
ENDBRANCH   7  14
ENDBRANCH   1   9
BRANCH   4  17
ATOM     17  C   UNL     1       3.452  -5.875  -3.458  0.00  0.00    +0.137 C 
BRANCH  17  18
ATOM     18  C   UNL     1       2.811  -6.655  -2.308  0.00  0.00    +0.135 C 
ATOM     19  C   UNL     1       2.991  -8.178  -2.526  0.00  0.00    +0.035 C 
ATOM     20  C   UNL     1       2.896  -8.698  -1.066  0.00  0.00    +0.031 C 
ATOM     21  C   UNL     1       3.551  -7.551  -0.266  0.00  0.00    +0.160 C 
ATOM     22  O   UNL     1       3.487  -6.368  -1.073  0.00  0.00    -0.375 OA
ENDBRANCH  17  18
ENDBRANCH   4  17
TORSDOF 4
