REMARK  Name = ZINC43093356
REMARK  13 active torsions:
REMARK  status: ('A' for Active; 'I' for Inactive)
REMARK    1  A    between atoms: C_1  and  C_2
REMARK    2  A    between atoms: C_2  and  C_3
REMARK    3  A    between atoms: C_3  and  C_4
REMARK    4  A    between atoms: C_3  and  N_6
REMARK    5  A    between atoms: C_4  and  C_5
REMARK    6  A    between atoms: N_6  and  C_7
REMARK    7  A    between atoms: N_6  and  C_10
REMARK    8  A    between atoms: C_7  and  C_8
REMARK    9  A    between atoms: C_8  and  O_9
REMARK   10  A    between atoms: C_10  and  C_12
REMARK   11  A    between atoms: C_10  and  C_19
REMARK   12  A    between atoms: C_19  and  C_21
REMARK   13  A    between atoms: C_19  and  N_22
REMARK                            x       y       z     vdW  Elec       q    Type
REMARK                         _______ _______ _______ _____ _____    ______ ____
ROOT
ATOM      1  C   UNL     1       2.157   1.364   1.244  0.00  0.00    +0.074 C 
ENDROOT
BRANCH   1   2
ATOM      2  C   UNL     1       2.231   2.282   0.051  0.00  0.00    -0.018 A 
ATOM      3  C   UNL     1       1.311   3.304  -0.092  0.00  0.00    +0.006 A 
ATOM      4  C   UNL     1       1.378   4.147  -1.186  0.00  0.00    +0.000 A 
ATOM      5  C   UNL     1       2.366   3.968  -2.136  0.00  0.00    +0.001 A 
ATOM      6  C   UNL     1       3.287   2.947  -1.994  0.00  0.00    +0.015 A 
ATOM      7  C   UNL     1       3.223   2.107  -0.897  0.00  0.00    +0.022 A 
ATOM      8 BR   UNL     1       4.486   0.714  -0.698  0.00  0.00    -0.050 Br
ENDBRANCH   1   2
BRANCH   1   9
ATOM      9  C   UNL     1       3.370   1.601   2.146  0.00  0.00    -0.056 C 
ATOM     10  C   UNL     1       3.718   3.091   2.150  0.00  0.00    -0.012 C 
BRANCH   9  11
ATOM     11  N   UNL     1       3.055   1.168   3.514  0.00  0.00    +0.381 N 
ATOM     12  H   UNL     1       2.918   0.168   3.526  0.00  0.00    -0.090 HD
ATOM     13  H   UNL     1       3.818   1.411   4.127  0.00  0.00    -0.090 HD
ATOM     14  H   UNL     1       2.213   1.627   3.826  0.00  0.00    -0.090 HD
ENDBRANCH   9  11
ENDBRANCH   1   9
BRANCH   1  15
ATOM     15  N   UNL     1       2.153  -0.032   0.787  0.00  0.00    -0.292 NA
BRANCH  15  16
ATOM     16  C   UNL     1       0.842  -0.402   0.236  0.00  0.00    +0.057 C 
BRANCH  16  18
ATOM     17  C   UNL     1      -0.199  -0.078   2.485  0.00  0.00    +0.005 C 
ATOM     18  C   UNL     1      -0.259   0.326   1.010  0.00  0.00    +0.015 C 
ENDBRANCH  16  18
BRANCH  16  19
ATOM     19  C   UNL     1       0.777  -0.003  -1.239  0.00  0.00    +0.015 C 
ATOM     20  C   UNL     1       1.799  -0.820  -2.033  0.00  0.00    +0.005 C 
ENDBRANCH  16  19
ENDBRANCH  15  16
BRANCH  15  21
ATOM     21  C   UNL     1       2.544  -0.942   1.872  0.00  0.00    +0.113 C 
BRANCH  21  22
ATOM     22  C   UNL     1       2.736  -2.353   1.310  0.00  0.00    +0.171 C 
BRANCH  22  23
ATOM     23  O   UNL     1       3.828  -2.353   0.388  0.00  0.00    -0.394 OA
ATOM     24  H   UNL     1       3.960  -3.197  -0.066  0.00  0.00    +0.209 HD
ENDBRANCH  22  23
ENDBRANCH  21  22
ENDBRANCH  15  21
ENDBRANCH   1  15
TORSDOF 10
