REMARK  Name = ZINC46773191
REMARK  10 active torsions:
REMARK  status: ('A' for Active; 'I' for Inactive)
REMARK    1  A    between atoms: C_1  and  C_2
REMARK    2  A    between atoms: C_3  and  N_9
REMARK    3  A    between atoms: N_9  and  C_10
REMARK    4  A    between atoms: C_10  and  N_12
REMARK    5  A    between atoms: N_12  and  N_13
REMARK    6  A    between atoms: C_14  and  C_16
REMARK    7  A    between atoms: C_20  and  S_22
REMARK    8  A    between atoms: S_22  and  N_25
REMARK    9  A    between atoms: C_27  and  C_34
REMARK   10  A    between atoms: C_30  and  C_33
REMARK                            x       y       z     vdW  Elec       q    Type
REMARK                         _______ _______ _______ _____ _____    ______ ____
ROOT
ATOM      1  N   UNL     1       0.162   1.431  -4.730  0.00  0.00    -0.231 N 
ATOM      2  C   UNL     1       0.249   2.114  -5.888  0.00  0.00    +0.260 C 
ATOM      3  O   UNL     1       0.344   1.515  -6.941  0.00  0.00    -0.269 OA
ATOM      4  H   UNL     1       0.086   1.909  -3.889  0.00  0.00    +0.173 HD
ENDROOT
BRANCH   2   5
ATOM      5  C   UNL     1       0.228   3.592  -5.878  0.00  0.00    +0.040 A 
ATOM      6  C   UNL     1       0.125   4.283  -4.670  0.00  0.00    +0.013 A 
ATOM      7  C   UNL     1       0.106   5.663  -4.667  0.00  0.00    +0.003 A 
ATOM      8  C   UNL     1       0.190   6.361  -5.859  0.00  0.00    +0.028 A 
ATOM      9  C   UNL     1       0.291   5.682  -7.060  0.00  0.00    +0.106 A 
ATOM     10  C   UNL     1       0.317   4.303  -7.076  0.00  0.00    +0.041 A 
BRANCH   9  11
ATOM     11  S   UNL     1       0.396   6.581  -8.572  0.00  0.00    +0.061 S 
ATOM     12  O   UNL     1      -0.066   5.710  -9.595  0.00  0.00    -0.153 OA
ATOM     13  O   UNL     1      -0.192   7.852  -8.330  0.00  0.00    -0.153 OA
BRANCH  11  14
ATOM     14  N   UNL     1       2.002   6.852  -8.870  0.00  0.00    -0.176 NA
ATOM     15  C   UNL     1       2.666   8.059  -8.357  0.00  0.00    +0.112 C 
ATOM     16  C   UNL     1       3.906   7.640  -7.563  0.00  0.00    +0.002 C 
ATOM     17  C   UNL     1       4.797   6.758  -8.442  0.00  0.00    +0.009 C 
ATOM     18  C   UNL     1       4.031   5.495  -8.842  0.00  0.00    +0.002 C 
ATOM     19  C   UNL     1       2.793   5.887  -9.647  0.00  0.00    +0.112 C 
ATOM     20  C   UNL     1       4.933   4.599  -9.693  0.00  0.00    +0.009 C 
ATOM     21  C   UNL     1       4.684   8.886  -7.135  0.00  0.00    +0.009 C 
ENDBRANCH  11  14
ENDBRANCH   9  11
ENDBRANCH   2   5
BRANCH   1  22
ATOM     22  N   UNL     1       0.182   0.030  -4.739  0.00  0.00    -0.245 N 
ATOM     23  H   UNL     1       0.258  -0.448  -5.580  0.00  0.00    +0.172 HD
BRANCH  22  24
ATOM     24  C   UNL     1       0.095  -0.653  -3.581  0.00  0.00    +0.151 C 
ATOM     25  S   UNL     1       0.119  -2.365  -3.593  0.00  0.00    -0.017 S 
BRANCH  24  26
ATOM     26  N   UNL     1      -0.010   0.011  -2.413  0.00  0.00    -0.296 N 
ATOM     27  H   UNL     1      -0.104   0.976  -2.411  0.00  0.00    +0.154 HD
BRANCH  26  30
ATOM     28  C   UNL     1      -1.912   0.706  -0.414  0.00  0.00    +0.047 C 
ATOM     29  C   UNL     1      -0.895  -0.385  -0.201  0.00  0.00    -0.011 A 
ATOM     30  C   UNL     1       0.016  -0.692  -1.204  0.00  0.00    +0.037 A 
ATOM     31  C   UNL     1       0.952  -1.698  -1.004  0.00  0.00    +0.023 A 
ATOM     32  C   UNL     1       0.975  -2.391   0.191  0.00  0.00    +0.003 A 
ATOM     33  C   UNL     1       0.068  -2.084   1.188  0.00  0.00    +0.020 A 
ATOM     34  C   UNL     1      -0.863  -1.078   0.994  0.00  0.00    +0.046 A 
ATOM     35 CL   UNL     1      -1.996  -0.690   2.252  0.00  0.00    -0.083 Cl
ENDBRANCH  26  30
ENDBRANCH  24  26
ENDBRANCH  22  24
ENDBRANCH   1  22
TORSDOF 7
