REMARK  Name = ZINC64349065
REMARK  6 active torsions:
REMARK  status: ('A' for Active; 'I' for Inactive)
REMARK    1  A    between atoms: C_8  and  C_12
REMARK    2  A    between atoms: N_14  and  C_15
REMARK    3  A    between atoms: C_15  and  C_17
REMARK    4  A    between atoms: C_15  and  C_27
REMARK    5  A    between atoms: C_17  and  C_18
REMARK    6  A    between atoms: N_29  and  C_30
REMARK                            x       y       z     vdW  Elec       q    Type
REMARK                         _______ _______ _______ _____ _____    ______ ____
ROOT
ATOM      1  C   UNL     1       2.123  -6.403  -0.836  0.00  0.00    +0.163 C 
ENDROOT
BRANCH   1   4
ATOM      2  C   UNL     1       2.956  -4.246  -0.068  0.00  0.00    +0.231 C 
ATOM      3  O   UNL     1       3.468  -4.812   0.874  0.00  0.00    -0.274 OA
ATOM      4  N   UNL     1       2.261  -4.952  -0.982  0.00  0.00    -0.302 N 
ATOM      5  H   UNL     1       1.852  -4.499  -1.736  0.00  0.00    +0.150 HD
BRANCH   2  13
ATOM      6  C   UNL     1       1.092   1.622   0.521  0.00  0.00    +0.000 A 
ATOM      7  C   UNL     1       2.361   2.171   0.521  0.00  0.00    +0.000 A 
ATOM      8  C   UNL     1       3.466   1.348   0.435  0.00  0.00    +0.005 A 
ATOM      9  C   UNL     1       3.310  -0.028   0.351  0.00  0.00    -0.030 A 
ATOM     10  C   UNL     1       2.045  -0.575   0.355  0.00  0.00    -0.041 A 
ATOM     11  C   UNL     1       0.936   0.253   0.438  0.00  0.00    +0.004 A 
ATOM     12  C   UNL     1       1.826  -2.064   0.277  0.00  0.00    +0.063 C 
ATOM     13  C   UNL     1       3.098  -2.753  -0.218  0.00  0.00    +0.145 C 
ATOM     14  N   UNL     1       4.232  -2.277   0.590  0.00  0.00    -0.301 NA
ATOM     15  C   UNL     1       4.546  -0.885   0.254  0.00  0.00    +0.117 C 
ATOM     16  H   UNL     1       4.042  -2.377   1.575  0.00  0.00    +0.123 HD
ENDBRANCH   2  13
ENDBRANCH   1   4
BRANCH   1  17
ATOM     17  C   UNL     1       0.833  -6.851  -1.474  0.00  0.00    +0.234 C 
ATOM     18  O   UNL     1       0.101  -6.039  -1.998  0.00  0.00    -0.274 OA
ATOM     19  N   UNL     1       0.493  -8.155  -1.462  0.00  0.00    -0.311 N 
ATOM     20  H   UNL     1       1.078  -8.805  -1.042  0.00  0.00    +0.149 HD
BRANCH  19  21
ATOM     21  C   UNL     1      -0.761  -8.591  -2.082  0.00  0.00    +0.073 C 
ATOM     22  C   UNL     1      -1.907  -8.434  -1.080  0.00  0.00    +0.022 C 
ATOM     23  C   UNL     1      -3.216  -8.889  -1.727  0.00  0.00    +0.002 C 
ATOM     24  C   UNL     1      -3.098 -10.357  -2.140  0.00  0.00    +0.000 C 
ATOM     25  C   UNL     1      -1.952 -10.515  -3.141  0.00  0.00    +0.002 C 
ATOM     26  C   UNL     1      -0.643 -10.060  -2.494  0.00  0.00    +0.022 C 
ENDBRANCH  19  21
ENDBRANCH   1  17
BRANCH   1  27
ATOM     27  C   UNL     1       3.300  -7.099  -1.523  0.00  0.00    +0.065 C 
BRANCH  27  28
ATOM     28  C   UNL     1       3.329  -6.717  -2.980  0.00  0.00    -0.039 C 
ATOM     29  C   UNL     1       4.049  -5.721  -3.546  0.00  0.00    -0.001 A 
ATOM     30  C   UNL     1       4.984  -4.733  -2.995  0.00  0.00    +0.010 A 
ATOM     31  C   UNL     1       5.563  -3.841  -3.830  0.00  0.00    +0.001 A 
ATOM     32  C   UNL     1       5.293  -3.836  -5.205  0.00  0.00    +0.002 A 
ATOM     33  C   UNL     1       4.446  -4.712  -5.785  0.00  0.00    +0.026 A 
ATOM     34  C   UNL     1       3.781  -5.695  -5.002  0.00  0.00    +0.043 A 
ATOM     35  N   UNL     1       2.928  -6.637  -5.324  0.00  0.00    -0.380 N 
ATOM     36  C   UNL     1       2.563  -7.373  -4.108  0.00  0.00    +0.144 C 
ATOM     37  H   UNL     1       2.597  -6.820  -6.217  0.00  0.00    +0.160 HD
ENDBRANCH  27  28
ENDBRANCH   1  27
TORSDOF 6
