REMARK  Name = ZINC46918986
REMARK  7 active torsions:
REMARK  status: ('A' for Active; 'I' for Inactive)
REMARK    1  A    between atoms: C_1  and  N_2
REMARK    2  A    between atoms: N_2  and  C_3
REMARK    3  A    between atoms: C_6  and  C_10
REMARK    4  A    between atoms: C_10  and  N_11
REMARK    5  A    between atoms: N_14  and  C_15
REMARK    6  A    between atoms: C_15  and  C_17
REMARK    7  A    between atoms: C_15  and  C_24
REMARK                            x       y       z     vdW  Elec       q    Type
REMARK                         _______ _______ _______ _____ _____    ______ ____
ROOT
ATOM      1  N   UNL     1      -1.351  -4.764  -2.463  0.00  0.00    -0.295 N 
ATOM      2  C   UNL     1      -1.585  -6.091  -2.499  0.00  0.00    +0.301 C 
ATOM      3  O   UNL     1      -0.653  -6.872  -2.529  0.00  0.00    -0.253 OA
ATOM      4  N   UNL     1      -2.851  -6.552  -2.503  0.00  0.00    -0.288 N 
ATOM      5  H   UNL     1      -2.094  -4.141  -2.439  0.00  0.00    +0.151 HD
ATOM      6  H   UNL     1      -3.594  -5.930  -2.479  0.00  0.00    +0.151 HD
ENDROOT
BRANCH   1   7
ATOM      7  C   UNL     1       0.025  -4.262  -2.458  0.00  0.00    +0.141 C 
BRANCH   7  13
ATOM      8  C   UNL     1      -0.018   1.461   0.010  0.00  0.00    +0.130 C 
ATOM      9  N   UNL     1       0.002  -0.004   0.002  0.00  0.00    -0.323 N 
ATOM     10  C   UNL     1       0.024  -0.743   1.267  0.00  0.00    +0.130 C 
ATOM     11  C   UNL     1       0.000  -0.693  -1.206  0.00  0.00    +0.098 A 
ATOM     12  C   UNL     1       0.013  -2.084  -1.206  0.00  0.00    +0.047 A 
ATOM     13  C   UNL     1       0.011  -2.756  -2.415  0.00  0.00    -0.026 A 
ATOM     14  C   UNL     1      -0.004  -2.012  -3.587  0.00  0.00    +0.023 A 
ATOM     15  C   UNL     1      -0.017  -0.633  -3.513  0.00  0.00    +0.084 A 
ATOM     16  N   UNL     1      -0.020  -0.019  -2.345  0.00  0.00    -0.350 N 
ATOM     17  H   UNL     1      -0.033   0.951  -2.321  0.00  0.00    +0.166 HD
ENDBRANCH   7  13
ENDBRANCH   1   7
BRANCH   4  18
ATOM     18  C   UNL     1      -3.105  -7.995  -2.543  0.00  0.00    +0.142 C 
BRANCH  18  19
ATOM     19  C   UNL     1      -4.464  -8.249  -3.141  0.00  0.00    -0.022 A 
ATOM     20  C   UNL     1      -5.525  -7.423  -2.820  0.00  0.00    +0.008 A 
ATOM     21  C   UNL     1      -6.773  -7.655  -3.368  0.00  0.00    +0.038 A 
ATOM     22  C   UNL     1      -6.960  -8.715  -4.239  0.00  0.00    +0.123 A 
ATOM     23  C   UNL     1      -5.896  -9.542  -4.559  0.00  0.00    +0.038 A 
ATOM     24  C   UNL     1      -4.648  -9.305  -4.014  0.00  0.00    +0.008 A 
ATOM     25  F   UNL     1      -8.178  -8.943  -4.775  0.00  0.00    -0.205 F 
ENDBRANCH  18  19
BRANCH  18  26
ATOM     26  C   UNL     1      -3.059  -8.552  -1.144  0.00  0.00    +0.014 A 
ATOM     27  C   UNL     1      -2.522  -9.716  -0.706  0.00  0.00    +0.013 A 
ATOM     28  C   UNL     1      -2.596 -10.025   0.639  0.00  0.00    +0.008 A 
ATOM     29  C   UNL     1      -3.205  -9.154   1.481  0.00  0.00    +0.045 A 
ATOM     30  S   UNL     1      -3.692  -7.845   0.369  0.00  0.00    -0.099 S 
ENDBRANCH  18  26
ENDBRANCH   4  18
TORSDOF 5
