REMARK  Name = ZINC02542551
REMARK  7 active torsions:
REMARK  status: ('A' for Active; 'I' for Inactive)
REMARK    1  A    between atoms: C_8  and  C_10
REMARK    2  A    between atoms: C_10  and  O_12
REMARK    3  A    between atoms: O_12  and  C_13
REMARK    4  A    between atoms: C_17  and  C_19
REMARK    5  A    between atoms: N_20  and  N_21
REMARK    6  A    between atoms: C_22  and  C_24
REMARK    7  A    between atoms: N_26  and  C_27
REMARK                            x       y       z     vdW  Elec       q    Type
REMARK                         _______ _______ _______ _____ _____    ______ ____
ROOT
ATOM      1  C   UNL     1       3.688   8.726   0.107  0.00  0.00    +0.133 A 
ATOM      2  C   UNL     1       5.043   8.423   0.061  0.00  0.00    +0.046 A 
ATOM      3  C   UNL     1       5.985   9.435   0.088  0.00  0.00    +0.004 A 
ATOM      4  C   UNL     1       5.586  10.754   0.160  0.00  0.00    +0.010 A 
ATOM      5  C   UNL     1       4.225  11.069   0.206  0.00  0.00    -0.002 A 
ATOM      6  C   UNL     1       3.276  10.046   0.174  0.00  0.00    +0.055 A 
ENDROOT
BRANCH   5   7
ATOM      7  C   UNL     1       3.794  12.477   0.283  0.00  0.00    +0.138 C 
ATOM      8  N   UNL     1       4.679  13.427   0.308  0.00  0.00    -0.187 NA
BRANCH   8   9
ATOM      9  N   UNL     1       4.270  14.764   0.381  0.00  0.00    -0.199 N 
ATOM     10  C   UNL     1       5.189  15.750   0.407  0.00  0.00    +0.318 C 
ATOM     11  O   UNL     1       6.372  15.479   0.366  0.00  0.00    -0.263 OA
ATOM     12  H   UNL     1       3.325  14.981   0.413  0.00  0.00    +0.178 HD
BRANCH  10  13
ATOM     13  C   UNL     1       4.752  17.174   0.484  0.00  0.00    +0.305 C 
ATOM     14  O   UNL     1       3.570  17.445   0.525  0.00  0.00    -0.265 OA
ATOM     15  N   UNL     1       5.671  18.160   0.510  0.00  0.00    -0.276 N 
ATOM     16  H   UNL     1       6.611  17.949   0.397  0.00  0.00    +0.155 HD
BRANCH  15  17
ATOM     17  C   UNL     1       5.269  19.485   0.699  0.00  0.00    +0.052 A 
ATOM     18  C   UNL     1       4.076  19.764   1.354  0.00  0.00    +0.025 A 
ATOM     19  C   UNL     1       3.684  21.074   1.543  0.00  0.00    +0.002 A 
ATOM     20  C   UNL     1       4.472  22.109   1.073  0.00  0.00    +0.002 A 
ATOM     21  C   UNL     1       5.658  21.836   0.416  0.00  0.00    +0.022 A 
ATOM     22  C   UNL     1       6.059  20.527   0.227  0.00  0.00    +0.062 A 
ATOM     23 CL   UNL     1       7.548  20.184  -0.598  0.00  0.00    -0.082 Cl
ENDBRANCH  15  17
ENDBRANCH  10  13
ENDBRANCH   8   9
ENDBRANCH   5   7
BRANCH   1  24
ATOM     24  O   UNL     1       2.768   7.727   0.079  0.00  0.00    -0.422 OA
BRANCH  24  25
ATOM     25  C   UNL     1       2.607   7.011   1.211  0.00  0.00    +0.353 C 
ATOM     26  O   UNL     1       3.333   7.212   2.166  0.00  0.00    -0.244 OA
BRANCH  25  34
ATOM     27  C   UNL     1      -1.328   2.501   2.893  0.00  0.00    +0.001 A 
ATOM     28  C   UNL     1      -1.959   2.522   1.655  0.00  0.00    +0.001 A 
ATOM     29  C   UNL     1      -1.532   3.411   0.689  0.00  0.00    +0.016 A 
ATOM     30  C   UNL     1      -0.479   4.257   0.963  0.00  0.00    +0.022 A 
ATOM     31  C   UNL     1       0.186   4.254   2.212  0.00  0.00    +0.008 A 
ATOM     32  C   UNL     1      -0.289   3.329   3.176  0.00  0.00    +0.010 A 
ATOM     33  C   UNL     1       1.242   5.176   2.336  0.00  0.00    +0.070 A 
ATOM     34  C   UNL     1       1.556   5.991   1.291  0.00  0.00    +0.116 A 
ATOM     35  S   UNL     1       0.375   5.513   0.042  0.00  0.00    -0.080 S 
ATOM     36 CL   UNL     1       2.141   5.275   3.817  0.00  0.00    -0.082 Cl
ENDBRANCH  25  34
ENDBRANCH  24  25
ENDBRANCH   1  24
TORSDOF 7
