REMARK  Name = ZINC39534379
REMARK  12 active torsions:
REMARK  status: ('A' for Active; 'I' for Inactive)
REMARK    1  A    between atoms: C_1  and  C_2
REMARK    2  A    between atoms: C_2  and  O_3
REMARK    3  A    between atoms: O_3  and  C_4
REMARK    4  A    between atoms: N_7  and  C_11
REMARK    5  A    between atoms: C_11  and  C_13
REMARK    6  A    between atoms: C_11  and  C_22
REMARK    7  A    between atoms: C_13  and  N_14
REMARK    8  A    between atoms: N_14  and  C_15
REMARK    9  A    between atoms: C_20  and  O_21
REMARK   10  A    between atoms: C_25  and  S_28
REMARK   11  A    between atoms: S_28  and  O_31
REMARK   12  A    between atoms: O_31  and  C_32
REMARK                            x       y       z     vdW  Elec       q    Type
REMARK                         _______ _______ _______ _____ _____    ______ ____
ROOT
ATOM      1  C   UNL     1       1.655  -4.155   4.120  0.00  0.00    -0.020 C 
ENDROOT
BRANCH   1   4
ATOM      2  C   UNL     1       0.628  -2.196   1.087  0.00  0.00    +0.169 C 
ATOM      3  C   UNL     1       1.129  -2.457   2.509  0.00  0.00    -0.029 C 
ATOM      4  N   UNL     1       1.191  -3.905   2.749  0.00  0.00    +0.389 N 
ATOM      5  C   UNL     1       2.124  -4.521   1.796  0.00  0.00    -0.062 C 
ATOM      6  C   UNL     1       1.630  -4.277   0.368  0.00  0.00    +0.065 C 
ATOM      7  N   UNL     1       1.539  -2.831   0.125  0.00  0.00    -0.295 NA
ATOM      8  H   UNL     1       1.252  -2.641  -0.824  0.00  0.00    +0.124 HD
ATOM      9  H   UNL     1       0.273  -4.305   2.627  0.00  0.00    -0.081 HD
BRANCH   2  10
ATOM     10  O   UNL     1       0.586  -0.788   0.847  0.00  0.00    -0.364 OA
BRANCH  10  12
ATOM     11  C   UNL     1      -0.148   1.105  -0.464  0.00  0.00    +0.034 C 
ATOM     12  C   UNL     1      -0.173  -0.417  -0.305  0.00  0.00    +0.158 C 
ENDBRANCH  10  12
ENDBRANCH   2  10
ENDBRANCH   1   4
BRANCH   1  13
ATOM     13  C   UNL     1       1.754  -5.640   4.354  0.00  0.00    -0.059 A 
ATOM     14  C   UNL     1       0.787  -6.486   3.844  0.00  0.00    +0.004 A 
ATOM     15  C   UNL     1       0.878  -7.849   4.059  0.00  0.00    +0.031 A 
ATOM     16  C   UNL     1       1.937  -8.365   4.783  0.00  0.00    +0.128 A 
ATOM     17  C   UNL     1       2.904  -7.519   5.292  0.00  0.00    +0.031 A 
ATOM     18  C   UNL     1       2.815  -6.157   5.074  0.00  0.00    +0.004 A 
BRANCH  16  19
ATOM     19  S   UNL     1       2.052 -10.102   5.057  0.00  0.00    +0.151 S 
ATOM     20  O   UNL     1       2.841 -10.277   6.226  0.00  0.00    -0.131 OA
ATOM     21  O   UNL     1       0.733 -10.619   4.944  0.00  0.00    -0.131 OA
BRANCH  19  22
ATOM     22  O   UNL     1       2.850 -10.688   3.902  0.00  0.00    -0.342 OA
BRANCH  22  23
ATOM     23  C   UNL     1       4.185 -10.443   3.972  0.00  0.00    +0.157 A 
ATOM     24  C   UNL     1       4.713  -9.299   3.390  0.00  0.00    +0.048 A 
ATOM     25  C   UNL     1       6.070  -9.052   3.463  0.00  0.00    +0.004 A 
ATOM     26  C   UNL     1       6.902  -9.943   4.114  0.00  0.00    +0.000 A 
ATOM     27  C   UNL     1       6.379 -11.084   4.694  0.00  0.00    +0.004 A 
ATOM     28  C   UNL     1       5.022 -11.333   4.629  0.00  0.00    +0.048 A 
ENDBRANCH  22  23
ENDBRANCH  19  22
ENDBRANCH  16  19
ENDBRANCH   1  13
BRANCH   1  29
ATOM     29  C   UNL     1       0.663  -3.547   5.113  0.00  0.00    +0.091 C 
BRANCH  29  30
ATOM     30  N   UNL     1       1.165  -3.727   6.478  0.00  0.00    -0.342 N 
ATOM     31  H   UNL     1       2.045  -4.109   6.624  0.00  0.00    +0.146 HD
BRANCH  30  32
ATOM     32  C   UNL     1       0.377  -3.347   7.570  0.00  0.00    +0.069 A 
ATOM     33  C   UNL     1      -0.884  -2.806   7.362  0.00  0.00    +0.026 A 
ATOM     34  C   UNL     1      -1.661  -2.432   8.443  0.00  0.00    +0.002 A 
ATOM     35  C   UNL     1      -1.186  -2.596   9.730  0.00  0.00    +0.004 A 
ATOM     36  C   UNL     1       0.070  -3.135   9.945  0.00  0.00    +0.047 A 
ATOM     37  C   UNL     1       0.853  -3.517   8.868  0.00  0.00    +0.138 A 
BRANCH  37  38
ATOM     38  O   UNL     1       2.086  -4.052   9.077  0.00  0.00    -0.505 OA
ATOM     39  H   UNL     1       2.797  -3.398   9.113  0.00  0.00    +0.292 HD
ENDBRANCH  37  38
ENDBRANCH  30  32
ENDBRANCH  29  30
ENDBRANCH   1  29
TORSDOF 11
