REMARK  Name = ZINC65395164
REMARK  10 active torsions:
REMARK  status: ('A' for Active; 'I' for Inactive)
REMARK    1  A    between atoms: C_1  and  C_2
REMARK    2  A    between atoms: C_5  and  S_8
REMARK    3  A    between atoms: S_8  and  N_11
REMARK    4  A    between atoms: N_11  and  C_12
REMARK    5  A    between atoms: C_12  and  C_13
REMARK    6  A    between atoms: C_13  and  C_14
REMARK    7  A    between atoms: C_14  and  N_15
REMARK    8  A    between atoms: C_24  and  C_26
REMARK    9  A    between atoms: C_26  and  C_27
REMARK   10  A    between atoms: C_27  and  N_28
REMARK                            x       y       z     vdW  Elec       q    Type
REMARK                         _______ _______ _______ _____ _____    ______ ____
ROOT
ATOM      1  N   UNL     1       5.906  -6.032   2.144  0.00  0.00    -0.328 N 
ATOM      2  C   UNL     1       6.873  -5.920   3.120  0.00  0.00    +0.130 A 
ATOM      3  C   UNL     1       8.063  -6.685   3.058  0.00  0.00    +0.040 A 
ATOM      4  C   UNL     1       8.316  -7.583   2.015  0.00  0.00    +0.013 A 
ATOM      5  C   UNL     1       9.481  -8.293   2.007  0.00  0.00    +0.001 A 
ATOM      6  C   UNL     1      10.420  -8.136   3.023  0.00  0.00    +0.002 A 
ATOM      7  C   UNL     1      10.203  -7.270   4.053  0.00  0.00    +0.028 A 
ATOM      8  C   UNL     1       9.017  -6.524   4.091  0.00  0.00    +0.076 A 
ATOM      9  N   UNL     1       8.755  -5.657   5.081  0.00  0.00    -0.232 NA
ATOM     10  C   UNL     1       7.635  -4.974   5.088  0.00  0.00    +0.130 A 
ATOM     11  N   UNL     1       6.716  -5.088   4.141  0.00  0.00    -0.217 NA
ATOM     12  H   UNL     1       6.035  -6.645   1.403  0.00  0.00    +0.147 HD
ENDROOT
BRANCH   1  13
ATOM     13  C   UNL     1       4.686  -5.227   2.225  0.00  0.00    +0.104 C 
BRANCH  13  14
ATOM     14  C   UNL     1       3.787  -5.540   1.028  0.00  0.00    +0.035 C 
BRANCH  14  15
ATOM     15  C   UNL     1       2.512  -4.699   1.113  0.00  0.00    +0.107 C 
BRANCH  15  16
ATOM     16  N   UNL     1       1.651  -4.999  -0.034  0.00  0.00    -0.190 NA
ATOM     17  H   UNL     1       2.011  -5.473  -0.800  0.00  0.00    +0.148 HD
BRANCH  16  18
ATOM     18  S   UNL     1       0.063  -4.530  -0.023  0.00  0.00    +0.058 S 
ATOM     19  O   UNL     1      -0.476  -4.950   1.223  0.00  0.00    -0.153 OA
ATOM     20  O   UNL     1      -0.490  -4.937  -1.267  0.00  0.00    -0.153 OA
BRANCH  18  25
ATOM     21  C   UNL     1      -0.018   1.503   0.010  0.00  0.00    +0.044 C 
ATOM     22  C   UNL     1       0.002  -0.004   0.002  0.00  0.00    -0.050 A 
ATOM     23  C   UNL     1       0.006  -0.689  -1.199  0.00  0.00    +0.005 A 
ATOM     24  C   UNL     1       0.025  -2.071  -1.206  0.00  0.00    +0.029 A 
ATOM     25  C   UNL     1       0.040  -2.768  -0.013  0.00  0.00    +0.105 A 
ATOM     26  C   UNL     1       0.037  -2.084   1.188  0.00  0.00    +0.029 A 
ATOM     27  C   UNL     1       0.023  -0.702   1.195  0.00  0.00    +0.005 A 
ENDBRANCH  18  25
ENDBRANCH  16  18
ENDBRANCH  15  16
ENDBRANCH  14  15
ENDBRANCH  13  14
ENDBRANCH   1  13
BRANCH  10  28
ATOM     28  C   UNL     1       7.385  -4.013   6.221  0.00  0.00    +0.057 C 
BRANCH  28  29
ATOM     29  C   UNL     1       7.938  -2.635   5.852  0.00  0.00    -0.079 C 
BRANCH  29  30
ATOM     30  N   UNL     1       7.694  -1.698   6.956  0.00  0.00    +0.378 N 
ATOM     31  H   UNL     1       8.154  -2.033   7.789  0.00  0.00    -0.090 HD
ATOM     32  H   UNL     1       8.059  -0.789   6.713  0.00  0.00    -0.090 HD
ATOM     33  H   UNL     1       6.702  -1.628   7.125  0.00  0.00    -0.090 HD
ENDBRANCH  29  30
ENDBRANCH  28  29
ENDBRANCH  10  28
TORSDOF 9
