REMARK  Name = ZINC15946960
REMARK  7 active torsions:
REMARK  status: ('A' for Active; 'I' for Inactive)
REMARK    1  A    between atoms: C_1  and  O_2
REMARK    2  A    between atoms: O_2  and  C_3
REMARK    3  A    between atoms: C_8  and  N_9
REMARK    4  A    between atoms: C_10  and  C_12
REMARK    5  A    between atoms: C_16  and  N_17
REMARK    6  A    between atoms: C_18  and  C_20
REMARK    7  A    between atoms: C_20  and  N_65
REMARK                            x       y       z     vdW  Elec       q    Type
REMARK                         _______ _______ _______ _____ _____    ______ ____
ROOT
ATOM      1  C   UNL     1       3.015  -1.650   1.749  0.00  0.00    +0.069 A 
ATOM      2  C   UNL     1       2.205  -0.691   1.012  0.00  0.00    -0.023 A 
ATOM      3  C   UNL     1       2.882   0.050   0.108  0.00  0.00    -0.004 A 
ATOM      4  S   UNL     1       4.562  -0.499   0.235  0.00  0.00    -0.077 S 
ATOM      5  C   UNL     1       4.371  -1.703   1.465  0.00  0.00    +0.084 A 
ATOM      6  C   UNL     1       2.334   1.094  -0.815  0.00  0.00    +0.043 C 
ATOM      7  C   UNL     1       1.452   2.062  -0.016  0.00  0.00    +0.005 C 
ATOM      8  C   UNL     1       0.024   1.525  -0.013  0.00  0.00    +0.001 C 
ATOM      9  C   UNL     1       0.038  -0.002  -0.017  0.00  0.00    +0.005 C 
ATOM     10  C   UNL     1       0.708  -0.533   1.245  0.00  0.00    +0.037 C 
ENDROOT
BRANCH   1  12
ATOM     11  N   UNL     1       2.347  -2.131   4.044  0.00  0.00    -0.278 N 
ATOM     12  C   UNL     1       2.418  -2.530   2.758  0.00  0.00    +0.251 C 
ATOM     13  O   UNL     1       1.985  -3.621   2.436  0.00  0.00    -0.270 OA
ATOM     14  H   UNL     1       2.749  -1.290   4.313  0.00  0.00    +0.155 HD
BRANCH  11  20
ATOM     15  C   UNL     1       0.981  -2.337   6.031  0.00  0.00    +0.141 A 
ATOM     16  C   UNL     1       0.336  -3.133   6.965  0.00  0.00    +0.047 A 
ATOM     17  C   UNL     1       0.400  -4.510   6.862  0.00  0.00    +0.004 A 
ATOM     18  C   UNL     1       1.106  -5.098   5.829  0.00  0.00    +0.002 A 
ATOM     19  C   UNL     1       1.748  -4.312   4.891  0.00  0.00    +0.027 A 
ATOM     20  C   UNL     1       1.693  -2.929   4.990  0.00  0.00    +0.076 A 
BRANCH  15  22
ATOM     21  C   UNL     1       0.170  -0.446   7.223  0.00  0.00    +0.277 C 
ATOM     22  O   UNL     1       0.918  -0.983   6.130  0.00  0.00    -0.493 OA
ENDBRANCH  15  22
ENDBRANCH  11  20
ENDBRANCH   1  12
BRANCH   5  23
ATOM     23  N   UNL     1       5.339  -2.522   2.028  0.00  0.00    -0.281 N 
ATOM     24  C   UNL     1       6.620  -2.430   1.619  0.00  0.00    +0.201 C 
ATOM     25  O   UNL     1       6.926  -1.631   0.759  0.00  0.00    -0.278 OA
ATOM     26  H   UNL     1       5.093  -3.160   2.715  0.00  0.00    +0.155 HD
BRANCH  24  27
ATOM     27  C   UNL     1       7.671  -3.319   2.231  0.00  0.00    +0.019 C 
BRANCH  27  34
ATOM     28  C   UNL     1       8.951  -3.295   0.165  0.00  0.00    -0.078 C 
ATOM     29  C   UNL     1      10.322  -3.273  -0.455  0.00  0.00    -0.019 C 
ATOM     30  C   UNL     1      10.871  -4.715  -0.480  0.00  0.00    -0.002 C 
ATOM     31  C   UNL     1      11.378  -5.135   0.821  0.00  0.00    -0.002 C 
ATOM     32  C   UNL     1      10.281  -5.123   1.906  0.00  0.00    -0.019 C 
ATOM     33  C   UNL     1      10.068  -3.703   2.355  0.00  0.00    -0.078 C 
ATOM     34  N   UNL     1       8.970  -2.973   1.633  0.00  0.00    +0.385 N 
ATOM     35  H   UNL     1       9.127  -1.964   1.741  0.00  0.00    -0.081 HD
ENDBRANCH  27  34
ENDBRANCH  24  27
ENDBRANCH   5  23
TORSDOF 6
