REMARK  Name = ZINC36075048
REMARK  13 active torsions:
REMARK  status: ('A' for Active; 'I' for Inactive)
REMARK    1  A    between atoms: C_1  and  C_2
REMARK    2  A    between atoms: C_7  and  N_12
REMARK    3  A    between atoms: C_9  and  C_11
REMARK    4  A    between atoms: N_12  and  C_13
REMARK    5  A    between atoms: C_13  and  C_14
REMARK    6  A    between atoms: N_16  and  C_17
REMARK    7  A    between atoms: C_20  and  N_36
REMARK    8  A    between atoms: C_22  and  C_23
REMARK    9  A    between atoms: N_25  and  C_26
REMARK   10  A    between atoms: C_29  and  O_34
REMARK   11  A    between atoms: C_31  and  O_32
REMARK   12  A    between atoms: O_32  and  C_33
REMARK   13  A    between atoms: O_34  and  C_35
REMARK                            x       y       z     vdW  Elec       q    Type
REMARK                         _______ _______ _______ _____ _____    ______ ____
ROOT
ATOM      1  C   UNL     1       3.325  -6.209   4.822  0.00  0.00    +0.046 A 
ATOM      2  C   UNL     1       3.734  -5.278   5.768  0.00  0.00    +0.026 A 
ATOM      3  C   UNL     1       4.483  -5.680   6.855  0.00  0.00    +0.034 A 
ATOM      4  C   UNL     1       4.833  -7.012   7.012  0.00  0.00    +0.127 A 
ATOM      5  C   UNL     1       4.437  -7.949   6.084  0.00  0.00    +0.047 A 
ATOM      6  C   UNL     1       3.673  -7.559   4.981  0.00  0.00    +0.060 A 
ENDROOT
BRANCH   1   9
ATOM      7  C   UNL     1       1.811  -4.694   3.800  0.00  0.00    +0.200 C 
ATOM      8  O   UNL     1       1.708  -4.101   4.853  0.00  0.00    -0.278 OA
ATOM      9  N   UNL     1       2.569  -5.806   3.724  0.00  0.00    -0.286 N 
ATOM     10  H   UNL     1       2.587  -6.325   2.906  0.00  0.00    +0.155 HD
BRANCH   7  11
ATOM     11  C   UNL     1       1.092  -4.187   2.576  0.00  0.00    +0.016 C 
BRANCH  11  12
ATOM     12  N   UNL     1       0.341  -2.971   2.918  0.00  0.00    +0.387 N 
ATOM     13  H   UNL     1       0.979  -2.264   3.250  0.00  0.00    -0.085 HD
ATOM     14  H   UNL     1      -0.331  -3.183   3.640  0.00  0.00    -0.085 HD
BRANCH  12  20
ATOM     15  C   UNL     1      -2.450   0.701   1.129  0.00  0.00    +0.008 C 
ATOM     16  C   UNL     1      -1.770  -0.631   0.806  0.00  0.00    -0.013 C 
ATOM     17  C   UNL     1      -2.825  -1.652   0.376  0.00  0.00    +0.003 C 
ATOM     18  C   UNL     1      -2.145  -2.984   0.052  0.00  0.00    -0.001 C 
ATOM     19  C   UNL     1      -1.415  -3.498   1.295  0.00  0.00    -0.015 C 
ATOM     20  C   UNL     1      -0.360  -2.478   1.725  0.00  0.00    -0.068 C 
ATOM     21  C   UNL     1      -1.040  -1.146   2.048  0.00  0.00    -0.025 C 
ATOM     22  C   UNL     1      -2.046  -1.349   3.183  0.00  0.00    +0.006 C 
ENDBRANCH  12  20
ENDBRANCH  11  12
ENDBRANCH   7  11
ENDBRANCH   1   9
BRANCH   6  23
ATOM     23  C   UNL     1       3.240  -8.558   3.987  0.00  0.00    +0.250 C 
ATOM     24  O   UNL     1       2.658  -8.202   2.980  0.00  0.00    -0.270 OA
ATOM     25  N   UNL     1       3.490  -9.867   4.193  0.00  0.00    -0.278 N 
ATOM     26  H   UNL     1       4.015 -10.145   4.960  0.00  0.00    +0.155 HD
BRANCH  25  27
ATOM     27  C   UNL     1       2.992 -10.825   3.299  0.00  0.00    +0.076 A 
ATOM     28  C   UNL     1       2.906 -10.534   1.946  0.00  0.00    +0.030 A 
ATOM     29  C   UNL     1       2.416 -11.479   1.065  0.00  0.00    +0.047 A 
ATOM     30  C   UNL     1       2.008 -12.720   1.531  0.00  0.00    +0.124 A 
ATOM     31  C   UNL     1       2.092 -13.016   2.884  0.00  0.00    +0.093 A 
ATOM     32  C   UNL     1       2.589 -12.073   3.768  0.00  0.00    +0.145 A 
BRANCH  32  33
ATOM     33  O   UNL     1       2.678 -12.364   5.094  0.00  0.00    -0.493 OA
ATOM     34  C   UNL     1       2.246 -13.663   5.504  0.00  0.00    +0.277 C 
ENDBRANCH  32  33
BRANCH  30  35
ATOM     35  O   UNL     1       1.526 -13.648   0.662  0.00  0.00    -0.495 OA
ATOM     36  C   UNL     1       1.467 -13.275  -0.717  0.00  0.00    +0.277 C 
ENDBRANCH  30  35
ENDBRANCH  25  27
ENDBRANCH   6  23
BRANCH   4  37
ATOM     37  N   UNL     1       5.637  -7.429   8.183  0.00  0.00    +0.056 N 
ATOM     38  O   UNL     1       5.987  -6.608   8.999  0.00  0.00    -0.126 OA
ATOM     39  O   UNL     1       5.944  -8.590   8.323  0.00  0.00    -0.126 OA
ENDBRANCH   4  37
TORSDOF 9
