REMARK  Name = ZINC37649974
REMARK  8 active torsions:
REMARK  status: ('A' for Active; 'I' for Inactive)
REMARK    1  A    between atoms: C_1  and  C_2
REMARK    2  A    between atoms: C_2  and  C_3
REMARK    3  A    between atoms: C_3  and  C_4
REMARK    4  A    between atoms: C_7  and  N_10
REMARK    5  A    between atoms: N_10  and  C_11
REMARK    6  A    between atoms: C_11  and  C_12
REMARK    7  A    between atoms: C_16  and  S_18
REMARK    8  A    between atoms: S_18  and  N_21
REMARK                            x       y       z     vdW  Elec       q    Type
REMARK                         _______ _______ _______ _____ _____    ______ ____
ROOT
ATOM      1  C   UNL     1       0.360  -4.713   4.923  0.00  0.00    -0.046 C 
ENDROOT
BRANCH   1   2
ATOM      2  C   UNL     1      -0.234  -4.226   6.219  0.00  0.00    -0.063 A 
ATOM      3  C   UNL     1       0.237  -3.064   6.803  0.00  0.00    +0.002 A 
ATOM      4  C   UNL     1      -0.309  -2.617   7.991  0.00  0.00    +0.002 A 
ATOM      5  C   UNL     1      -1.326  -3.332   8.597  0.00  0.00    +0.028 A 
ATOM      6  C   UNL     1      -1.798  -4.492   8.013  0.00  0.00    +0.105 A 
ATOM      7  C   UNL     1      -1.255  -4.937   6.822  0.00  0.00    +0.030 A 
BRANCH   6   8
ATOM      8  S   UNL     1      -3.094  -5.403   8.785  0.00  0.00    +0.056 S 
ATOM      9  O   UNL     1      -2.982  -6.742   8.321  0.00  0.00    -0.153 OA
ATOM     10  O   UNL     1      -3.058  -5.069  10.166  0.00  0.00    -0.153 OA
BRANCH   8  11
ATOM     11  N   UNL     1      -4.525  -4.816   8.193  0.00  0.00    -0.204 NA
ATOM     12  H   UNL     1      -4.521  -4.097   7.542  0.00  0.00    +0.144 HD
ATOM     13  H   UNL     1      -5.366  -5.190   8.498  0.00  0.00    +0.144 HD
ENDBRANCH   8  11
ENDBRANCH   6   8
ENDBRANCH   1   2
BRANCH   1  14
ATOM     14  N   UNL     1      -0.380  -4.131   3.796  0.00  0.00    +0.384 N 
ATOM     15  H   UNL     1      -0.318  -3.125   3.837  0.00  0.00    -0.085 HD
ATOM     16  H   UNL     1      -1.347  -4.411   3.848  0.00  0.00    -0.085 HD
BRANCH  14  20
ATOM     17  C   UNL     1       0.763  -2.041   1.233  0.00  0.00    -0.011 C 
ATOM     18  C   UNL     1      -0.666  -2.571   1.370  0.00  0.00    +0.002 C 
ATOM     19  C   UNL     1      -0.645  -4.101   1.361  0.00  0.00    -0.015 C 
ATOM     20  C   UNL     1       0.200  -4.606   2.532  0.00  0.00    -0.071 C 
ATOM     21  C   UNL     1       1.629  -4.076   2.396  0.00  0.00    -0.015 C 
ATOM     22  C   UNL     1       1.608  -2.546   2.404  0.00  0.00    +0.002 C 
BRANCH  17  23
ATOM     23  C   UNL     1       0.742  -0.511   1.242  0.00  0.00    +0.003 C 
BRANCH  23  25
ATOM     24  C   UNL     1      -0.019   1.526   0.010  0.00  0.00    +0.004 C 
ATOM     25  C   UNL     1       0.002  -0.004   0.002  0.00  0.00    -0.003 C 
ENDBRANCH  23  25
ENDBRANCH  17  23
ENDBRANCH  14  20
ENDBRANCH   1  14
TORSDOF 7
