REMARK  Name = ZINC21887185
REMARK  9 active torsions:
REMARK  status: ('A' for Active; 'I' for Inactive)
REMARK    1  A    between atoms: C_1  and  N_2
REMARK    2  A    between atoms: C_10  and  C_12
REMARK    3  A    between atoms: C_12  and  C_14
REMARK    4  A    between atoms: C_12  and  N_29
REMARK    5  A    between atoms: C_14  and  N_15
REMARK    6  A    between atoms: C_16  and  C_18
REMARK    7  A    between atoms: N_20  and  C_21
REMARK    8  A    between atoms: C_21  and  C_22
REMARK    9  A    between atoms: C_22  and  N_23
REMARK                            x       y       z     vdW  Elec       q    Type
REMARK                         _______ _______ _______ _____ _____    ______ ____
ROOT
ATOM      1  C   UNL     1      -1.981   1.035   0.783  0.00  0.00    -0.020 C 
ENDROOT
BRANCH   1  11
ATOM      2  C   UNL     1       3.829  -1.437   0.996  0.00  0.00    +0.129 C 
ATOM      3  N   UNL     1       2.750  -2.046   0.207  0.00  0.00    -0.333 N 
ATOM      4  C   UNL     1       2.610  -3.470   0.520  0.00  0.00    +0.105 C 
ATOM      5  C   UNL     1       1.455  -4.043  -0.310  0.00  0.00    +0.024 C 
ATOM      6  C   UNL     1       0.152  -3.430   0.208  0.00  0.00    +0.038 C 
ATOM      7  C   UNL     1       0.316  -1.938   0.354  0.00  0.00    -0.026 A 
ATOM      8  C   UNL     1       1.561  -1.333   0.354  0.00  0.00    +0.033 A 
ATOM      9  C   UNL     1       1.649   0.051   0.503  0.00  0.00    +0.023 A 
ATOM     10  C   UNL     1       0.509   0.813   0.643  0.00  0.00    +0.004 A 
ATOM     11  C   UNL     1      -0.733   0.204   0.638  0.00  0.00    -0.059 A 
ATOM     12  C   UNL     1      -0.826  -1.166   0.495  0.00  0.00    +0.007 A 
ENDBRANCH   1  11
BRANCH   1  13
ATOM     13  N   UNL     1      -1.966   2.119  -0.208  0.00  0.00    +0.385 N 
ATOM     14  C   UNL     1      -1.308   1.689  -1.449  0.00  0.00    -0.078 C 
ATOM     15  C   UNL     1      -1.438   2.788  -2.505  0.00  0.00    -0.019 C 
ATOM     16  C   UNL     1      -0.789   4.072  -1.981  0.00  0.00    -0.004 C 
ATOM     17  C   UNL     1      -1.460   4.473  -0.663  0.00  0.00    -0.019 C 
ATOM     18  C   UNL     1      -1.329   3.324   0.339  0.00  0.00    -0.078 C 
ATOM     19  H   UNL     1      -3.008   2.372  -0.452  0.00  0.00    -0.081 HD
ENDBRANCH   1  13
BRANCH   1  20
ATOM     20  C   UNL     1      -2.036   1.632   2.191  0.00  0.00    +0.094 C 
BRANCH  20  21
ATOM     21  N   UNL     1      -3.240   2.457   2.325  0.00  0.00    -0.309 N 
ATOM     22  C   UNL     1      -3.565   2.985   3.521  0.00  0.00    +0.299 C 
ATOM     23  O   UNL     1      -2.861   2.777   4.487  0.00  0.00    -0.265 OA
ATOM     24  H   UNL     1      -3.877   2.646   1.448  0.00  0.00    +0.149 HD
BRANCH  22  25
ATOM     25  C   UNL     1      -4.792   3.827   3.658  0.00  0.00    +0.299 C 
ATOM     26  O   UNL     1      -5.496   4.035   2.691  0.00  0.00    -0.265 OA
ATOM     27  N   UNL     1      -5.117   4.355   4.854  0.00  0.00    -0.306 N 
ATOM     28  H   UNL     1      -4.479   4.167   5.730  0.00  0.00    +0.149 HD
BRANCH  27  29
ATOM     29  C   UNL     1      -6.321   5.180   4.988  0.00  0.00    +0.120 C 
BRANCH  29  30
ATOM     30  C   UNL     1      -6.457   5.651   6.437  0.00  0.00    +0.103 C 
BRANCH  30  31
ATOM     31  N   UNL     1      -7.664   6.478   6.571  0.00  0.00    -0.297 NA
ATOM     32  C   UNL     1      -7.530   7.732   5.815  0.00  0.00    +0.112 C 
ATOM     33  C   UNL     1      -8.829   8.534   5.933  0.00  0.00    +0.175 C 
ATOM     34  O   UNL     1      -9.117   8.764   7.314  0.00  0.00    -0.377 OA
ATOM     35  C   UNL     1      -9.254   7.565   8.082  0.00  0.00    +0.175 C 
ATOM     36  C   UNL     1      -7.960   6.753   7.985  0.00  0.00    +0.112 C 
ENDBRANCH  30  31
ENDBRANCH  29  30
ENDBRANCH  27  29
ENDBRANCH  22  25
ENDBRANCH  20  21
ENDBRANCH   1  20
TORSDOF 8
