REMARK  Name = ZINC47999917
REMARK  9 active torsions:
REMARK  status: ('A' for Active; 'I' for Inactive)
REMARK    1  A    between atoms: C_1  and  C_2
REMARK    2  A    between atoms: N_8  and  C_9
REMARK    3  A    between atoms: C_9  and  C_10
REMARK    4  A    between atoms: C_10  and  C_11
REMARK    5  A    between atoms: C_11  and  C_12
REMARK    6  A    between atoms: C_12  and  N_13
REMARK    7  A    between atoms: C_14  and  C_16
REMARK    8  A    between atoms: N_18  and  C_19
REMARK    9  A    between atoms: C_20  and  C_24
REMARK                            x       y       z     vdW  Elec       q    Type
REMARK                         _______ _______ _______ _____ _____    ______ ____
ROOT
ATOM      1  N   UNL     1       0.376   0.344   7.323  0.00  0.00    -0.308 N 
ATOM      2  C   UNL     1       0.917   0.114   8.536  0.00  0.00    +0.299 C 
ATOM      3  O   UNL     1       1.935  -0.538   8.632  0.00  0.00    -0.265 OA
ATOM      4  H   UNL     1      -0.439   0.866   7.246  0.00  0.00    +0.149 HD
ENDROOT
BRANCH   2   5
ATOM      5  C   UNL     1       0.263   0.663   9.761  0.00  0.00    +0.304 C 
ATOM      6  O   UNL     1      -0.756   1.315   9.665  0.00  0.00    -0.265 OA
ATOM      7  N   UNL     1       0.804   0.433  10.974  0.00  0.00    -0.272 N 
ATOM      8  H   UNL     1       1.618  -0.089  11.051  0.00  0.00    +0.156 HD
BRANCH   7   9
ATOM      9  C   UNL     1       0.198   0.941  12.110  0.00  0.00    +0.084 A 
ATOM     10  C   UNL     1       0.611   0.811  13.428  0.00  0.00    +0.065 A 
ATOM     11  C   UNL     1      -0.214   1.447  14.429  0.00  0.00    +0.022 A 
ATOM     12  C   UNL     1      -1.299   2.098  13.969  0.00  0.00    +0.048 A 
ATOM     13  S   UNL     1      -1.202   1.861  12.208  0.00  0.00    -0.081 S 
BRANCH  10  14
ATOM     14  C   UNL     1       1.823   0.067  13.787  0.00  0.00    +0.244 C 
ATOM     15  O   UNL     1       2.495  -0.456  12.917  0.00  0.00    -0.270 OA
ATOM     16  N   UNL     1       2.193  -0.037  15.079  0.00  0.00    -0.325 N 
ATOM     17  H   UNL     1       1.657   0.381  15.771  0.00  0.00    +0.145 HD
ATOM     18  H   UNL     1       2.994  -0.529  15.316  0.00  0.00    +0.145 HD
ENDBRANCH  10  14
ENDBRANCH   7   9
ENDBRANCH   2   5
BRANCH   1  19
ATOM     19  C   UNL     1       1.017  -0.194   6.121  0.00  0.00    +0.104 C 
BRANCH  19  20
ATOM     20  C   UNL     1       0.207   0.209   4.887  0.00  0.00    +0.017 C 
BRANCH  20  21
ATOM     21  C   UNL     1       0.877  -0.353   3.631  0.00  0.00    -0.017 C 
BRANCH  21  22
ATOM     22  C   UNL     1       0.067   0.050   2.397  0.00  0.00    -0.078 C 
BRANCH  22  29
ATOM     23  C   UNL     1      -0.019   1.526   0.010  0.00  0.00    -0.013 C 
ATOM     24  C   UNL     1       0.002  -0.004   0.002  0.00  0.00    -0.072 C 
ATOM     25  C   UNL     1       0.717  -0.497  -1.258  0.00  0.00    -0.016 C 
ATOM     26  C   UNL     1       0.735  -2.028  -1.262  0.00  0.00    -0.003 C 
ATOM     27  C   UNL     1       1.410  -2.524   0.020  0.00  0.00    -0.019 C 
ATOM     28  C   UNL     1       0.669  -1.956   1.232  0.00  0.00    -0.078 C 
ATOM     29  N   UNL     1       0.711  -0.490   1.192  0.00  0.00    +0.381 N 
ATOM     30  H   UNL     1       1.671  -0.182   1.159  0.00  0.00    -0.081 HD
ENDBRANCH  22  29
ENDBRANCH  21  22
ENDBRANCH  20  21
ENDBRANCH  19  20
ENDBRANCH   1  19
TORSDOF 8
