REMARK  Name = ZINC39685844
REMARK  13 active torsions:
REMARK  status: ('A' for Active; 'I' for Inactive)
REMARK    1  A    between atoms: C_1  and  C_2
REMARK    2  A    between atoms: C_2  and  C_3
REMARK    3  A    between atoms: C_2  and  C_4
REMARK    4  A    between atoms: C_4  and  C_6
REMARK    5  A    between atoms: C_4  and  N_13
REMARK    6  A    between atoms: N_8  and  C_9
REMARK    7  A    between atoms: C_9  and  C_10
REMARK    8  A    between atoms: C_9  and  C_11
REMARK    9  A    between atoms: C_9  and  C_12
REMARK   10  A    between atoms: C_14  and  C_16
REMARK   11  A    between atoms: C_27  and  C_29
REMARK   12  A    between atoms: C_33  and  O_34
REMARK   13  A    between atoms: O_34  and  C_35
REMARK                            x       y       z     vdW  Elec       q    Type
REMARK                         _______ _______ _______ _____ _____    ______ ____
ROOT
ATOM      1  C   UNL     1      -1.008  -4.264   1.430  0.00  0.00    +0.100 C 
ATOM      2  C   UNL     1      -2.172  -5.047   0.782  0.00  0.00    +0.121 C 
ATOM      3  N   UNL     1      -2.324  -6.258   1.623  0.00  0.00    -0.296 N 
ATOM      4  C   UNL     1      -2.118  -5.771   3.009  0.00  0.00    +0.115 C 
ATOM      5  C   UNL     1      -0.977  -4.742   2.892  0.00  0.00    -0.004 C 
ATOM      6  C   UNL     1      -1.225  -3.570   3.836  0.00  0.00    -0.010 C 
ATOM      7  C   UNL     1      -1.131  -4.058   5.284  0.00  0.00    -0.082 C 
ATOM      8  N   UNL     1       0.199  -4.632   5.524  0.00  0.00    +0.379 N 
ATOM      9  C   UNL     1       0.393  -5.816   4.677  0.00  0.00    -0.082 C 
ATOM     10  C   UNL     1       0.363  -5.402   3.203  0.00  0.00    -0.010 C 
ATOM     11  C   UNL     1      -2.589  -7.516   1.220  0.00  0.00    +0.251 C 
ATOM     12  O   UNL     1      -2.628  -7.779   0.033  0.00  0.00    -0.270 OA
ATOM     13  H   UNL     1       0.904  -3.945   5.306  0.00  0.00    -0.086 HD
ATOM     14  H   UNL     1       0.280  -4.898   6.494  0.00  0.00    -0.086 HD
ENDROOT
BRANCH  11  15
ATOM     15  C   UNL     1      -2.830  -8.572   2.215  0.00  0.00    +0.087 A 
ATOM     16  C   UNL     1      -3.416  -8.296   3.431  0.00  0.00    +0.063 A 
ATOM     17  S   UNL     1      -3.481  -9.783   4.206  0.00  0.00    -0.081 S 
ATOM     18  C   UNL     1      -2.741 -10.817   2.961  0.00  0.00    +0.120 A 
ATOM     19  C   UNL     1      -2.470  -9.948   1.961  0.00  0.00    +0.158 A 
ATOM     20 CL   UNL     1      -2.446 -12.527   3.014  0.00  0.00    -0.072 Cl
BRANCH  19  21
ATOM     21  O   UNL     1      -1.890 -10.342   0.794  0.00  0.00    -0.492 OA
ATOM     22  C   UNL     1      -0.463 -10.321   0.738  0.00  0.00    +0.277 C 
ENDBRANCH  19  21
ENDBRANCH  11  15
BRANCH   1  24
ATOM     23  N   UNL     1      -2.473  -2.296   1.746  0.00  0.00    -0.303 N 
ATOM     24  C   UNL     1      -1.274  -2.782   1.368  0.00  0.00    +0.219 C 
ATOM     25  O   UNL     1      -0.409  -2.027   0.978  0.00  0.00    -0.275 OA
ATOM     26  H   UNL     1      -3.140  -2.890   2.124  0.00  0.00    +0.149 HD
BRANCH  23  27
ATOM     27  C   UNL     1      -2.769  -0.870   1.585  0.00  0.00    +0.161 C 
BRANCH  27  28
ATOM     28  C   UNL     1      -3.826  -0.462   2.578  0.00  0.00    +0.234 C 
ATOM     29  O   UNL     1      -4.415  -1.306   3.218  0.00  0.00    -0.274 OA
ATOM     30  N   UNL     1      -4.117   0.843   2.754  0.00  0.00    -0.309 N 
ATOM     31  H   UNL     1      -3.598   1.522   2.295  0.00  0.00    +0.149 HD
BRANCH  30  32
ATOM     32  C   UNL     1      -5.216   1.235   3.639  0.00  0.00    +0.026 C 
ATOM     33  C   UNL     1      -4.939   0.724   5.054  0.00  0.00    +0.031 C 
ATOM     34  C   UNL     1      -5.333   2.760   3.662  0.00  0.00    +0.031 C 
ATOM     35  C   UNL     1      -6.525   0.631   3.126  0.00  0.00    +0.031 C 
ENDBRANCH  30  32
ENDBRANCH  27  28
BRANCH  27  37
ATOM     36  C   UNL     1      -2.153  -0.891  -0.836  0.00  0.00    +0.009 C 
ATOM     37  C   UNL     1      -3.276  -0.612   0.165  0.00  0.00    +0.012 C 
ATOM     38  C   UNL     1      -4.462  -1.533  -0.129  0.00  0.00    +0.009 C 
ENDBRANCH  27  37
ENDBRANCH  23  27
ENDBRANCH   1  24
TORSDOF 7
