REMARK  Name = ZINC38001689
REMARK  7 active torsions:
REMARK  status: ('A' for Active; 'I' for Inactive)
REMARK    1  A    between atoms: C_1  and  C_2
REMARK    2  A    between atoms: C_2  and  C_4
REMARK    3  A    between atoms: C_2  and  N_10
REMARK    4  A    between atoms: N_10  and  C_11
REMARK    5  A    between atoms: C_11  and  C_12
REMARK    6  A    between atoms: C_15  and  S_18
REMARK    7  A    between atoms: S_18  and  N_21
REMARK                            x       y       z     vdW  Elec       q    Type
REMARK                         _______ _______ _______ _____ _____    ______ ____
ROOT
ATOM      1  C   UNL     1      -2.050  -0.126  -1.234  0.00  0.00    -0.046 C 
ENDROOT
BRANCH   1   2
ATOM      2  C   UNL     1      -3.464  -0.648  -1.224  0.00  0.00    -0.064 A 
ATOM      3  C   UNL     1      -3.741  -1.905  -1.728  0.00  0.00    +0.003 A 
ATOM      4  C   UNL     1      -5.038  -2.383  -1.719  0.00  0.00    +0.029 A 
ATOM      5  C   UNL     1      -6.058  -1.605  -1.204  0.00  0.00    +0.105 A 
ATOM      6  C   UNL     1      -5.780  -0.349  -0.698  0.00  0.00    +0.029 A 
ATOM      7  C   UNL     1      -4.483   0.128  -0.704  0.00  0.00    +0.003 A 
BRANCH   5   8
ATOM      8  S   UNL     1      -7.711  -2.214  -1.192  0.00  0.00    +0.056 S 
ATOM      9  O   UNL     1      -8.562  -1.077  -1.157  0.00  0.00    -0.153 OA
ATOM     10  O   UNL     1      -7.790  -3.193  -2.219  0.00  0.00    -0.153 OA
BRANCH   8  11
ATOM     11  N   UNL     1      -7.928  -3.014   0.242  0.00  0.00    -0.204 NA
ATOM     12  H   UNL     1      -7.201  -3.069   0.881  0.00  0.00    +0.144 HD
ATOM     13  H   UNL     1      -8.783  -3.426   0.442  0.00  0.00    +0.144 HD
ENDBRANCH   8  11
ENDBRANCH   5   8
ENDBRANCH   1   2
BRANCH   1  14
ATOM     14  N   UNL     1      -1.376  -0.512   0.012  0.00  0.00    +0.386 N 
ATOM     15  H   UNL     1      -1.363  -1.518   0.090  0.00  0.00    -0.085 HD
ATOM     16  H   UNL     1      -1.873  -0.121   0.799  0.00  0.00    -0.085 HD
BRANCH  14  18
ATOM     17  C   UNL     1      -0.019   1.526   0.010  0.00  0.00    -0.008 C 
ATOM     18  C   UNL     1       0.002  -0.004   0.002  0.00  0.00    -0.037 C 
BRANCH  18  19
ATOM     19  C   UNL     1       0.731  -0.503   1.223  0.00  0.00    -0.023 A 
ATOM     20  C   UNL     1       2.010  -0.938   1.335  0.00  0.00    +0.010 A 
ATOM     21  C   UNL     1       2.470  -1.355   2.570  0.00  0.00    +0.023 A 
ATOM     22  C   UNL     1       1.629  -1.315   3.633  0.00  0.00    +0.055 A 
ATOM     23  S   UNL     1       0.136  -0.668   2.898  0.00  0.00    -0.088 S 
ATOM     24 BR   UNL     1       1.954  -1.810   5.429  0.00  0.00    -0.043 Br
ENDBRANCH  18  19
ENDBRANCH  14  18
ENDBRANCH   1  14
TORSDOF 6
