REMARK  Name = ZINC59170671
REMARK  8 active torsions:
REMARK  status: ('A' for Active; 'I' for Inactive)
REMARK    1  A    between atoms: C_1  and  C_2
REMARK    2  A    between atoms: C_2  and  O_3
REMARK    3  A    between atoms: O_3  and  C_4
REMARK    4  A    between atoms: N_12  and  C_13
REMARK    5  A    between atoms: C_16  and  S_19
REMARK    6  A    between atoms: S_19  and  N_22
REMARK    7  A    between atoms: C_23  and  C_25
REMARK    8  A    between atoms: N_27  and  C_28
REMARK                            x       y       z     vdW  Elec       q    Type
REMARK                         _______ _______ _______ _____ _____    ______ ____
ROOT
ATOM      1  C   UNL     1      -1.637  -1.473  -0.013  0.00  0.00    +0.163 A 
ATOM      2  C   UNL     1      -0.595  -2.031   0.708  0.00  0.00    +0.049 A 
ATOM      3  C   UNL     1      -0.823  -3.089   1.574  0.00  0.00    +0.004 A 
ATOM      4  C   UNL     1      -2.091  -3.603   1.730  0.00  0.00    +0.012 A 
ATOM      5  C   UNL     1      -3.156  -3.053   1.007  0.00  0.00    +0.022 A 
ATOM      6  C   UNL     1      -2.927  -1.973   0.135  0.00  0.00    +0.179 A 
ATOM      7  O   UNL     1      -3.961  -1.431  -0.555  0.00  0.00    -0.435 OA
ATOM      8  C   UNL     1      -5.013  -2.244  -0.829  0.00  0.00    +0.212 A 
ATOM      9  N   UNL     1      -5.612  -2.205  -1.999  0.00  0.00    -0.325 N 
ATOM     10  C   UNL     1      -5.462  -3.174   0.226  0.00  0.00    +0.098 A 
ATOM     11  C   UNL     1      -4.513  -3.586   1.149  0.00  0.00    +0.030 A 
ATOM     12  H   UNL     1      -6.290  -2.863  -2.219  0.00  0.00    +0.169 HD
ENDROOT
BRANCH   9  13
ATOM     13  C   UNL     1      -5.281  -1.236  -2.906  0.00  0.00    +0.042 A 
ATOM     14  C   UNL     1      -5.138   0.091  -2.493  0.00  0.00    +0.027 A 
ATOM     15  C   UNL     1      -4.803   1.063  -3.413  0.00  0.00    +0.030 A 
ATOM     16  C   UNL     1      -4.609   0.727  -4.741  0.00  0.00    +0.105 A 
ATOM     17  C   UNL     1      -4.749  -0.586  -5.157  0.00  0.00    +0.030 A 
ATOM     18  C   UNL     1      -5.078  -1.569  -4.247  0.00  0.00    +0.027 A 
BRANCH  16  19
ATOM     19  S   UNL     1      -4.183   1.975  -5.909  0.00  0.00    +0.056 S 
ATOM     20  O   UNL     1      -4.590   1.496  -7.183  0.00  0.00    -0.153 OA
ATOM     21  O   UNL     1      -4.647   3.207  -5.374  0.00  0.00    -0.153 OA
BRANCH  19  22
ATOM     22  N   UNL     1      -2.530   2.068  -5.945  0.00  0.00    -0.204 NA
ATOM     23  H   UNL     1      -2.076   2.333  -6.760  0.00  0.00    +0.144 HD
ATOM     24  H   UNL     1      -2.015   1.856  -5.151  0.00  0.00    +0.144 HD
ENDBRANCH  19  22
ENDBRANCH  16  19
ENDBRANCH   9  13
BRANCH  10  25
ATOM     25  C   UNL     1      -6.854  -3.652   0.287  0.00  0.00    +0.253 C 
ATOM     26  O   UNL     1      -7.165  -4.518   1.082  0.00  0.00    -0.270 OA
ATOM     27  N   UNL     1      -7.782  -3.129  -0.537  0.00  0.00    -0.281 N 
ATOM     28  H   UNL     1      -7.524  -2.477  -1.208  0.00  0.00    +0.155 HD
BRANCH  27  29
ATOM     29  C   UNL     1      -9.120  -3.526  -0.427  0.00  0.00    +0.034 A 
ATOM     30  C   UNL     1      -9.430  -4.836  -0.086  0.00  0.00    +0.026 A 
ATOM     31  C   UNL     1     -10.750  -5.226   0.023  0.00  0.00    +0.040 A 
ATOM     32  C   UNL     1     -11.764  -4.312  -0.207  0.00  0.00    +0.124 A 
ATOM     33  C   UNL     1     -11.458  -3.005  -0.547  0.00  0.00    +0.040 A 
ATOM     34  C   UNL     1     -10.139  -2.610  -0.651  0.00  0.00    +0.026 A 
ATOM     35  F   UNL     1     -13.056  -4.696  -0.100  0.00  0.00    -0.205 F 
ENDBRANCH  27  29
ENDBRANCH  10  25
BRANCH   1  36
ATOM     36  O   UNL     1      -1.401  -0.434  -0.859  0.00  0.00    -0.489 OA
BRANCH  36  38
ATOM     37  C   UNL     1       0.015   1.190  -1.951  0.00  0.00    +0.048 C 
ATOM     38  C   UNL     1      -0.053   0.027  -0.960  0.00  0.00    +0.226 C 
ENDBRANCH  36  38
ENDBRANCH   1  36
TORSDOF 7
