REMARK  Name = ZINC14141441
REMARK  6 active torsions:
REMARK  status: ('A' for Active; 'I' for Inactive)
REMARK    1  A    between atoms: N_7  and  C_8
REMARK    2  A    between atoms: C_8  and  C_9
REMARK    3  A    between atoms: C_9  and  N_10
REMARK    4  A    between atoms: C_13  and  C_27
REMARK    5  A    between atoms: C_18  and  C_20
REMARK    6  A    between atoms: C_20  and  N_21
REMARK                            x       y       z     vdW  Elec       q    Type
REMARK                         _______ _______ _______ _____ _____    ______ ____
ROOT
ATOM      1  N   UNL     1      -0.741   1.537  -1.178  0.00  0.00    -0.327 N 
ATOM      2  C   UNL     1      -0.275   1.219  -2.440  0.00  0.00    +0.131 A 
ATOM      3  C   UNL     1      -1.002   1.611  -3.595  0.00  0.00    +0.056 A 
ATOM      4  C   UNL     1      -2.257   2.349  -3.699  0.00  0.00    +0.008 A 
ATOM      5  C   UNL     1      -2.762   2.607  -4.930  0.00  0.00    +0.057 A 
ATOM      6  S   UNL     1      -1.571   1.866  -6.030  0.00  0.00    -0.076 S 
ATOM      7  C   UNL     1      -0.432   1.233  -4.828  0.00  0.00    +0.114 A 
ATOM      8  N   UNL     1       0.702   0.560  -4.883  0.00  0.00    -0.223 NA
ATOM      9  C   UNL     1       1.333   0.224  -3.776  0.00  0.00    +0.146 A 
ATOM     10  N   UNL     1       0.859   0.551  -2.587  0.00  0.00    -0.216 NA
ATOM     11  H   UNL     1      -1.730   2.005  -1.058  0.00  0.00    +0.148 HD
ENDROOT
BRANCH   4  12
ATOM     12  C   UNL     1      -2.964   2.807  -2.484  0.00  0.00    +0.021 A 
ATOM     13  C   UNL     1      -4.221   2.485  -2.044  0.00  0.00    +0.016 A 
ATOM     14  C   UNL     1      -4.673   3.043  -0.867  0.00  0.00    +0.008 A 
ATOM     15  C   UNL     1      -3.863   3.890  -0.183  0.00  0.00    +0.046 A 
ATOM     16  S   UNL     1      -2.400   3.917  -1.205  0.00  0.00    -0.097 S 
ENDBRANCH   4  12
BRANCH   1  17
ATOM     17  C   UNL     1       0.081   1.250   0.001  0.00  0.00    +0.121 C 
BRANCH  17  18
ATOM     18  C   UNL     1      -0.663   1.696   1.262  0.00  0.00    +0.121 C 
BRANCH  18  25
ATOM     19  C   UNL     1      -2.015   2.633   5.121  0.00  0.00    +0.005 A 
ATOM     20  C   UNL     1      -1.201   2.342   6.207  0.00  0.00    +0.018 A 
ATOM     21  C   UNL     1       0.029   1.755   5.992  0.00  0.00    +0.084 A 
ATOM     22  N   UNL     1       0.435   1.462   4.770  0.00  0.00    -0.350 N 
ATOM     23  C   UNL     1      -0.310   1.729   3.709  0.00  0.00    +0.096 A 
ATOM     24  C   UNL     1      -1.561   2.321   3.853  0.00  0.00    +0.041 A 
ATOM     25  N   UNL     1       0.159   1.409   2.440  0.00  0.00    -0.329 N 
ATOM     26  H   UNL     1       1.147   0.942   2.321  0.00  0.00    +0.147 HD
ATOM     27  H   UNL     1       1.414   0.986   4.615  0.00  0.00    +0.166 HD
ENDBRANCH  18  25
ENDBRANCH  17  18
ENDBRANCH   1  17
BRANCH   9  28
ATOM     28  C   UNL     1       2.627  -0.543  -3.868  0.00  0.00    +0.160 C 
BRANCH  28  29
ATOM     29  N   UNL     1       3.751   0.399  -3.938  0.00  0.00    -0.291 NA
ATOM     30  C   UNL     1       3.718   1.167  -5.191  0.00  0.00    +0.113 C 
ATOM     31  C   UNL     1       4.870   2.176  -5.195  0.00  0.00    +0.175 C 
ATOM     32  O   UNL     1       6.107   1.480  -5.019  0.00  0.00    -0.377 OA
ATOM     33  C   UNL     1       6.174   0.722  -3.808  0.00  0.00    +0.175 C 
ATOM     34  C   UNL     1       5.035  -0.301  -3.790  0.00  0.00    +0.113 C 
ENDBRANCH  28  29
ENDBRANCH   9  28
TORSDOF 6
