REMARK  Name = ZINC14026853
REMARK  9 active torsions:
REMARK  status: ('A' for Active; 'I' for Inactive)
REMARK    1  A    between atoms: C_1  and  C_2
REMARK    2  A    between atoms: C_7  and  C_8
REMARK    3  A    between atoms: N_10  and  C_11
REMARK    4  A    between atoms: C_14  and  C_17
REMARK    5  A    between atoms: N_19  and  N_20
REMARK    6  A    between atoms: C_21  and  C_23
REMARK    7  A    between atoms: C_23  and  C_25
REMARK    8  A    between atoms: C_23  and  O_26
REMARK    9  A    between atoms: O_26  and  C_27
REMARK                            x       y       z     vdW  Elec       q    Type
REMARK                         _______ _______ _______ _____ _____    ______ ____
ROOT
ATOM      1  C   UNL     1       0.414   2.265   8.436  0.00  0.00    +0.260 C 
ATOM      2  O   UNL     1       0.515   1.638   9.473  0.00  0.00    -0.269 OA
ATOM      3  N   UNL     1       0.309   3.608   8.468  0.00  0.00    -0.230 N 
ATOM      4  H   UNL     1       0.228   4.108   7.640  0.00  0.00    +0.173 HD
ENDROOT
BRANCH   1   8
ATOM      5  C   UNL     1       0.389   0.219   4.714  0.00  0.00    +0.034 A 
ATOM      6  C   UNL     1       0.285   1.607   4.745  0.00  0.00    +0.024 A 
ATOM      7  C   UNL     1       0.288   2.272   5.950  0.00  0.00    +0.015 A 
ATOM      8  C   UNL     1       0.405   1.554   7.143  0.00  0.00    +0.038 A 
ATOM      9  C   UNL     1       0.514   0.161   7.108  0.00  0.00    +0.015 A 
ATOM     10  C   UNL     1       0.506  -0.499   5.900  0.00  0.00    +0.024 A 
BRANCH   5  13
ATOM     11  C   UNL     1      -0.386   0.001   2.481  0.00  0.00    +0.249 C 
ATOM     12  O   UNL     1      -1.000   1.043   2.602  0.00  0.00    -0.270 OA
ATOM     13  N   UNL     1       0.380  -0.452   3.493  0.00  0.00    -0.281 N 
ATOM     14  H   UNL     1       0.926  -1.244   3.372  0.00  0.00    +0.155 HD
BRANCH  11  21
ATOM     15  C   UNL     1      -1.895   1.071   0.256  0.00  0.00    +0.044 C 
ATOM     16  C   UNL     1      -1.204  -0.264   0.143  0.00  0.00    -0.038 A 
ATOM     17  C   UNL     1      -1.292  -0.991  -1.026  0.00  0.00    +0.004 A 
ATOM     18  C   UNL     1      -0.654  -2.214  -1.133  0.00  0.00    +0.000 A 
ATOM     19  C   UNL     1       0.066  -2.722  -0.066  0.00  0.00    +0.001 A 
ATOM     20  C   UNL     1       0.157  -2.007   1.110  0.00  0.00    +0.013 A 
ATOM     21  C   UNL     1      -0.479  -0.770   1.223  0.00  0.00    +0.040 A 
ENDBRANCH  11  21
ENDBRANCH   5  13
ENDBRANCH   1   8
BRANCH   3  22
ATOM     22  N   UNL     1       0.317   4.282   9.696  0.00  0.00    -0.231 N 
ATOM     23  C   UNL     1       0.211   5.626   9.727  0.00  0.00    +0.270 C 
ATOM     24  O   UNL     1       0.110   6.251   8.693  0.00  0.00    -0.270 OA
ATOM     25  H   UNL     1       0.398   3.783  10.523  0.00  0.00    +0.173 HD
BRANCH  23  26
ATOM     26  C   UNL     1       0.220   6.351  11.048  0.00  0.00    +0.257 C 
ATOM     27  C   UNL     1       1.581   6.168  11.722  0.00  0.00    +0.062 C 
BRANCH  26  28
ATOM     28  O   UNL     1      -0.020   7.743  10.828  0.00  0.00    -0.478 OA
BRANCH  28  29
ATOM     29  C   UNL     1      -0.554   8.448  11.861  0.00  0.00    +0.140 A 
ATOM     30  C   UNL     1      -0.735   7.842  13.095  0.00  0.00    +0.047 A 
ATOM     31  C   UNL     1      -1.279   8.560  14.143  0.00  0.00    +0.004 A 
ATOM     32  C   UNL     1      -1.642   9.882  13.962  0.00  0.00    +0.002 A 
ATOM     33  C   UNL     1      -1.463  10.489  12.733  0.00  0.00    +0.023 A 
ATOM     34  C   UNL     1      -0.914   9.776  11.683  0.00  0.00    +0.083 A 
ATOM     35 CL   UNL     1      -0.682  10.541  10.141  0.00  0.00    -0.080 Cl
ENDBRANCH  28  29
ENDBRANCH  26  28
ENDBRANCH  23  26
ENDBRANCH   3  22
TORSDOF 7
