REMARK  Name = ZINC63732004
REMARK  7 active torsions:
REMARK  status: ('A' for Active; 'I' for Inactive)
REMARK    1  A    between atoms: C_6  and  C_11
REMARK    2  A    between atoms: C_11  and  C_12
REMARK    3  A    between atoms: C_12  and  C_14
REMARK    4  A    between atoms: C_12  and  N_24
REMARK    5  A    between atoms: N_16  and  C_17
REMARK    6  A    between atoms: N_24  and  S_25
REMARK    7  A    between atoms: S_25  and  C_28
REMARK                            x       y       z     vdW  Elec       q    Type
REMARK                         _______ _______ _______ _____ _____    ______ ____
ROOT
ATOM      1  C   UNL     1       5.057  -2.867  -1.328  0.00  0.00    +0.165 C 
ENDROOT
BRANCH   1   2
ATOM      2  C   UNL     1       5.631  -3.229  -2.673  0.00  0.00    +0.236 C 
ATOM      3  O   UNL     1       6.503  -4.068  -2.754  0.00  0.00    -0.274 OA
ATOM      4  N   UNL     1       5.174  -2.622  -3.786  0.00  0.00    -0.284 N 
ATOM      5  H   UNL     1       4.431  -2.001  -3.730  0.00  0.00    +0.155 HD
BRANCH   4   6
ATOM      6  C   UNL     1       5.773  -2.887  -5.024  0.00  0.00    +0.034 A 
ATOM      7  C   UNL     1       5.896  -1.876  -5.967  0.00  0.00    +0.025 A 
ATOM      8  C   UNL     1       6.487  -2.140  -7.187  0.00  0.00    +0.022 A 
ATOM      9  C   UNL     1       6.956  -3.411  -7.470  0.00  0.00    +0.041 A 
ATOM     10  C   UNL     1       6.835  -4.420  -6.531  0.00  0.00    +0.022 A 
ATOM     11  C   UNL     1       6.250  -4.160  -5.307  0.00  0.00    +0.025 A 
ATOM     12 CL   UNL     1       7.698  -3.740  -9.004  0.00  0.00    -0.084 Cl
ENDBRANCH   4   6
ENDBRANCH   1   2
BRANCH   1  13
ATOM     13  N   UNL     1       5.714  -3.660  -0.286  0.00  0.00    -0.178 NA
ATOM     14  H   UNL     1       5.385  -4.546  -0.071  0.00  0.00    +0.149 HD
BRANCH  13  15
ATOM     15  S   UNL     1       7.021  -3.043   0.523  0.00  0.00    +0.059 S 
ATOM     16  O   UNL     1       7.405  -4.022   1.480  0.00  0.00    -0.153 OA
ATOM     17  O   UNL     1       7.916  -2.551  -0.465  0.00  0.00    -0.153 OA
BRANCH  15  18
ATOM     18  C   UNL     1       6.457  -1.644   1.433  0.00  0.00    +0.106 A 
ATOM     19  C   UNL     1       6.422  -0.399   0.833  0.00  0.00    +0.030 A 
ATOM     20  C   UNL     1       5.981   0.701   1.543  0.00  0.00    +0.025 A 
ATOM     21  C   UNL     1       5.570   0.553   2.861  0.00  0.00    +0.037 A 
ATOM     22  C   UNL     1       5.606  -0.698   3.461  0.00  0.00    -0.024 A 
ATOM     23  C   UNL     1       6.044  -1.794   2.744  0.00  0.00    +0.034 A 
ATOM     24  C   UNL     1       5.160  -0.857   4.891  0.00  0.00    +0.046 C 
ATOM     25  C   UNL     1       5.521   0.400   5.682  0.00  0.00    +0.101 C 
ATOM     26  C   UNL     1       5.075   1.625   4.930  0.00  0.00    +0.218 C 
ATOM     27  O   UNL     1       4.670   2.590   5.543  0.00  0.00    -0.275 OA
ATOM     28  N   UNL     1       5.122   1.662   3.586  0.00  0.00    -0.285 N 
ATOM     29  H   UNL     1       4.842   2.463   3.116  0.00  0.00    +0.155 HD
ENDBRANCH  15  18
ENDBRANCH  13  15
ENDBRANCH   1  13
BRANCH   1  30
ATOM     30  C   UNL     1       3.555  -3.158  -1.319  0.00  0.00    +0.058 C 
BRANCH  30  36
ATOM     31  C   UNL     1      -0.931  -0.223   0.476  0.00  0.00    +0.001 A 
ATOM     32  C   UNL     1       0.029   0.796   0.521  0.00  0.00    +0.002 A 
ATOM     33  C   UNL     1       1.354   0.555   0.425  0.00  0.00    +0.026 A 
ATOM     34  C   UNL     1       1.833  -0.775   0.270  0.00  0.00    +0.043 A 
ATOM     35  N   UNL     1       3.046  -1.258   0.155  0.00  0.00    -0.378 N 
ATOM     36  C   UNL     1       2.958  -2.716   0.019  0.00  0.00    +0.105 C 
ATOM     37  C   UNL     1       1.483  -3.049   0.069  0.00  0.00    +0.007 C 
ATOM     38  C   UNL     1       0.838  -1.870   0.219  0.00  0.00    -0.004 A 
ATOM     39  C   UNL     1      -0.584  -1.522   0.332  0.00  0.00    +0.010 A 
ATOM     40  H   UNL     1       3.865  -0.738   0.160  0.00  0.00    +0.160 HD
ENDBRANCH  30  36
ENDBRANCH   1  30
TORSDOF 7
