REMARK  Name = ZINC62892440
REMARK  7 active torsions:
REMARK  status: ('A' for Active; 'I' for Inactive)
REMARK    1  A    between atoms: C_1  and  C_2
REMARK    2  A    between atoms: C_2  and  C_3
REMARK    3  A    between atoms: C_3  and  C_8
REMARK    4  A    between atoms: N_10  and  C_11
REMARK    5  A    between atoms: C_16  and  O_17
REMARK    6  A    between atoms: O_17  and  C_18
REMARK    7  A    between atoms: C_18  and  C_19
REMARK                            x       y       z     vdW  Elec       q    Type
REMARK                         _______ _______ _______ _____ _____    ______ ____
ROOT
ATOM      1  C   UNL     1      -0.464   0.140   2.171  0.00  0.00    +0.222 C 
ATOM      2  O   UNL     1      -1.173  -0.637   2.775  0.00  0.00    -0.275 OA
ATOM      3  N   UNL     1      -0.365   1.420   2.582  0.00  0.00    -0.282 N 
ATOM      4  H   UNL     1       0.262   2.020   2.150  0.00  0.00    +0.155 HD
ENDROOT
BRANCH   3   5
ATOM      5  C   UNL     1      -1.167   1.883   3.633  0.00  0.00    +0.078 A 
ATOM      6  C   UNL     1      -1.562   1.014   4.641  0.00  0.00    +0.047 A 
ATOM      7  C   UNL     1      -2.354   1.473   5.677  0.00  0.00    +0.044 A 
ATOM      8  C   UNL     1      -2.755   2.797   5.712  0.00  0.00    +0.039 A 
ATOM      9  C   UNL     1      -2.364   3.668   4.711  0.00  0.00    +0.063 A 
ATOM     10  C   UNL     1      -1.566   3.216   3.672  0.00  0.00    +0.156 A 
ATOM     11 BR   UNL     1      -2.914   5.476   4.764  0.00  0.00    -0.046 Br
ATOM     12 CL   UNL     1      -2.848   0.385   6.937  0.00  0.00    -0.083 Cl
BRANCH  10  13
ATOM     13  O   UNL     1      -1.177   4.073   2.690  0.00  0.00    -0.489 OA
BRANCH  13  14
ATOM     14  C   UNL     1      -2.034   4.189   1.553  0.00  0.00    +0.226 C 
ATOM     15  C   UNL     1      -1.436   5.190   0.562  0.00  0.00    +0.048 C 
ENDBRANCH  13  14
ENDBRANCH  10  13
ENDBRANCH   3   5
BRANCH   1  16
ATOM     16  C   UNL     1       0.305  -0.325   0.961  0.00  0.00    +0.030 C 
ATOM     17  C   UNL     1       1.816  -0.059   1.149  0.00  0.00    -0.005 C 
ATOM     18  C   UNL     1       2.349  -1.426   1.648  0.00  0.00    -0.082 C 
ATOM     19  N   UNL     1       1.551  -2.407   0.869  0.00  0.00    +0.380 N 
ATOM     20  C   UNL     1       0.182  -1.852   0.804  0.00  0.00    -0.067 C 
ATOM     21  H   UNL     1       1.931  -2.504  -0.061  0.00  0.00    -0.086 HD
ATOM     22  H   UNL     1       1.543  -3.300   1.338  0.00  0.00    -0.086 HD
BRANCH  16  24
ATOM     23  C   UNL     1      -1.684   0.041  -0.507  0.00  0.00    +0.005 C 
ATOM     24  C   UNL     1      -0.207   0.381  -0.296  0.00  0.00    +0.011 C 
ENDBRANCH  16  24
ENDBRANCH   1  16
TORSDOF 5
