REMARK  Name = ZINC32944866
REMARK  9 active torsions:
REMARK  status: ('A' for Active; 'I' for Inactive)
REMARK    1  A    between atoms: C_1  and  C_2
REMARK    2  A    between atoms: C_2  and  C_4
REMARK    3  A    between atoms: C_2  and  N_22
REMARK    4  A    between atoms: N_6  and  C_7
REMARK    5  A    between atoms: C_7  and  C_8
REMARK    6  A    between atoms: C_8  and  C_9
REMARK    7  A    between atoms: C_9  and  N_10
REMARK    8  A    between atoms: C_13  and  N_16
REMARK    9  A    between atoms: C_30  and  C_33
REMARK                            x       y       z     vdW  Elec       q    Type
REMARK                         _______ _______ _______ _____ _____    ______ ____
ROOT
ATOM      1  C   UNL     1      -3.018  -0.912   1.300  0.00  0.00    +0.236 C 
ATOM      2  O   UNL     1      -3.402  -0.127   2.141  0.00  0.00    -0.274 OA
ATOM      3  N   UNL     1      -3.126  -2.238   1.518  0.00  0.00    -0.314 N 
ATOM      4  H   UNL     1      -2.778  -2.950   0.755  0.00  0.00    +0.149 HD
ENDROOT
BRANCH   1   6
ATOM      5  C   UNL     1      -3.256  -0.907  -1.168  0.00  0.00    +0.041 C 
ATOM      6  C   UNL     1      -2.422  -0.405   0.012  0.00  0.00    +0.173 C 
BRANCH   6   7
ATOM      7  N   UNL     1      -2.417   1.060   0.019  0.00  0.00    -0.293 N 
ATOM      8  C   UNL     1      -1.227   1.757  -0.025  0.00  0.00    +0.071 A 
ATOM      9  C   UNL     1      -0.015   1.076  -0.078  0.00  0.00    +0.028 A 
ATOM     10  C   UNL     1       1.167   1.783  -0.128  0.00  0.00    +0.002 A 
ATOM     11  C   UNL     1       1.158   3.172  -0.121  0.00  0.00    +0.002 A 
ATOM     12  C   UNL     1      -0.018   3.860  -0.064  0.00  0.00    +0.030 A 
ATOM     13  C   UNL     1      -1.236   3.165  -0.012  0.00  0.00    +0.088 A 
ATOM     14  N   UNL     1      -2.398   3.842   0.043  0.00  0.00    -0.236 NA
ATOM     15  C   UNL     1      -3.540   3.216   0.076  0.00  0.00    +0.209 A 
ATOM     16  C   UNL     1      -3.578   1.749   0.070  0.00  0.00    +0.283 A 
ATOM     17  O   UNL     1      -4.644   1.161   0.109  0.00  0.00    -0.265 OA
BRANCH  15  18
ATOM     18  C   UNL     1      -4.825   4.000   0.132  0.00  0.00    +0.439 C 
ATOM     19  F   UNL     1      -4.537   5.369   0.128  0.00  0.00    -0.164 F 
ATOM     20  F   UNL     1      -5.613   3.686  -0.981  0.00  0.00    -0.164 F 
ATOM     21  F   UNL     1      -5.520   3.674   1.302  0.00  0.00    -0.164 F 
ENDBRANCH  15  18
ENDBRANCH   6   7
ENDBRANCH   1   6
BRANCH   3  22
ATOM     22  C   UNL     1      -3.705  -2.730   2.769  0.00  0.00    +0.105 C 
BRANCH  22  23
ATOM     23  C   UNL     1      -3.710  -4.260   2.762  0.00  0.00    +0.034 C 
BRANCH  23  24
ATOM     24  C   UNL     1      -4.316  -4.775   4.070  0.00  0.00    +0.086 C 
BRANCH  24  25
ATOM     25  N   UNL     1      -4.320  -6.244   4.063  0.00  0.00    -0.302 NA
ATOM     26  C   UNL     1      -5.222  -6.762   3.026  0.00  0.00    +0.083 C 
ATOM     27  C   UNL     1      -5.092  -8.285   2.950  0.00  0.00    +0.000 C 
ATOM     28  C   UNL     1      -5.446  -8.891   4.311  0.00  0.00    -0.066 C 
ATOM     29  C   UNL     1      -4.524  -8.299   5.381  0.00  0.00    +0.000 C 
ATOM     30  C   UNL     1      -4.671  -6.775   5.386  0.00  0.00    +0.083 C 
BRANCH  28  31
ATOM     31  N   UNL     1      -5.266 -10.348   4.261  0.00  0.00    +0.382 N 
ATOM     32  C   UNL     1      -3.883 -10.697   3.913  0.00  0.00    -0.078 C 
ATOM     33  C   UNL     1      -3.697 -12.212   4.013  0.00  0.00    -0.019 C 
ATOM     34  C   UNL     1      -4.673 -12.905   3.058  0.00  0.00    -0.004 C 
ATOM     35  C   UNL     1      -6.103 -12.488   3.412  0.00  0.00    -0.019 C 
ATOM     36  C   UNL     1      -6.220 -10.964   3.329  0.00  0.00    -0.078 C 
ATOM     37  H   UNL     1      -5.471 -10.751   5.264  0.00  0.00    -0.081 HD
ENDBRANCH  28  31
ENDBRANCH  24  25
ENDBRANCH  23  24
ENDBRANCH  22  23
ENDBRANCH   3  22
TORSDOF 8
