REMARK  Name = ZINC56945479
REMARK  12 active torsions:
REMARK  status: ('A' for Active; 'I' for Inactive)
REMARK    1  A    between atoms: C_1  and  C_2
REMARK    2  A    between atoms: C_5  and  C_26
REMARK    3  A    between atoms: N_8  and  C_10
REMARK    4  A    between atoms: C_10  and  C_11
REMARK    5  A    between atoms: C_11  and  C_13
REMARK    6  A    between atoms: C_11  and  N_14
REMARK    7  A    between atoms: N_17  and  N_18
REMARK    8  A    between atoms: C_19  and  O_21
REMARK    9  A    between atoms: O_21  and  C_22
REMARK   10  A    between atoms: C_22  and  C_23
REMARK   11  A    between atoms: C_22  and  C_24
REMARK   12  A    between atoms: C_22  and  C_25
REMARK                            x       y       z     vdW  Elec       q    Type
REMARK                         _______ _______ _______ _____ _____    ______ ____
ROOT
ATOM      1  N   UNL     1       3.510  -2.495   0.951  0.00  0.00    -0.297 N 
ATOM      2  C   UNL     1       4.540  -1.852   0.365  0.00  0.00    +0.316 C 
ATOM      3  O   UNL     1       5.040  -0.884   0.906  0.00  0.00    -0.251 OA
ATOM      4  N   UNL     1       5.016  -2.281  -0.821  0.00  0.00    -0.216 N 
ATOM      5  H   UNL     1       3.112  -3.266   0.519  0.00  0.00    +0.150 HD
ATOM      6  H   UNL     1       5.757  -1.818  -1.242  0.00  0.00    +0.174 HD
ENDROOT
BRANCH   4   7
ATOM      7  N   UNL     1       4.440  -3.396  -1.444  0.00  0.00    -0.198 N 
ATOM      8  C   UNL     1       4.916  -3.825  -2.630  0.00  0.00    +0.417 C 
ATOM      9  O   UNL     1       4.417  -4.792  -3.171  0.00  0.00    -0.225 OA
ATOM     10  H   UNL     1       3.699  -3.858  -1.023  0.00  0.00    +0.176 HD
BRANCH   8  11
ATOM     11  O   UNL     1       5.944  -3.183  -3.215  0.00  0.00    -0.444 OA
BRANCH  11  12
ATOM     12  C   UNL     1       6.398  -3.692  -4.471  0.00  0.00    +0.107 C 
ATOM     13  C   UNL     1       5.252  -3.643  -5.484  0.00  0.00    +0.055 C 
ATOM     14  C   UNL     1       7.563  -2.840  -4.977  0.00  0.00    +0.055 C 
ATOM     15  C   UNL     1       6.863  -5.139  -4.296  0.00  0.00    +0.055 C 
ENDBRANCH  11  12
ENDBRANCH   8  11
ENDBRANCH   4   7
BRANCH   1  16
ATOM     16  C   UNL     1       2.993  -2.028   2.239  0.00  0.00    +0.055 C 
ATOM     17  C   UNL     1       3.825  -2.634   3.372  0.00  0.00    +0.026 C 
BRANCH  16  18
ATOM     18  C   UNL     1       1.534  -2.461   2.390  0.00  0.00    -0.057 C 
BRANCH  18  24
ATOM     19  C   UNL     1      -0.019   1.526   0.010  0.00  0.00    +0.005 C 
ATOM     20  C   UNL     1       0.002  -0.004   0.002  0.00  0.00    -0.031 C 
ATOM     21  C   UNL     1      -1.434  -0.535   0.015  0.00  0.00    +0.003 C 
ATOM     22  C   UNL     1      -1.402  -2.064   0.086  0.00  0.00    -0.031 C 
ATOM     23  C   UNL     1      -0.613  -2.496   1.324  0.00  0.00    -0.076 C 
ATOM     24  N   UNL     1       0.758  -1.980   1.239  0.00  0.00    +0.381 N 
ATOM     25  C   UNL     1       0.740  -0.512   1.242  0.00  0.00    -0.076 C 
ATOM     26  C   UNL     1      -2.832  -2.602   0.177  0.00  0.00    +0.005 C 
ATOM     27  H   UNL     1       1.188  -2.307   0.386  0.00  0.00    -0.082 HD
ENDBRANCH  18  24
ENDBRANCH  16  18
ENDBRANCH   1  16
TORSDOF 6
