REMARK  Name = ZINC37014805
REMARK  4 active torsions:
REMARK  status: ('A' for Active; 'I' for Inactive)
REMARK    1  A    between atoms: C_4  and  C_18
REMARK    2  A    between atoms: C_6  and  N_7
REMARK    3  A    between atoms: C_8  and  C_10
REMARK    4  A    between atoms: C_13  and  O_17
REMARK                            x       y       z     vdW  Elec       q    Type
REMARK                         _______ _______ _______ _____ _____    ______ ____
ROOT
ATOM      1  N   UNL     1      -1.200  -0.722   0.010  0.00  0.00    -0.287 N 
ATOM      2  C   UNL     1      -2.373  -0.069   0.127  0.00  0.00    +0.203 C 
ATOM      3  O   UNL     1      -2.395   1.143   0.134  0.00  0.00    -0.277 OA
ATOM      4  H   UNL     1      -1.188  -1.689  -0.063  0.00  0.00    +0.155 HD
ENDROOT
BRANCH   1  10
ATOM      5  C   UNL     1       0.057   1.246  -0.610  0.00  0.00    +0.024 A 
ATOM      6  C   UNL     1       1.244   1.952  -0.624  0.00  0.00    +0.017 A 
ATOM      7  C   UNL     1       2.377   1.417  -0.037  0.00  0.00    +0.030 A 
ATOM      8  C   UNL     1       2.324   0.172   0.565  0.00  0.00    +0.070 A 
ATOM      9  C   UNL     1       1.140  -0.539   0.582  0.00  0.00    +0.036 A 
ATOM     10  C   UNL     1       0.002  -0.003  -0.006  0.00  0.00    +0.034 A 
ATOM     11 BR   UNL     1       3.999   2.387  -0.059  0.00  0.00    -0.050 Br
BRANCH   8  12
ATOM     12  C   UNL     1       3.560  -0.409   1.202  0.00  0.00    +0.418 C 
ATOM     13  F   UNL     1       3.261  -1.665   1.740  0.00  0.00    -0.166 F 
ATOM     14  F   UNL     1       4.564  -0.542   0.236  0.00  0.00    -0.166 F 
ATOM     15  F   UNL     1       4.003   0.441   2.220  0.00  0.00    -0.166 F 
ENDBRANCH   8  12
ENDBRANCH   1  10
BRANCH   2  16
ATOM     16  C   UNL     1      -3.658  -0.847   0.249  0.00  0.00    +0.019 C 
ATOM     17  C   UNL     1      -3.871  -1.310   1.706  0.00  0.00    +0.023 C 
ATOM     18  C   UNL     1      -5.389  -1.184   1.950  0.00  0.00    +0.097 C 
ATOM     19  C   UNL     1      -5.966  -0.655   0.619  0.00  0.00    -0.050 C 
ATOM     20  N   UNL     1      -4.823   0.029  -0.042  0.00  0.00    +0.388 N 
ATOM     21  H   UNL     1      -4.684   0.946   0.356  0.00  0.00    -0.085 HD
ATOM     22  H   UNL     1      -4.976   0.094  -1.037  0.00  0.00    -0.085 HD
BRANCH  18  23
ATOM     23  O   UNL     1      -5.949  -2.461   2.263  0.00  0.00    -0.394 OA
ATOM     24  H   UNL     1      -6.902  -2.442   2.426  0.00  0.00    +0.210 HD
ENDBRANCH  18  23
ENDBRANCH   2  16
TORSDOF 4
