REMARK  Name = ZINC36692421
REMARK  6 active torsions:
REMARK  status: ('A' for Active; 'I' for Inactive)
REMARK    1  A    between atoms: C_1  and  C_2
REMARK    2  A    between atoms: C_4  and  O_38
REMARK    3  A    between atoms: C_14  and  C_16
REMARK    4  A    between atoms: C_16  and  C_21
REMARK    5  A    between atoms: C_26  and  C_37
REMARK    6  A    between atoms: N_28  and  O_29
REMARK                            x       y       z     vdW  Elec       q    Type
REMARK                         _______ _______ _______ _____ _____    ______ ____
ROOT
ATOM      1  C   UNL     1       0.006   1.508  -0.003  0.00  0.00    +0.012 C 
ATOM      2  C   UNL     1       0.010  -0.022  -0.001  0.00  0.00    -0.019 C 
ATOM      3  C   UNL     1       0.441  -0.545  -1.354  0.00  0.00    +0.039 C 
ATOM      4  C   UNL     1       1.937  -0.647  -1.550  0.00  0.00    +0.119 C 
ATOM      5  C   UNL     1       2.596  -1.391  -0.392  0.00  0.00    +0.033 C 
ATOM      6  C   UNL     1       2.320  -0.616   0.899  0.00  0.00    -0.001 C 
ATOM      7  C   UNL     1       0.842  -0.546   1.165  0.00  0.00    -0.001 C 
ATOM      8  C   UNL     1       0.261  -1.919   1.522  0.00  0.00    +0.005 C 
ATOM      9  C   UNL     1      -1.186  -1.920   0.993  0.00  0.00    +0.009 C 
ATOM     10  C   UNL     1      -1.413  -0.563   0.303  0.00  0.00    +0.054 C 
ATOM     11  C   UNL     1       3.040  -1.287   2.071  0.00  0.00    +0.004 C 
ATOM     12  C   UNL     1       4.550  -1.285   1.820  0.00  0.00    +0.005 C 
ATOM     13  C   UNL     1       4.828  -0.658   0.454  0.00  0.00    +0.006 C 
ATOM     14  C   UNL     1       4.102  -1.482  -0.635  0.00  0.00    +0.018 C 
ATOM     15  C   UNL     1       4.447  -0.904  -1.988  0.00  0.00    +0.069 C 
ATOM     16  N   UNL     1       3.531  -0.572  -2.817  0.00  0.00    -0.096 NA
ATOM     17  C   UNL     1       5.911  -0.729  -2.332  0.00  0.00    +0.119 C 
ATOM     18  C   UNL     1       6.599   0.026  -1.191  0.00  0.00    +0.176 C 
ATOM     19  C   UNL     1       6.327  -0.662   0.160  0.00  0.00    +0.069 C 
ATOM     20  O   UNL     1       8.014   0.072  -1.436  0.00  0.00    -0.346 OA
ATOM     21  C   UNL     1       8.237   1.352  -2.077  0.00  0.00    +0.191 C 
ATOM     22  C   UNL     1       7.210   2.253  -1.347  0.00  0.00    +0.191 C 
ATOM     23  O   UNL     1       6.095   1.366  -1.129  0.00  0.00    -0.346 OA
ATOM     24  C   UNL     1       4.545  -2.945  -0.568  0.00  0.00    +0.018 C 
ENDROOT
BRANCH  10  25
ATOM     25  C   UNL     1      -2.199  -0.751  -0.996  0.00  0.00    +0.171 C 
ATOM     26  O   UNL     1      -3.540  -1.170  -0.693  0.00  0.00    -0.346 OA
ATOM     27  C   UNL     1      -3.889  -2.091  -1.753  0.00  0.00    +0.191 C 
ATOM     28  C   UNL     1      -2.538  -2.808  -2.005  0.00  0.00    +0.191 C 
ATOM     29  O   UNL     1      -1.570  -1.760  -1.797  0.00  0.00    -0.346 OA
ATOM     30  C   UNL     1      -2.238   0.569  -1.769  0.00  0.00    +0.074 C 
ENDBRANCH  10  25
BRANCH  16  31
ATOM     31  O   UNL     1       3.878  -0.033  -4.079  0.00  0.00    -0.409 OA
ATOM     32  H   UNL     1       3.119   0.187  -4.635  0.00  0.00    +0.328 HD
ENDBRANCH  16  31
BRANCH   4  33
ATOM     33  O   UNL     1       2.489   0.668  -1.636  0.00  0.00    -0.391 OA
ATOM     34  H   UNL     1       2.137   1.195  -2.366  0.00  0.00    +0.210 HD
ENDBRANCH   4  33
TORSDOF 3
