REMARK  Name = ZINC44533823
REMARK  6 active torsions:
REMARK  status: ('A' for Active; 'I' for Inactive)
REMARK    1  A    between atoms: C_1  and  N_2
REMARK    2  A    between atoms: C_6  and  C_9
REMARK    3  A    between atoms: C_9  and  N_10
REMARK    4  A    between atoms: N_10  and  S_11
REMARK    5  A    between atoms: S_11  and  C_14
REMARK    6  A    between atoms: C_17  and  N_21
REMARK                            x       y       z     vdW  Elec       q    Type
REMARK                         _______ _______ _______ _____ _____    ______ ____
ROOT
ATOM      1  S   UNL     1       2.332  -4.853   3.481  0.00  0.00    +0.059 S 
ATOM      2  O   UNL     1       2.122  -6.251   3.336  0.00  0.00    -0.153 OA
ATOM      3  O   UNL     1       3.565  -4.230   3.151  0.00  0.00    -0.153 OA
ENDROOT
BRANCH   1   4
ATOM      4  C   UNL     1       2.010  -4.469   5.170  0.00  0.00    +0.119 A 
ATOM      5  C   UNL     1       2.923  -3.726   5.896  0.00  0.00    +0.031 A 
ATOM      6  C   UNL     1       2.674  -3.424   7.220  0.00  0.00    +0.025 A 
ATOM      7  C   UNL     1       1.503  -3.865   7.824  0.00  0.00    +0.026 A 
ATOM      8  C   UNL     1       0.587  -4.610   7.093  0.00  0.00    +0.040 A 
ATOM      9  C   UNL     1       0.840  -4.905   5.767  0.00  0.00    +0.046 A 
ATOM     10 BR   UNL     1      -0.410  -5.913   4.768  0.00  0.00    -0.048 Br
BRANCH   7  11
ATOM     11  N   UNL     1       1.249  -3.561   9.163  0.00  0.00    -0.358 N 
ATOM     12  H   UNL     1       1.890  -3.041   9.672  0.00  0.00    +0.142 HD
ATOM     13  H   UNL     1       0.431  -3.869   9.583  0.00  0.00    +0.142 HD
ENDBRANCH   7  11
ENDBRANCH   1   4
BRANCH   1  14
ATOM     14  N   UNL     1       1.165  -4.103   2.577  0.00  0.00    -0.190 NA
ATOM     15  H   UNL     1       0.531  -4.632   2.068  0.00  0.00    +0.148 HD
BRANCH  14  16
ATOM     16  C   UNL     1       1.090  -2.640   2.546  0.00  0.00    +0.107 C 
BRANCH  16  22
ATOM     17  C   UNL     1      -1.029   1.194   0.360  0.00  0.00    -0.096 C 
ATOM     18  N   UNL     1      -0.797  -0.254   0.277  0.00  0.00    +0.378 N 
ATOM     19  C   UNL     1      -0.124  -0.569  -0.988  0.00  0.00    -0.079 C 
ATOM     20  C   UNL     1       0.048  -2.084  -1.116  0.00  0.00    -0.018 C 
ATOM     21  C   UNL     1       0.891  -2.597   0.054  0.00  0.00    +0.001 C 
ATOM     22  C   UNL     1       0.216  -2.199   1.370  0.00  0.00    -0.012 C 
ATOM     23  C   UNL     1       0.039  -0.679   1.406  0.00  0.00    -0.074 C 
ATOM     24  H   UNL     1      -1.682  -0.738   0.315  0.00  0.00    -0.082 HD
ENDBRANCH  16  22
ENDBRANCH  14  16
ENDBRANCH   1  14
TORSDOF 5
