REMARK  Name = ZINC08789965
REMARK  7 active torsions:
REMARK  status: ('A' for Active; 'I' for Inactive)
REMARK    1  A    between atoms: C_1  and  C_2
REMARK    2  A    between atoms: C_7  and  C_8
REMARK    3  A    between atoms: C_17  and  C_19
REMARK    4  A    between atoms: C_19  and  C_20
REMARK    5  A    between atoms: N_28  and  C_31
REMARK    6  A    between atoms: C_31  and  C_32
REMARK    7  A    between atoms: C_32  and  C_33
REMARK                            x       y       z     vdW  Elec       q    Type
REMARK                         _______ _______ _______ _____ _____    ______ ____
ROOT
ATOM      1  C   UNL     1      -4.823  -3.395   2.319  0.00  0.00    +0.044 C 
ATOM      2  C   UNL     1      -4.073  -2.167   1.871  0.00  0.00    -0.046 A 
ATOM      3  C   UNL     1      -3.019  -2.290   0.984  0.00  0.00    +0.004 A 
ATOM      4  C   UNL     1      -2.330  -1.163   0.573  0.00  0.00    +0.005 A 
ATOM      5  C   UNL     1      -2.693   0.078   1.046  0.00  0.00    -0.027 A 
ATOM      6  C   UNL     1      -3.752   0.214   1.939  0.00  0.00    +0.039 A 
ATOM      7  C   UNL     1      -4.440  -0.926   2.349  0.00  0.00    -0.026 A 
ATOM      8  C   UNL     1      -5.590  -0.803   3.315  0.00  0.00    +0.046 C 
ATOM      9  N   UNL     1      -3.932   1.558   2.275  0.00  0.00    -0.286 N 
ATOM     10  C   UNL     1      -3.045   2.359   1.654  0.00  0.00    +0.211 C 
ATOM     11  O   UNL     1      -2.964   3.565   1.755  0.00  0.00    -0.277 OA
ATOM     12  C   UNL     1      -2.173   1.468   0.812  0.00  0.00    +0.050 C 
ATOM     13  C   UNL     1      -2.244   1.854  -0.670  0.00  0.00    +0.088 C 
ATOM     14  C   UNL     1      -0.804   1.619  -1.206  0.00  0.00    +0.073 C 
ATOM     15  C   UNL     1      -0.013   1.086   0.008  0.00  0.00    -0.053 C 
ATOM     16  C   UNL     1      -0.968   0.507  -2.217  0.00  0.00    +0.224 C 
ATOM     17  O   UNL     1      -0.075   0.025  -2.880  0.00  0.00    -0.275 OA
ATOM     18  N   UNL     1      -2.272   0.145  -2.251  0.00  0.00    -0.241 N 
ATOM     19  C   UNL     1      -3.067   0.836  -1.426  0.00  0.00    +0.225 C 
ATOM     20  O   UNL     1      -4.262   0.672  -1.304  0.00  0.00    -0.275 OA
ATOM     21  H   UNL     1      -4.616   1.877   2.884  0.00  0.00    +0.155 HD
ATOM     22  N   UNL     1      -0.766   1.574   1.165  0.00  0.00    +0.394 N 
ATOM     23  H   UNL     1      -0.562   0.998   1.990  0.00  0.00    -0.083 HD
ATOM     24  H   UNL     1      -0.522   2.552   1.361  0.00  0.00    -0.083 HD
ENDROOT
BRANCH  15  25
ATOM     25  C   UNL     1       1.415   1.637  -0.003  0.00  0.00    +0.020 C 
BRANCH  25  26
ATOM     26  C   UNL     1       2.193   1.038   1.141  0.00  0.00    -0.049 A 
ATOM     27  C   UNL     1       2.211   1.669   2.370  0.00  0.00    +0.003 A 
ATOM     28  C   UNL     1       2.921   1.118   3.420  0.00  0.00    +0.000 A 
ATOM     29  C   UNL     1       3.621  -0.060   3.238  0.00  0.00    +0.000 A 
ATOM     30  C   UNL     1       3.607  -0.689   2.007  0.00  0.00    +0.000 A 
ATOM     31  C   UNL     1       2.893  -0.140   0.958  0.00  0.00    +0.003 A 
ENDBRANCH  25  26
ENDBRANCH  15  25
BRANCH  18  32
ATOM     32  C   UNL     1      -2.772  -0.917  -3.128  0.00  0.00    +0.121 C 
BRANCH  32  33
ATOM     33  C   UNL     1      -3.182  -0.316  -4.474  0.00  0.00    +0.054 C 
BRANCH  33  34
ATOM     34  C   UNL     1      -3.696  -1.408  -5.376  0.00  0.00    -0.046 A 
ATOM     35  C   UNL     1      -2.824  -2.082  -6.211  0.00  0.00    +0.004 A 
ATOM     36  C   UNL     1      -3.295  -3.087  -7.035  0.00  0.00    +0.000 A 
ATOM     37  C   UNL     1      -4.639  -3.411  -7.032  0.00  0.00    +0.000 A 
ATOM     38  C   UNL     1      -5.511  -2.733  -6.201  0.00  0.00    +0.000 A 
ATOM     39  C   UNL     1      -5.040  -1.731  -5.373  0.00  0.00    +0.004 A 
ENDBRANCH  33  34
ENDBRANCH  32  33
ENDBRANCH  18  32
TORSDOF 5
