REMARK  Name = ZINC51575012
REMARK  6 active torsions:
REMARK  status: ('A' for Active; 'I' for Inactive)
REMARK    1  A    between atoms: C_1  and  C_2
REMARK    2  A    between atoms: C_6  and  C_8
REMARK    3  A    between atoms: C_8  and  N_9
REMARK    4  A    between atoms: N_9  and  S_10
REMARK    5  A    between atoms: S_10  and  C_13
REMARK    6  A    between atoms: C_18  and  N_19
REMARK                            x       y       z     vdW  Elec       q    Type
REMARK                         _______ _______ _______ _____ _____    ______ ____
ROOT
ATOM      1  S   UNL     1       1.748  -3.518   4.451  0.00  0.00    -0.058 S 
ATOM      2  O   UNL     1       1.168  -2.698   5.456  0.00  0.00    -0.191 OA
ATOM      3  O   UNL     1       1.409  -4.890   4.297  0.00  0.00    -0.191 OA
ENDROOT
BRANCH   1   4
ATOM      4  C   UNL     1       3.492  -3.455   4.695  0.00  0.00    +0.087 A 
ATOM      5  C   UNL     1       4.018  -2.721   5.740  0.00  0.00    +0.041 A 
ATOM      6  C   UNL     1       5.387  -2.671   5.932  0.00  0.00    +0.020 A 
ATOM      7  C   UNL     1       6.234  -3.356   5.078  0.00  0.00    +0.017 A 
ATOM      8  C   UNL     1       5.714  -4.091   4.031  0.00  0.00    +0.025 A 
ATOM      9  C   UNL     1       4.339  -4.148   3.840  0.00  0.00    +0.048 A 
ATOM     10 BR   UNL     1       6.103  -1.664   7.363  0.00  0.00    -0.050 Br
BRANCH   9  11
ATOM     11  N   UNL     1       3.810  -4.897   2.785  0.00  0.00    -0.357 N 
ATOM     12  H   UNL     1       2.850  -4.933   2.650  0.00  0.00    +0.142 HD
ATOM     13  H   UNL     1       4.403  -5.380   2.188  0.00  0.00    +0.142 HD
ENDBRANCH   9  11
ENDBRANCH   1   4
BRANCH   1  14
ATOM     14  N   UNL     1       1.430  -2.786   3.000  0.00  0.00    +0.473 NA
BRANCH  14  15
ATOM     15  C   UNL     1       0.050  -2.683   2.519  0.00  0.00    -0.062 C 
BRANCH  15  21
ATOM     16  C   UNL     1      -0.018   1.503   0.010  0.00  0.00    +0.063 C 
ATOM     17  C   UNL     1       0.002  -0.004   0.002  0.00  0.00    +0.013 A 
ATOM     18  C   UNL     1       0.005  -0.681  -1.203  0.00  0.00    +0.021 A 
ATOM     19  C   UNL     1       0.024  -2.067  -1.200  0.00  0.00    +0.003 A 
ATOM     20  C   UNL     1       0.039  -2.724   0.021  0.00  0.00    +0.019 A 
ATOM     21  C   UNL     1       0.035  -1.980   1.186  0.00  0.00    -0.006 A 
ATOM     22  N   UNL     1       0.022  -0.662   1.145  0.00  0.00    -0.364 N 
ATOM     23  H   UNL     1       0.023  -0.163   1.977  0.00  0.00    +0.165 HD
ENDBRANCH  15  21
ENDBRANCH  14  15
ENDBRANCH   1  14
TORSDOF 5
