REMARK  Name = ZINC40798990
REMARK  5 active torsions:
REMARK  status: ('A' for Active; 'I' for Inactive)
REMARK    1  A    between atoms: C_4  and  C_7
REMARK    2  A    between atoms: C_7  and  N_8
REMARK    3  A    between atoms: C_16  and  N_30
REMARK    4  A    between atoms: C_17  and  N_21
REMARK    5  A    between atoms: N_21  and  C_22
REMARK                            x       y       z     vdW  Elec       q    Type
REMARK                         _______ _______ _______ _____ _____    ______ ____
ROOT
ATOM      1  N   UNL     1       4.280  -1.157   1.493  0.00  0.00    -0.264 N 
ATOM      2  C   UNL     1       3.955  -2.387   2.057  0.00  0.00    +0.127 A 
ATOM      3  C   UNL     1       3.147  -3.275   1.354  0.00  0.00    +0.044 A 
ATOM      4  C   UNL     1       2.832  -4.494   1.926  0.00  0.00    +0.005 A 
ATOM      5  C   UNL     1       3.337  -4.785   3.187  0.00  0.00    +0.020 A 
ATOM      6  C   UNL     1       4.132  -3.857   3.827  0.00  0.00    +0.113 A 
ATOM      7  N   UNL     1       4.421  -2.703   3.255  0.00  0.00    -0.240 NA
ATOM      8  C   UNL     1       5.210  -0.331   2.116  0.00  0.00    +0.153 A 
ATOM      9  C   UNL     1       6.553  -0.363   1.737  0.00  0.00    +0.104 A 
ATOM     10  C   UNL     1       7.444   0.487   2.394  0.00  0.00    +0.126 A 
ATOM     11  N   UNL     1       6.983   1.290   3.350  0.00  0.00    -0.333 N 
ATOM     12  C   UNL     1       5.707   1.289   3.678  0.00  0.00    +0.200 A 
ATOM     13  N   UNL     1       4.832   0.507   3.078  0.00  0.00    -0.220 NA
ATOM     14  H   UNL     1       7.595   1.884   3.812  0.00  0.00    +0.168 HD
ENDROOT
BRANCH   9  15
ATOM     15  N   UNL     1       6.996  -1.227   0.723  0.00  0.00    -0.353 N 
ATOM     16  H   UNL     1       6.355  -1.756   0.222  0.00  0.00    +0.143 HD
ATOM     17  H   UNL     1       7.942  -1.296   0.523  0.00  0.00    +0.143 HD
ENDBRANCH   9  15
BRANCH  10  18
ATOM     18  N   UNL     1       8.793   0.494   2.057  0.00  0.00    -0.297 N 
ATOM     19  H   UNL     1       9.131  -0.131   1.396  0.00  0.00    +0.154 HD
BRANCH  18  20
ATOM     20  C   UNL     1       9.663   1.404   2.669  0.00  0.00    +0.068 A 
ATOM     21  C   UNL     1      10.200   2.454   1.936  0.00  0.00    +0.029 A 
ATOM     22  C   UNL     1      11.059   3.351   2.542  0.00  0.00    +0.040 A 
ATOM     23  C   UNL     1      11.384   3.204   3.880  0.00  0.00    +0.126 A 
ATOM     24  C   UNL     1      10.851   2.158   4.614  0.00  0.00    +0.078 A 
ATOM     25  C   UNL     1       9.987   1.261   4.014  0.00  0.00    +0.147 A 
ATOM     26  F   UNL     1       9.462   0.244   4.731  0.00  0.00    -0.203 F 
ATOM     27  F   UNL     1      12.225   4.082   4.470  0.00  0.00    -0.205 F 
ENDBRANCH  18  20
ENDBRANCH  10  18
BRANCH   1  28
ATOM     28  C   UNL     1       3.643  -0.732   0.244  0.00  0.00    +0.149 C 
BRANCH  28  32
ATOM     29  C   UNL     1       0.065   1.426   1.130  0.00  0.00    +0.000 A 
ATOM     30  C   UNL     1       1.268   2.099   1.018  0.00  0.00    +0.000 A 
ATOM     31  C   UNL     1       2.425   1.400   0.731  0.00  0.00    +0.005 A 
ATOM     32  C   UNL     1       2.381   0.029   0.558  0.00  0.00    -0.030 A 
ATOM     33  C   UNL     1       1.178  -0.643   0.671  0.00  0.00    +0.005 A 
ATOM     34  C   UNL     1       0.020   0.056   0.957  0.00  0.00    +0.000 A 
ENDBRANCH  28  32
ENDBRANCH   1  28
TORSDOF 5
