REMARK  Name = ZINC15745951
REMARK  5 active torsions:
REMARK  status: ('A' for Active; 'I' for Inactive)
REMARK    1  A    between atoms: C_1  and  N_2
REMARK    2  A    between atoms: N_2  and  C_3
REMARK    3  A    between atoms: C_9  and  C_11
REMARK    4  A    between atoms: C_17  and  C_26
REMARK    5  A    between atoms: C_20  and  C_22
REMARK                            x       y       z     vdW  Elec       q    Type
REMARK                         _______ _______ _______ _____ _____    ______ ____
ROOT
ATOM      1  C   UNL     1      -0.109   0.020  -2.458  0.00  0.00    +0.096 A 
ATOM      2  C   UNL     1       0.075   1.416  -2.629  0.00  0.00    +0.149 A 
ATOM      3  N   UNL     1      -0.013   1.687  -3.903  0.00  0.00    -0.177 NA
ATOM      4  N   UNL     1      -0.254   0.508  -4.607  0.00  0.00    -0.238 N 
ATOM      5  C   UNL     1      -0.305  -0.513  -3.718  0.00  0.00    +0.130 A 
ATOM      6  N   UNL     1      -0.521  -1.827  -4.094  0.00  0.00    -0.322 N 
ATOM      7  C   UNL     1      -0.407  -2.120  -5.536  0.00  0.00    +0.104 C 
ATOM      8  C   UNL     1      -1.114  -1.005  -6.316  0.00  0.00    +0.063 C 
ATOM      9  C   UNL     1      -0.425   0.336  -6.053  0.00  0.00    +0.215 C 
ATOM     10  H   UNL     1      -0.735  -2.517  -3.446  0.00  0.00    +0.148 HD
ENDROOT
BRANCH   7  11
ATOM     11  C   UNL     1      -1.057  -3.446  -5.837  0.00  0.00    -0.024 A 
ATOM     12  C   UNL     1      -2.245  -3.787  -5.218  0.00  0.00    +0.009 A 
ATOM     13  C   UNL     1      -2.846  -5.002  -5.490  0.00  0.00    +0.050 A 
ATOM     14  C   UNL     1      -2.258  -5.881  -6.386  0.00  0.00    +0.166 A 
ATOM     15  C   UNL     1      -1.061  -5.537  -7.009  0.00  0.00    +0.167 A 
ATOM     16  C   UNL     1      -0.468  -4.315  -6.736  0.00  0.00    +0.055 A 
ATOM     17  O   UNL     1      -0.691  -6.558  -7.836  0.00  0.00    -0.453 OA
ATOM     18  C   UNL     1      -1.456  -7.699  -7.404  0.00  0.00    +0.466 C 
ATOM     19  O   UNL     1      -2.637  -7.117  -6.821  0.00  0.00    -0.453 OA
ENDBRANCH   7  11
BRANCH   1  22
ATOM     20  C   UNL     1      -1.231   1.164  -0.141  0.00  0.00    +0.132 C 
ATOM     21  N   UNL     1      -0.574  -0.144  -0.070  0.00  0.00    -0.297 N 
ATOM     22  C   UNL     1      -0.089  -0.717  -1.189  0.00  0.00    +0.251 C 
ATOM     23  O   UNL     1       0.365  -1.845  -1.148  0.00  0.00    -0.270 OA
BRANCH  21  24
ATOM     24  C   UNL     1      -0.444  -0.829   1.219  0.00  0.00    +0.076 C 
ATOM     25  C   UNL     1      -1.835  -1.081   1.804  0.00  0.00    +0.022 C 
ATOM     26  C   UNL     1      -1.700  -1.797   3.150  0.00  0.00    +0.002 C 
ATOM     27  C   UNL     1      -0.892  -0.924   4.113  0.00  0.00    +0.000 C 
ATOM     28  C   UNL     1       0.499  -0.672   3.527  0.00  0.00    +0.002 C 
ATOM     29  C   UNL     1       0.364   0.044   2.181  0.00  0.00    +0.022 C 
ENDBRANCH  21  24
ENDBRANCH   1  22
BRANCH   9  30
ATOM     30  C   UNL     1      -1.276   1.480  -6.608  0.00  0.00    +0.412 C 
ATOM     31  F   UNL     1      -0.639   2.699  -6.358  0.00  0.00    -0.168 F 
ATOM     32  F   UNL     1      -1.438   1.313  -7.988  0.00  0.00    -0.168 F 
ATOM     33  F   UNL     1      -2.530   1.472  -5.987  0.00  0.00    -0.168 F 
ENDBRANCH   9  30
TORSDOF 4
