REMARK  Name = ZINC08564968
REMARK  5 active torsions:
REMARK  status: ('A' for Active; 'I' for Inactive)
REMARK    1  A    between atoms: C_1  and  N_2
REMARK    2  A    between atoms: C_3  and  C_5
REMARK    3  A    between atoms: C_5  and  N_16
REMARK    4  A    between atoms: C_6  and  C_7
REMARK    5  A    between atoms: C_17  and  C_19
REMARK                            x       y       z     vdW  Elec       q    Type
REMARK                         _______ _______ _______ _____ _____    ______ ____
ROOT
ATOM      1  C   UNL     1      -1.227   1.756  -0.057  0.00  0.00    +0.097 C 
ATOM      2  C   UNL     1      -2.368   1.191   0.404  0.00  0.00    +0.036 C 
ENDROOT
BRANCH   2   3
ATOM      3  C   UNL     1      -3.482   2.041   0.846  0.00  0.00    -0.019 A 
ATOM      4  C   UNL     1      -3.227   3.297   1.408  0.00  0.00    +0.012 A 
ATOM      5  C   UNL     1      -4.274   4.094   1.817  0.00  0.00    +0.050 A 
ATOM      6  C   UNL     1      -5.583   3.652   1.683  0.00  0.00    +0.166 A 
ATOM      7  C   UNL     1      -5.845   2.398   1.128  0.00  0.00    +0.167 A 
ATOM      8  C   UNL     1      -4.802   1.595   0.712  0.00  0.00    +0.057 A 
ATOM      9  O   UNL     1      -7.197   2.205   1.110  0.00  0.00    -0.453 OA
ATOM     10  C   UNL     1      -7.774   3.513   1.278  0.00  0.00    +0.466 C 
ATOM     11  O   UNL     1      -6.770   4.239   2.010  0.00  0.00    -0.453 OA
ENDBRANCH   2   3
BRANCH   1  14
ATOM     12  C   UNL     1      -1.742   5.256  -1.414  0.00  0.00    +0.128 C 
ATOM     13  N   UNL     1      -1.901   3.821  -1.165  0.00  0.00    -0.313 N 
ATOM     14  C   UNL     1      -1.146   3.212  -0.230  0.00  0.00    +0.258 C 
ATOM     15  O   UNL     1      -0.398   3.868   0.470  0.00  0.00    -0.269 OA
ATOM     16  H   UNL     1      -2.550   3.310  -1.674  0.00  0.00    +0.149 HD
ENDBRANCH   1  14
BRANCH   1  17
ATOM     17  N   UNL     1      -0.124   0.952  -0.367  0.00  0.00    -0.277 N 
ATOM     18  C   UNL     1       0.969   1.498  -0.936  0.00  0.00    +0.249 C 
ATOM     19  O   UNL     1       0.970   2.673  -1.246  0.00  0.00    -0.270 OA
ATOM     20  H   UNL     1      -0.148   0.001  -0.176  0.00  0.00    +0.155 HD
BRANCH  18  21
ATOM     21  C   UNL     1       2.166   0.667  -1.183  0.00  0.00    +0.050 A 
ATOM     22  C   UNL     1       2.171  -0.681  -0.822  0.00  0.00    +0.014 A 
ATOM     23  C   UNL     1       3.289  -1.452  -1.060  0.00  0.00    +0.001 A 
ATOM     24  C   UNL     1       4.410  -0.889  -1.645  0.00  0.00    +0.001 A 
ATOM     25  C   UNL     1       4.415   0.448  -2.000  0.00  0.00    +0.015 A 
ATOM     26  C   UNL     1       3.300   1.230  -1.772  0.00  0.00    +0.025 A 
ATOM     27  I   UNL     1       3.309   3.255  -2.310  0.00  0.00    -0.043 I 
ENDBRANCH  18  21
ENDBRANCH   1  17
TORSDOF 4
