REMARK  Name = ZINC63807247
REMARK  9 active torsions:
REMARK  status: ('A' for Active; 'I' for Inactive)
REMARK    1  A    between atoms: C_1  and  C_2
REMARK    2  A    between atoms: C_4  and  C_13
REMARK    3  A    between atoms: C_13  and  C_14
REMARK    4  A    between atoms: C_14  and  N_15
REMARK    5  A    between atoms: C_16  and  C_18
REMARK    6  A    between atoms: N_20  and  C_21
REMARK    7  A    between atoms: C_22  and  C_29
REMARK    8  A    between atoms: N_24  and  C_28
REMARK    9  A    between atoms: C_25  and  C_27
REMARK                            x       y       z     vdW  Elec       q    Type
REMARK                         _______ _______ _______ _____ _____    ______ ____
ROOT
ATOM      1  N   UNL     1       1.053  -0.619  -4.985  0.00  0.00    -0.307 N 
ATOM      2  C   UNL     1       1.774  -1.193  -5.969  0.00  0.00    +0.299 C 
ATOM      3  O   UNL     1       2.722  -1.899  -5.694  0.00  0.00    -0.265 OA
ATOM      4  H   UNL     1       0.296  -0.054  -5.205  0.00  0.00    +0.149 HD
ENDROOT
BRANCH   2   5
ATOM      5  C   UNL     1       1.407  -0.959  -7.396  0.00  0.00    +0.303 C 
ATOM      6  O   UNL     1       0.459  -0.252  -7.671  0.00  0.00    -0.265 OA
ATOM      7  N   UNL     1       2.128  -1.532  -8.380  0.00  0.00    -0.278 N 
ATOM      8  H   UNL     1       2.928  -2.037  -8.164  0.00  0.00    +0.155 HD
BRANCH   7   9
ATOM      9  C   UNL     1       1.725  -1.399  -9.709  0.00  0.00    +0.047 C 
ATOM     10  C   UNL     1       1.463  -2.383 -10.559  0.00  0.00    +0.034 C 
ATOM     11  N   UNL     1       1.087  -1.895 -11.800  0.00  0.00    -0.280 N 
ATOM     12  N   UNL     1       1.088  -0.529 -11.811  0.00  0.00    -0.224 NA
ATOM     13  C   UNL     1       1.494  -0.104 -10.457  0.00  0.00    +0.118 C 
ATOM     14  C   UNL     1       2.786   0.713 -10.522  0.00  0.00    +0.032 C 
ATOM     15  C   UNL     1       2.011  -0.012 -12.831  0.00  0.00    +0.128 C 
ATOM     16  C   UNL     1       1.562  -3.848 -10.217  0.00  0.00    +0.063 C 
ATOM     17  H   UNL     1       0.855  -2.450 -12.561  0.00  0.00    +0.166 HD
ENDBRANCH   7   9
ENDBRANCH   2   5
BRANCH   1  18
ATOM     18  C   UNL     1       1.414  -0.849  -3.584  0.00  0.00    +0.109 C 
BRANCH  18  19
ATOM     19  C   UNL     1       0.443  -0.089  -2.677  0.00  0.00    +0.052 C 
BRANCH  19  22
ATOM     20  C   UNL     1       0.177   1.764  -0.030  0.00  0.00    +0.035 C 
ATOM     21  C   UNL     1       0.119   0.235  -0.015  0.00  0.00    +0.103 C 
ATOM     22  C   UNL     1       0.814  -0.326  -1.236  0.00  0.00    -0.037 C 
ATOM     23  C   UNL     1       1.834  -1.083  -0.772  0.00  0.00    +0.002 A 
ATOM     24  C   UNL     1       2.865  -1.881  -1.446  0.00  0.00    +0.048 A 
ATOM     25  C   UNL     1       3.775  -2.546  -0.695  0.00  0.00    +0.124 A 
ATOM     26  C   UNL     1       3.756  -2.490   0.708  0.00  0.00    +0.040 A 
ATOM     27  C   UNL     1       2.840  -1.778   1.396  0.00  0.00    +0.029 A 
ATOM     28  C   UNL     1       1.837  -1.040   0.708  0.00  0.00    +0.043 A 
ATOM     29  N   UNL     1       0.854  -0.287   1.143  0.00  0.00    -0.378 N 
ATOM     30  F   UNL     1       4.726  -3.282  -1.312  0.00  0.00    -0.205 F 
ATOM     31  H   UNL     1       0.649  -0.104   2.073  0.00  0.00    +0.160 HD
ENDBRANCH  19  22
ENDBRANCH  18  19
ENDBRANCH   1  18
TORSDOF 5
