REMARK  Name = ZINC31175480
REMARK  6 active torsions:
REMARK  status: ('A' for Active; 'I' for Inactive)
REMARK    1  A    between atoms: C_3  and  C_25
REMARK    2  A    between atoms: C_6  and  C_7
REMARK    3  A    between atoms: C_7  and  N_8
REMARK    4  A    between atoms: N_8  and  C_9
REMARK    5  A    between atoms: C_12  and  C_14
REMARK    6  A    between atoms: C_14  and  C_15
REMARK                            x       y       z     vdW  Elec       q    Type
REMARK                         _______ _______ _______ _____ _____    ______ ____
ROOT
ATOM      1  N   UNL     1      -2.929   0.695   1.423  0.00  0.00    -0.294 N 
ATOM      2  C   UNL     1      -2.480  -0.420   2.032  0.00  0.00    +0.216 C 
ATOM      3  O   UNL     1      -1.692  -1.146   1.464  0.00  0.00    -0.276 OA
ENDROOT
BRANCH   1   4
ATOM      4  C   UNL     1      -3.795   1.628   2.148  0.00  0.00    +0.077 C 
ATOM      5  C   UNL     1      -4.321   2.844   1.383  0.00  0.00    +0.024 C 
ATOM      6  C   UNL     1      -3.238   3.021   2.449  0.00  0.00    +0.024 C 
ENDBRANCH   1   4
BRANCH   1   7
ATOM      7  C   UNL     1      -2.551   0.974   0.035  0.00  0.00    +0.143 C 
BRANCH   7  13
ATOM      8  C   UNL     1      -0.055   1.133  -0.026  0.00  0.00    +0.006 A 
ATOM      9  C   UNL     1       1.115   1.864  -0.051  0.00  0.00    +0.013 A 
ATOM     10  C   UNL     1       1.063   3.259  -0.031  0.00  0.00    +0.037 A 
ATOM     11  C   UNL     1      -0.173   3.904   0.015  0.00  0.00    +0.013 A 
ATOM     12  C   UNL     1      -1.335   3.162   0.039  0.00  0.00    +0.006 A 
ATOM     13  C   UNL     1      -1.277   1.779   0.014  0.00  0.00    -0.030 A 
BRANCH  10  14
ATOM     14  C   UNL     1       2.313   4.048  -0.058  0.00  0.00    +0.242 C 
ATOM     15  O   UNL     1       3.388   3.483  -0.098  0.00  0.00    -0.270 OA
ATOM     16  N   UNL     1       2.260   5.395  -0.038  0.00  0.00    -0.325 N 
ATOM     17  H   UNL     1       3.189   5.982  -0.058  0.00  0.00    +0.145 HD
ATOM     18  H   UNL     1       1.286   5.906  -0.002  0.00  0.00    +0.145 HD
ENDBRANCH  10  14
ENDBRANCH   7  13
ENDBRANCH   1   7
BRANCH   2  19
ATOM     19  C   UNL     1      -2.958  -0.766   3.419  0.00  0.00    +0.099 C 
BRANCH  19  20
ATOM     20  C   UNL     1      -2.210  -2.002   3.922  0.00  0.00    +0.001 C 
ATOM     21  C   UNL     1      -2.594  -3.243   3.084  0.00  0.00    +0.007 C 
ATOM     22  C   UNL     1      -3.237  -4.227   4.107  0.00  0.00    -0.010 C 
ATOM     23  C   UNL     1      -2.046  -4.703   4.993  0.00  0.00    +0.004 C 
ATOM     24  C   UNL     1      -1.662  -3.463   5.832  0.00  0.00    +0.004 C 
ATOM     25  C   UNL     1      -2.658  -2.354   5.374  0.00  0.00    -0.007 C 
ATOM     26  C   UNL     1      -3.937  -3.215   5.082  0.00  0.00    +0.007 C 
ENDBRANCH  19  20
ENDBRANCH   2  19
TORSDOF 6
