REMARK  Name = ZINC11997997
REMARK  13 active torsions:
REMARK  status: ('A' for Active; 'I' for Inactive)
REMARK    1  A    between atoms: C_1  and  C_2
REMARK    2  A    between atoms: C_2  and  C_3
REMARK    3  A    between atoms: C_6  and  C_9
REMARK    4  A    between atoms: C_9  and  C_11
REMARK    5  A    between atoms: C_9  and  N_64
REMARK    6  A    between atoms: C_11  and  N_12
REMARK    7  A    between atoms: N_12  and  S_13
REMARK    8  A    between atoms: S_13  and  C_16
REMARK    9  A    between atoms: C_19  and  N_22
REMARK   10  A    between atoms: C_25  and  C_30
REMARK   11  A    between atoms: C_25  and  C_31
REMARK   12  A    between atoms: C_32  and  N_64
REMARK   13  A    between atoms: C_33  and  N_64
REMARK                            x       y       z     vdW  Elec       q    Type
REMARK                         _______ _______ _______ _____ _____    ______ ____
ROOT
ATOM      1  S   UNL     1       3.340   3.189  -0.729  0.00  0.00    +0.058 S 
ATOM      2  O   UNL     1       3.155   4.290   0.150  0.00  0.00    -0.153 OA
ATOM      3  O   UNL     1       4.388   2.245  -0.557  0.00  0.00    -0.153 OA
ENDROOT
BRANCH   1   4
ATOM      4  C   UNL     1       1.833   2.276  -0.718  0.00  0.00    +0.105 A 
ATOM      5  C   UNL     1       1.837   0.935  -1.053  0.00  0.00    +0.030 A 
ATOM      6  C   UNL     1       0.657   0.216  -1.044  0.00  0.00    +0.027 A 
ATOM      7  C   UNL     1      -0.534   0.844  -0.704  0.00  0.00    +0.059 A 
ATOM      8  C   UNL     1      -0.533   2.190  -0.363  0.00  0.00    +0.027 A 
ATOM      9  C   UNL     1       0.650   2.903  -0.373  0.00  0.00    +0.030 A 
BRANCH   7  10
ATOM     10  N   UNL     1      -1.731   0.120  -0.700  0.00  0.00    -0.143 N 
ATOM     11  C   UNL     1      -1.989  -0.983  -1.419  0.00  0.00    +0.246 C 
ATOM     12  O   UNL     1      -1.141  -1.468  -2.138  0.00  0.00    -0.273 OA
ATOM     13  C   UNL     1      -3.348  -1.606  -1.310  0.00  0.00    +0.064 C 
ATOM     14  C   UNL     1      -4.029  -1.091  -0.014  0.00  0.00    +0.205 C 
ATOM     15  S   UNL     1      -3.098   0.481   0.198  0.00  0.00    +0.053 S 
ATOM     16  O   UNL     1      -2.649   0.628   1.538  0.00  0.00    -0.155 OA
ATOM     17  O   UNL     1      -3.738   1.547  -0.489  0.00  0.00    -0.155 OA
ATOM     18  C   UNL     1      -3.217  -3.129  -1.252  0.00  0.00    +0.022 C 
ATOM     19  C   UNL     1      -4.187  -1.207  -2.526  0.00  0.00    +0.022 C 
ENDBRANCH   7  10
ENDBRANCH   1   4
BRANCH   1  20
ATOM     20  N   UNL     1       3.518   3.822  -2.249  0.00  0.00    -0.191 NA
ATOM     21  H   UNL     1       4.253   3.533  -2.812  0.00  0.00    +0.148 HD
BRANCH  20  22
ATOM     22  C   UNL     1       2.564   4.818  -2.744  0.00  0.00    +0.095 C 
BRANCH  22  23
ATOM     23  C   UNL     1       3.165   5.544  -3.950  0.00  0.00    -0.023 C 
BRANCH  23  27
ATOM     24  C   UNL     1       6.675   7.655  -2.740  0.00  0.00    -0.048 A 
ATOM     25  C   UNL     1       6.788   6.433  -3.375  0.00  0.00    +0.004 A 
ATOM     26  C   UNL     1       5.652   5.750  -3.766  0.00  0.00    +0.002 A 
ATOM     27  C   UNL     1       4.403   6.289  -3.523  0.00  0.00    -0.060 A 
ATOM     28  C   UNL     1       4.290   7.514  -2.892  0.00  0.00    +0.002 A 
ATOM     29  C   UNL     1       5.426   8.195  -2.496  0.00  0.00    +0.004 A 
BRANCH  24  31
ATOM     30  C   UNL     1       8.371   9.320  -3.447  0.00  0.00    +0.009 C 
ATOM     31  C   UNL     1       7.914   8.401  -2.313  0.00  0.00    +0.032 C 
ENDBRANCH  24  31
ENDBRANCH  23  27
BRANCH  23  34
ATOM     32  C   UNL     1       2.712   7.186  -5.671  0.00  0.00    -0.096 C 
ATOM     33  C   UNL     1       0.913   5.823  -4.795  0.00  0.00    -0.096 C 
ATOM     34  N   UNL     1       2.177   6.514  -4.468  0.00  0.00    +0.381 N 
ATOM     35  H   UNL     1       1.994   7.221  -3.746  0.00  0.00    -0.082 HD
ENDBRANCH  23  34
ENDBRANCH  22  23
ENDBRANCH  20  22
ENDBRANCH   1  20
TORSDOF 8
