REMARK  Name = ZINC17289188
REMARK  12 active torsions:
REMARK  status: ('A' for Active; 'I' for Inactive)
REMARK    1  A    between atoms: C_1  and  C_2
REMARK    2  A    between atoms: C_2  and  C_4
REMARK    3  A    between atoms: C_2  and  N_11
REMARK    4  A    between atoms: N_11  and  C_12
REMARK    5  A    between atoms: C_12  and  C_13
REMARK    6  A    between atoms: C_19  and  C_28
REMARK    7  A    between atoms: C_20  and  C_24
REMARK    8  A    between atoms: C_24  and  O_26
REMARK    9  A    between atoms: O_26  and  C_27
REMARK   10  A    between atoms: C_28  and  C_29
REMARK   11  A    between atoms: C_29  and  O_31
REMARK   12  A    between atoms: O_31  and  C_32
REMARK                            x       y       z     vdW  Elec       q    Type
REMARK                         _______ _______ _______ _____ _____    ______ ____
ROOT
ATOM      1  C   UNL     1       2.851  -0.582   2.343  0.00  0.00    +0.094 A 
ATOM      2  N   UNL     1       4.171  -0.307   2.479  0.00  0.00    -0.312 N 
ATOM      3  H   UNL     1       4.624   0.205   1.790  0.00  0.00    +0.170 HD
ATOM      4  C   UNL     1       4.869  -0.729   3.552  0.00  0.00    +0.260 A 
ATOM      5  O   UNL     1       6.055  -0.476   3.666  0.00  0.00    -0.267 OA
ATOM      6  C   UNL     1       4.155  -1.509   4.590  0.00  0.00    +0.076 A 
ATOM      7  C   UNL     1       4.646  -2.051   5.779  0.00  0.00    -0.001 A 
ATOM      8  C   UNL     1       3.810  -2.744   6.606  0.00  0.00    +0.103 A 
ATOM      9  S   UNL     1       2.250  -2.670   5.741  0.00  0.00    -0.062 S 
ATOM     10  C   UNL     1       2.783  -1.729   4.332  0.00  0.00    +0.116 A 
ATOM     11  N   UNL     1       2.191  -1.262   3.241  0.00  0.00    -0.229 NA
ENDROOT
BRANCH   8  12
ATOM     12  C   UNL     1       4.115  -3.388   7.885  0.00  0.00    +0.346 C 
ATOM     13  O   UNL     1       5.245  -3.341   8.335  0.00  0.00    -0.244 OA
BRANCH  12  14
ATOM     14  O   UNL     1       3.145  -4.032   8.565  0.00  0.00    -0.464 OA
ATOM     15  C   UNL     1       3.514  -4.637   9.806  0.00  0.00    +0.280 C 
ENDBRANCH  12  14
ENDBRANCH   8  12
BRANCH   1  16
ATOM     16  C   UNL     1       2.122  -0.083   1.122  0.00  0.00    -0.006 C 
BRANCH  16  17
ATOM     17  N   UNL     1       0.713  -0.491   1.192  0.00  0.00    +0.388 N 
ATOM     18  H   UNL     1       0.290  -0.099   2.020  0.00  0.00    -0.084 HD
ATOM     19  H   UNL     1       0.655  -1.497   1.230  0.00  0.00    -0.084 HD
BRANCH  17  21
ATOM     20  C   UNL     1      -0.019   1.526   0.010  0.00  0.00    -0.009 C 
ATOM     21  C   UNL     1       0.002  -0.004   0.002  0.00  0.00    -0.042 C 
BRANCH  21  22
ATOM     22  C   UNL     1      -1.412  -0.526   0.013  0.00  0.00    -0.043 A 
ATOM     23  C   UNL     1      -2.015  -0.864   1.210  0.00  0.00    +0.003 A 
ATOM     24  C   UNL     1      -3.312  -1.342   1.220  0.00  0.00    +0.000 A 
ATOM     25  C   UNL     1      -4.006  -1.483   0.033  0.00  0.00    +0.001 A 
ATOM     26  C   UNL     1      -3.404  -1.145  -1.165  0.00  0.00    +0.020 A 
ATOM     27  C   UNL     1      -2.108  -0.661  -1.175  0.00  0.00    +0.043 A 
ATOM     28 CL   UNL     1      -1.354  -0.230  -2.678  0.00  0.00    -0.083 Cl
ENDBRANCH  21  22
ENDBRANCH  17  21
ENDBRANCH  16  17
ENDBRANCH   1  16
BRANCH   7  29
ATOM     29  C   UNL     1       6.097  -1.874   6.148  0.00  0.00    +0.157 C 
BRANCH  29  30
ATOM     30  C   UNL     1       6.259  -0.611   6.953  0.00  0.00    +0.311 C 
ATOM     31  O   UNL     1       5.296   0.075   7.202  0.00  0.00    -0.250 OA
BRANCH  30  32
ATOM     32  O   UNL     1       7.473  -0.247   7.394  0.00  0.00    -0.468 OA
ATOM     33  C   UNL     1       7.554   0.962   8.152  0.00  0.00    +0.280 C 
ENDBRANCH  30  32
ENDBRANCH  29  30
ENDBRANCH   7  29
TORSDOF 9
