REMARK  Name = ZINC36945605
REMARK  8 active torsions:
REMARK  status: ('A' for Active; 'I' for Inactive)
REMARK    1  A    between atoms: C_1  and  C_2
REMARK    2  A    between atoms: C_2  and  C_3
REMARK    3  A    between atoms: C_3  and  C_5
REMARK    4  A    between atoms: C_3  and  N_13
REMARK    5  A    between atoms: C_10  and  O_11
REMARK    6  A    between atoms: N_13  and  C_14
REMARK    7  A    between atoms: C_14  and  C_16
REMARK    8  A    between atoms: C_14  and  C_17
REMARK                            x       y       z     vdW  Elec       q    Type
REMARK                         _______ _______ _______ _____ _____    ______ ____
ROOT
ATOM      1  C   UNL     1       0.775  -0.400   1.364  0.00  0.00    -0.037 C 
ENDROOT
BRANCH   1   2
ATOM      2  C   UNL     1       1.116  -1.865   1.448  0.00  0.00    -0.019 A 
ATOM      3  C   UNL     1       0.237  -2.746   2.047  0.00  0.00    +0.020 A 
ATOM      4  C   UNL     1       0.549  -4.091   2.124  0.00  0.00    +0.018 A 
ATOM      5  C   UNL     1       1.742  -4.558   1.601  0.00  0.00    +0.019 A 
ATOM      6  C   UNL     1       2.624  -3.680   1.001  0.00  0.00    +0.047 A 
ATOM      7  C   UNL     1       2.310  -2.331   0.918  0.00  0.00    +0.119 A 
ATOM      8 BR   UNL     1      -0.656  -5.295   2.946  0.00  0.00    -0.050 Br
BRANCH   7   9
ATOM      9  O   UNL     1       3.174  -1.467   0.323  0.00  0.00    -0.507 OA
ATOM     10  H   UNL     1       3.822  -1.081   0.927  0.00  0.00    +0.292 HD
ENDBRANCH   7   9
ENDBRANCH   1   2
BRANCH   1  11
ATOM     11  N   UNL     1      -0.156  -0.051   2.445  0.00  0.00    +0.388 N 
ATOM     12  H   UNL     1      -1.032  -0.529   2.302  0.00  0.00    -0.084 HD
ATOM     13  H   UNL     1       0.238  -0.330   3.331  0.00  0.00    -0.084 HD
BRANCH  11  14
ATOM     14  C   UNL     1      -0.384   1.401   2.446  0.00  0.00    -0.042 C 
ATOM     15  C   UNL     1       0.917   2.121   2.807  0.00  0.00    -0.009 C 
BRANCH  14  16
ATOM     16  C   UNL     1      -1.445   1.742   3.460  0.00  0.00    -0.048 A 
ATOM     17  C   UNL     1      -1.663   0.907   4.540  0.00  0.00    +0.003 A 
ATOM     18  C   UNL     1      -2.636   1.220   5.470  0.00  0.00    +0.000 A 
ATOM     19  C   UNL     1      -3.392   2.368   5.321  0.00  0.00    +0.001 A 
ATOM     20  C   UNL     1      -3.175   3.203   4.241  0.00  0.00    +0.015 A 
ATOM     21  C   UNL     1      -2.197   2.893   3.313  0.00  0.00    +0.019 A 
ATOM     22 BR   UNL     1      -1.895   4.039   1.839  0.00  0.00    -0.050 Br
ENDBRANCH  14  16
ENDBRANCH  11  14
ENDBRANCH   1  11
BRANCH   1  24
ATOM     23  C   UNL     1      -1.164  -0.924  -0.122  0.00  0.00    +0.002 C 
ATOM     24  C   UNL     1       0.121  -0.104   0.013  0.00  0.00    -0.014 C 
ENDBRANCH   1  24
TORSDOF 6
