REMARK  Name = ZINC19169485
REMARK  4 active torsions:
REMARK  status: ('A' for Active; 'I' for Inactive)
REMARK    1  A    between atoms: C_1  and  O_2
REMARK    2  A    between atoms: O_2  and  C_3
REMARK    3  A    between atoms: C_6  and  C_9
REMARK    4  A    between atoms: N_17  and  C_20
REMARK                            x       y       z     vdW  Elec       q    Type
REMARK                         _______ _______ _______ _____ _____    ______ ____
ROOT
ATOM      1  C   UNL     1       2.587  -2.550   4.310  0.00  0.00    +0.117 C 
ATOM      2  C   UNL     1       3.919  -3.132   3.862  0.00  0.00    +0.126 C 
ATOM      3  C   UNL     1       3.389  -4.523   3.349  0.00  0.00    +0.173 C 
ATOM      4  C   UNL     1       4.490  -4.975   2.529  0.00  0.00    +0.246 C 
ATOM      5  O   UNL     1       4.862  -6.116   2.359  0.00  0.00    -0.273 OA
ATOM      6  N   UNL     1       5.024  -3.834   1.985  0.00  0.00    -0.209 N 
ATOM      7  C   UNL     1       4.567  -2.684   2.590  0.00  0.00    +0.233 C 
ATOM      8  O   UNL     1       4.662  -1.546   2.182  0.00  0.00    -0.274 OA
ATOM      9  N   UNL     1       2.583  -4.970   4.424  0.00  0.00    -0.227 NA
ATOM     10  N   UNL     1       1.800  -3.731   4.766  0.00  0.00    -0.231 NA
ATOM     11  C   UNL     1       0.537  -3.813   4.000  0.00  0.00    +0.104 C 
ATOM     12  C   UNL     1       0.194  -5.322   4.079  0.00  0.00    +0.034 C 
ATOM     13  C   UNL     1       1.601  -5.996   4.005  0.00  0.00    +0.104 C 
ENDROOT
BRANCH   6  14
ATOM     14  C   UNL     1       5.947  -3.836   0.929  0.00  0.00    +0.044 A 
ATOM     15  C   UNL     1       6.445  -2.636   0.439  0.00  0.00    +0.027 A 
ATOM     16  C   UNL     1       7.354  -2.640  -0.601  0.00  0.00    +0.040 A 
ATOM     17  C   UNL     1       7.770  -3.840  -1.154  0.00  0.00    +0.124 A 
ATOM     18  C   UNL     1       7.275  -5.037  -0.666  0.00  0.00    +0.040 A 
ATOM     19  C   UNL     1       6.370  -5.038   0.377  0.00  0.00    +0.027 A 
ATOM     20  F   UNL     1       8.659  -3.841  -2.171  0.00  0.00    -0.205 F 
ENDBRANCH   6  14
BRANCH   1  24
ATOM     21  C   UNL     1       0.626  -0.618   1.042  0.00  0.00    +0.120 A 
ATOM     22  C   UNL     1       0.395  -0.190   2.341  0.00  0.00    +0.046 A 
ATOM     23  C   UNL     1       1.030  -0.817   3.396  0.00  0.00    +0.009 A 
ATOM     24  C   UNL     1       1.895  -1.869   3.158  0.00  0.00    -0.028 A 
ATOM     25  C   UNL     1       2.127  -2.297   1.863  0.00  0.00    +0.009 A 
ATOM     26  C   UNL     1       1.490  -1.678   0.806  0.00  0.00    +0.046 A 
BRANCH  21  28
ATOM     27  C   UNL     1      -0.873   1.080   0.320  0.00  0.00    +0.277 C 
ATOM     28  O   UNL     1       0.002  -0.004   0.002  0.00  0.00    -0.495 OA
ENDBRANCH  21  28
ENDBRANCH   1  24
TORSDOF 3
