REMARK  Name = ZINC67633667
REMARK  10 active torsions:
REMARK  status: ('A' for Active; 'I' for Inactive)
REMARK    1  A    between atoms: C_1  and  C_2
REMARK    2  A    between atoms: C_2  and  C_4
REMARK    3  A    between atoms: C_2  and  N_17
REMARK    4  A    between atoms: C_7  and  N_10
REMARK    5  A    between atoms: N_13  and  C_16
REMARK    6  A    between atoms: N_20  and  C_21
REMARK    7  A    between atoms: C_21  and  C_22
REMARK    8  A    between atoms: C_22  and  C_23
REMARK    9  A    between atoms: C_23  and  N_24
REMARK   10  A    between atoms: N_24  and  C_25
REMARK                            x       y       z     vdW  Elec       q    Type
REMARK                         _______ _______ _______ _____ _____    ______ ____
ROOT
ATOM      1  N   UNL     1       0.697  -0.463  -1.203  0.00  0.00    -0.293 N 
ATOM      2  C   UNL     1       0.021  -0.595  -2.362  0.00  0.00    +0.300 C 
ATOM      3  O   UNL     1      -1.165  -0.332  -2.407  0.00  0.00    -0.253 OA
ATOM      4  N   UNL     1       0.660  -1.017  -3.471  0.00  0.00    -0.299 N 
ATOM      5  H   UNL     1       1.643  -0.672  -1.167  0.00  0.00    +0.151 HD
ATOM      6  H   UNL     1       1.607  -1.226  -3.435  0.00  0.00    +0.150 HD
ENDROOT
BRANCH   1   8
ATOM      7  C   UNL     1      -0.033   1.525   0.019  0.00  0.00    +0.033 C 
ATOM      8  C   UNL     1       0.002  -0.004   0.002  0.00  0.00    +0.102 C 
BRANCH   8   9
ATOM      9  C   UNL     1       0.731  -0.503   1.223  0.00  0.00    -0.027 A 
ATOM     10  C   UNL     1       2.114  -0.500   1.250  0.00  0.00    +0.007 A 
ATOM     11  C   UNL     1       2.785  -0.957   2.368  0.00  0.00    +0.023 A 
ATOM     12  C   UNL     1       2.069  -1.420   3.465  0.00  0.00    +0.030 A 
ATOM     13  C   UNL     1       0.680  -1.422   3.434  0.00  0.00    +0.023 A 
ATOM     14  C   UNL     1       0.016  -0.958   2.315  0.00  0.00    +0.007 A 
BRANCH  12  15
ATOM     15  N   UNL     1       2.745  -1.883   4.596  0.00  0.00    -0.333 N 
ATOM     16  C   UNL     1       2.010  -2.267   5.811  0.00  0.00    +0.086 C 
ATOM     17  C   UNL     1       2.485  -3.657   6.247  0.00  0.00    -0.060 C 
ATOM     18  N   UNL     1       3.946  -3.649   6.399  0.00  0.00    +0.380 N 
ATOM     19  C   UNL     1       4.582  -3.404   5.099  0.00  0.00    -0.060 C 
ATOM     20  C   UNL     1       4.211  -2.006   4.604  0.00  0.00    +0.086 C 
ATOM     21  C   UNL     1       4.389  -4.948   6.922  0.00  0.00    -0.096 C 
ATOM     22  H   UNL     1       4.211  -2.921   7.045  0.00  0.00    -0.082 HD
ENDBRANCH  12  15
ENDBRANCH   8   9
ENDBRANCH   1   8
BRANCH   4  23
ATOM     23  C   UNL     1      -0.074  -1.160  -4.730  0.00  0.00    +0.107 C 
BRANCH  23  24
ATOM     24  C   UNL     1       0.878  -1.650  -5.823  0.00  0.00    +0.037 C 
BRANCH  24  25
ATOM     25  C   UNL     1       0.111  -1.799  -7.138  0.00  0.00    +0.103 C 
BRANCH  25  26
ATOM     26  N   UNL     1       1.022  -2.269  -8.185  0.00  0.00    -0.344 N 
ATOM     27  H   UNL     1       1.956  -2.432  -7.977  0.00  0.00    +0.146 HD
BRANCH  26  28
ATOM     28  C   UNL     1       0.547  -2.481  -9.481  0.00  0.00    +0.027 A 
ATOM     29  C   UNL     1      -0.788  -2.241  -9.781  0.00  0.00    +0.023 A 
ATOM     30  C   UNL     1      -1.254  -2.451 -11.064  0.00  0.00    +0.002 A 
ATOM     31  C   UNL     1      -0.393  -2.900 -12.049  0.00  0.00    +0.000 A 
ATOM     32  C   UNL     1       0.936  -3.139 -11.754  0.00  0.00    +0.002 A 
ATOM     33  C   UNL     1       1.410  -2.926 -10.475  0.00  0.00    +0.023 A 
ENDBRANCH  26  28
ENDBRANCH  25  26
ENDBRANCH  24  25
ENDBRANCH  23  24
ENDBRANCH   4  23
TORSDOF 8
