REMARK  Name = ZINC65244537
REMARK  8 active torsions:
REMARK  status: ('A' for Active; 'I' for Inactive)
REMARK    1  A    between atoms: C_3  and  C_22
REMARK    2  A    between atoms: N_5  and  C_7
REMARK    3  A    between atoms: C_7  and  C_8
REMARK    4  A    between atoms: N_10  and  C_11
REMARK    5  A    between atoms: C_11  and  C_12
REMARK    6  A    between atoms: N_15  and  C_17
REMARK    7  A    between atoms: C_17  and  C_18
REMARK    8  A    between atoms: N_24  and  C_25
REMARK                            x       y       z     vdW  Elec       q    Type
REMARK                         _______ _______ _______ _____ _____    ______ ____
ROOT
ATOM      1  C   UNL     1      -0.793  -2.398  -1.389  0.00  0.00    +0.196 C 
ATOM      2  O   UNL     1      -1.683  -1.576  -1.449  0.00  0.00    -0.278 OA
ATOM      3  N   UNL     1      -1.084  -3.712  -1.450  0.00  0.00    -0.317 N 
ATOM      4  H   UNL     1      -0.372  -4.369  -1.402  0.00  0.00    +0.149 HD
ENDROOT
BRANCH   1   5
ATOM      5  C   UNL     1       0.638  -1.949  -1.247  0.00  0.00    +0.019 C 
BRANCH   5  10
ATOM      6  C   UNL     1      -0.019   1.526   0.010  0.00  0.00    -0.018 C 
ATOM      7  C   UNL     1       1.420   2.051  -0.001  0.00  0.00    +0.009 C 
ATOM      8  C   UNL     1       2.149   1.487  -1.223  0.00  0.00    +0.058 C 
ATOM      9  C   UNL     1       2.090  -0.042  -1.186  0.00  0.00    -0.065 C 
ATOM     10  N   UNL     1       0.689  -0.481  -1.204  0.00  0.00    +0.386 N 
ATOM     11  C   UNL     1       0.002  -0.004   0.002  0.00  0.00    -0.078 C 
ATOM     12  H   UNL     1       0.231  -0.107  -2.021  0.00  0.00    -0.081 HD
BRANCH   8  13
ATOM     13  C   UNL     1       3.588   1.935  -1.202  0.00  0.00    +0.215 C 
ATOM     14  O   UNL     1       4.479   1.113  -1.165  0.00  0.00    -0.276 OA
ATOM     15  N   UNL     1       3.885   3.249  -1.224  0.00  0.00    -0.312 N 
ATOM     16  H   UNL     1       3.172   3.907  -1.254  0.00  0.00    +0.149 HD
BRANCH  15  17
ATOM     17  C   UNL     1       5.283   3.685  -1.204  0.00  0.00    +0.073 C 
ATOM     18  C   UNL     1       5.646   4.853  -0.285  0.00  0.00    +0.024 C 
ATOM     19  C   UNL     1       5.605   5.057  -1.800  0.00  0.00    +0.024 C 
ENDBRANCH  15  17
ENDBRANCH   8  13
ENDBRANCH   5  10
ENDBRANCH   1   5
BRANCH   3  20
ATOM     20  C   UNL     1      -2.476  -4.149  -1.588  0.00  0.00    +0.105 C 
BRANCH  20  21
ATOM     21  C   UNL     1      -2.529  -5.677  -1.633  0.00  0.00    -0.012 C 
ATOM     22  C   UNL     1      -2.215  -6.276  -0.242  0.00  0.00    -0.016 C 
ATOM     23  C   UNL     1      -3.187  -7.461  -0.086  0.00  0.00    -0.078 C 
ATOM     24  N   UNL     1      -3.978  -7.540  -1.333  0.00  0.00    +0.386 N 
ATOM     25  C   UNL     1      -3.973  -6.168  -1.904  0.00  0.00    -0.074 C 
ATOM     26  H   UNL     1      -3.549  -8.186  -1.978  0.00  0.00    -0.081 HD
BRANCH  24  27
ATOM     27  C   UNL     1      -5.354  -7.958  -1.034  0.00  0.00    +0.036 C 
BRANCH  27  28
ATOM     28  C   UNL     1      -5.348  -9.397  -0.514  0.00  0.00    +0.376 C 
ATOM     29  F   UNL     1      -4.576  -9.468   0.651  0.00  0.00    -0.173 F 
ATOM     30  F   UNL     1      -6.659  -9.795  -0.229  0.00  0.00    -0.173 F 
ATOM     31  F   UNL     1      -4.804 -10.242  -1.486  0.00  0.00    -0.173 F 
ENDBRANCH  27  28
ENDBRANCH  24  27
ENDBRANCH  20  21
ENDBRANCH   3  20
TORSDOF 8
