REMARK  Name = ZINC48026935
REMARK  8 active torsions:
REMARK  status: ('A' for Active; 'I' for Inactive)
REMARK    1  A    between atoms: C_1  and  C_2
REMARK    2  A    between atoms: C_5  and  C_8
REMARK    3  A    between atoms: C_8  and  C_10
REMARK    4  A    between atoms: C_8  and  N_13
REMARK    5  A    between atoms: C_14  and  C_16
REMARK    6  A    between atoms: C_16  and  N_17
REMARK    7  A    between atoms: C_20  and  C_23
REMARK    8  A    between atoms: C_23  and  C_24
REMARK                            x       y       z     vdW  Elec       q    Type
REMARK                         _______ _______ _______ _____ _____    ______ ____
ROOT
ATOM      1  N   UNL     1      -0.816  -4.781   1.039  0.00  0.00    -0.310 N 
ATOM      2  C   UNL     1      -1.361  -6.009   0.935  0.00  0.00    +0.197 C 
ATOM      3  O   UNL     1      -1.125  -6.696  -0.037  0.00  0.00    -0.278 OA
ATOM      4  H   UNL     1      -1.004  -4.231   1.816  0.00  0.00    +0.149 HD
ENDROOT
BRANCH   1   5
ATOM      5  C   UNL     1       0.059  -4.275  -0.021  0.00  0.00    +0.106 C 
BRANCH   5  10
ATOM      6  C   UNL     1      -0.018   1.503   0.010  0.00  0.00    +0.044 C 
ATOM      7  C   UNL     1       0.002  -0.004   0.002  0.00  0.00    -0.050 A 
ATOM      8  C   UNL     1       0.006  -0.689  -1.199  0.00  0.00    +0.004 A 
ATOM      9  C   UNL     1       0.025  -2.071  -1.206  0.00  0.00    +0.006 A 
ATOM     10  C   UNL     1       0.040  -2.768  -0.013  0.00  0.00    -0.027 A 
ATOM     11  C   UNL     1       0.037  -2.084   1.188  0.00  0.00    +0.006 A 
ATOM     12  C   UNL     1       0.023  -0.702   1.195  0.00  0.00    +0.004 A 
ENDBRANCH   5  10
BRANCH   5  13
ATOM     13  C   UNL     1       1.488  -4.768   0.218  0.00  0.00    +0.014 C 
ATOM     14  C   UNL     1       2.203  -5.455  -0.947  0.00  0.00    +0.006 C 
ATOM     15  C   UNL     1       1.718  -6.281   0.246  0.00  0.00    +0.006 C 
ENDBRANCH   5  13
ENDBRANCH   1   5
BRANCH   2  16
ATOM     16  C   UNL     1      -2.261  -6.529   2.025  0.00  0.00    +0.019 C 
BRANCH  16  17
ATOM     17  N   UNL     1      -2.722  -7.880   1.677  0.00  0.00    +0.385 N 
ATOM     18  C   UNL     1      -1.573  -8.793   1.642  0.00  0.00    -0.078 C 
ATOM     19  C   UNL     1      -2.035 -10.184   1.202  0.00  0.00    -0.015 C 
ATOM     20  C   UNL     1      -3.076 -10.708   2.195  0.00  0.00    -0.006 C 
ATOM     21  C   UNL     1      -4.236  -9.711   2.279  0.00  0.00    -0.015 C 
ATOM     22  C   UNL     1      -3.692  -8.338   2.679  0.00  0.00    -0.078 C 
ATOM     23  H   UNL     1      -3.162  -7.861   0.769  0.00  0.00    -0.081 HD
BRANCH  20  24
ATOM     24  C   UNL     1      -3.602 -12.064   1.717  0.00  0.00    +0.099 C 
BRANCH  24  25
ATOM     25  C   UNL     1      -4.533 -12.635   2.755  0.00  0.00    +0.211 C 
ATOM     26  O   UNL     1      -4.755 -12.019   3.776  0.00  0.00    -0.276 OA
ATOM     27  N   UNL     1      -5.119 -13.831   2.549  0.00  0.00    -0.329 N 
ATOM     28  H   UNL     1      -4.942 -14.324   1.732  0.00  0.00    +0.145 HD
ATOM     29  H   UNL     1      -5.719 -14.199   3.216  0.00  0.00    +0.145 HD
ENDBRANCH  24  25
ENDBRANCH  20  24
ENDBRANCH  16  17
ENDBRANCH   2  16
TORSDOF 7
