REMARK  Name = ZINC08752996
REMARK  5 active torsions:
REMARK  status: ('A' for Active; 'I' for Inactive)
REMARK    1  A    between atoms: C_3  and  N_21
REMARK    2  A    between atoms: C_4  and  N_8
REMARK    3  A    between atoms: C_9  and  C_11
REMARK    4  A    between atoms: C_11  and  N_44
REMARK    5  A    between atoms: C_16  and  C_18
REMARK                            x       y       z     vdW  Elec       q    Type
REMARK                         _______ _______ _______ _____ _____    ______ ____
ROOT
ATOM      1  N   UNL     1       2.902   6.502   0.918  0.00  0.00    -0.285 N 
ATOM      2  C   UNL     1       3.779   5.489   0.776  0.00  0.00    +0.201 C 
ATOM      3  O   UNL     1       3.390   4.340   0.813  0.00  0.00    -0.278 OA
ATOM      4  H   UNL     1       3.202   7.420   0.826  0.00  0.00    +0.155 HD
ENDROOT
BRANCH   1   8
ATOM      5  C   UNL     1      -1.104   5.691   1.752  0.00  0.00    +0.022 A 
ATOM      6  C   UNL     1      -0.762   6.865   1.108  0.00  0.00    +0.031 A 
ATOM      7  C   UNL     1       0.568   7.139   0.826  0.00  0.00    +0.088 A 
ATOM      8  C   UNL     1       1.558   6.231   1.200  0.00  0.00    +0.060 A 
ATOM      9  C   UNL     1       1.207   5.057   1.851  0.00  0.00    +0.045 A 
ATOM     10  C   UNL     1      -0.122   4.792   2.128  0.00  0.00    +0.043 A 
ATOM     11 CL   UNL     1      -0.559   3.322   2.943  0.00  0.00    -0.083 Cl
BRANCH   7  12
ATOM     12  N   UNL     1       0.917   8.328   0.168  0.00  0.00    -0.218 N 
ATOM     13  C   UNL     1       0.093   9.344  -0.153  0.00  0.00    +0.225 A 
ATOM     14  N   UNL     1       0.802  10.264  -0.757  0.00  0.00    -0.222 NA
ATOM     15  C   UNL     1       2.073   9.874  -0.840  0.00  0.00    +0.245 A 
ATOM     16  N   UNL     1       2.195   8.697  -0.283  0.00  0.00    -0.153 NA
ENDBRANCH   7  12
ENDBRANCH   1   8
BRANCH   2  17
ATOM     17  C   UNL     1       5.243   5.782   0.570  0.00  0.00    +0.020 C 
BRANCH  17  23
ATOM     18  C   UNL     1       6.060   3.823   1.734  0.00  0.00    -0.077 C 
ATOM     19  C   UNL     1       6.706   2.450   1.536  0.00  0.00    -0.019 C 
ATOM     20  C   UNL     1       8.108   2.631   0.947  0.00  0.00    -0.003 C 
ATOM     21  C   UNL     1       8.003   3.400  -0.372  0.00  0.00    -0.006 C 
ATOM     22  C   UNL     1       7.319   4.746  -0.119  0.00  0.00    +0.020 C 
ATOM     23  N   UNL     1       5.966   4.502   0.424  0.00  0.00    +0.393 N 
ATOM     24  H   UNL     1       5.449   3.899  -0.227  0.00  0.00    -0.080 HD
BRANCH  22  25
ATOM     25  C   UNL     1       7.196   5.498  -1.419  0.00  0.00    +0.197 C 
ATOM     26  O   UNL     1       6.150   5.483  -2.032  0.00  0.00    -0.278 OA
ATOM     27  N   UNL     1       8.249   6.189  -1.900  0.00  0.00    -0.331 N 
ATOM     28  H   UNL     1       9.086   6.201  -1.410  0.00  0.00    +0.145 HD
ATOM     29  H   UNL     1       8.170   6.673  -2.737  0.00  0.00    +0.145 HD
ENDBRANCH  22  25
ENDBRANCH  17  23
ENDBRANCH   2  17
TORSDOF 5
