REMARK  Name = ZINC43657471
REMARK  13 active torsions:
REMARK  status: ('A' for Active; 'I' for Inactive)
REMARK    1  A    between atoms: C_1  and  C_2
REMARK    2  A    between atoms: C_2  and  N_3
REMARK    3  A    between atoms: N_3  and  C_4
REMARK    4  A    between atoms: N_3  and  C_6
REMARK    5  A    between atoms: C_4  and  C_5
REMARK    6  A    between atoms: C_6  and  C_8
REMARK    7  A    between atoms: C_6  and  C_9
REMARK    8  A    between atoms: C_9  and  N_10
REMARK    9  A    between atoms: N_13  and  C_14
REMARK   10  A    between atoms: C_17  and  C_20
REMARK   11  A    between atoms: N_22  and  C_23
REMARK   12  A    between atoms: C_28  and  O_29
REMARK   13  A    between atoms: O_29  and  C_30
REMARK                            x       y       z     vdW  Elec       q    Type
REMARK                         _______ _______ _______ _____ _____    ______ ____
ROOT
ATOM      1  C   UNL     1      -3.719  -1.841   3.041  0.00  0.00    +0.035 A 
ATOM      2  C   UNL     1      -4.066  -3.187   3.104  0.00  0.00    +0.024 A 
ATOM      3  C   UNL     1      -5.176  -3.580   3.818  0.00  0.00    +0.015 A 
ATOM      4  C   UNL     1      -5.954  -2.626   4.479  0.00  0.00    +0.037 A 
ATOM      5  C   UNL     1      -5.602  -1.274   4.413  0.00  0.00    +0.015 A 
ATOM      6  C   UNL     1      -4.488  -0.889   3.703  0.00  0.00    +0.024 A 
ENDROOT
BRANCH   1  10
ATOM      7  N   UNL     1      -1.115  -1.785   0.543  0.00  0.00    -0.301 N 
ATOM      8  C   UNL     1      -2.256  -2.099   1.188  0.00  0.00    +0.304 C 
ATOM      9  O   UNL     1      -2.981  -2.972   0.750  0.00  0.00    -0.253 OA
ATOM     10  N   UNL     1      -2.595  -1.446   2.317  0.00  0.00    -0.269 N 
ATOM     11  H   UNL     1      -0.537  -1.089   0.893  0.00  0.00    +0.150 HD
ATOM     12  H   UNL     1      -2.055  -0.701   2.626  0.00  0.00    +0.156 HD
BRANCH   7  13
ATOM     13  C   UNL     1      -0.748  -2.495  -0.684  0.00  0.00    +0.090 C 
BRANCH  13  14
ATOM     14  C   UNL     1       0.636  -2.034  -1.145  0.00  0.00    -0.054 C 
ATOM     15  C   UNL     1       1.004  -2.747  -2.449  0.00  0.00    -0.012 C 
BRANCH  14  16
ATOM     16  N   UNL     1       0.620  -0.582  -1.369  0.00  0.00    +0.382 N 
ATOM     17  H   UNL     1       0.304  -0.117  -0.531  0.00  0.00    -0.081 HD
BRANCH  16  19
ATOM     18  C   UNL     1       2.900  -0.351  -0.507  0.00  0.00    -0.017 C 
ATOM     19  C   UNL     1       1.974  -0.123  -1.703  0.00  0.00    -0.082 C 
ENDBRANCH  16  19
BRANCH  16  20
ATOM     20  C   UNL     1      -0.292  -0.268  -2.477  0.00  0.00    -0.082 C 
ATOM     21  C   UNL     1      -0.399   1.250  -2.635  0.00  0.00    -0.017 C 
ENDBRANCH  16  20
ENDBRANCH  14  16
ENDBRANCH  13  14
ENDBRANCH   7  13
ENDBRANCH   1  10
BRANCH   4  22
ATOM     22  C   UNL     1      -7.144  -3.043   5.245  0.00  0.00    +0.248 C 
ATOM     23  O   UNL     1      -7.449  -4.219   5.301  0.00  0.00    -0.270 OA
ATOM     24  N   UNL     1      -7.893  -2.122   5.882  0.00  0.00    -0.279 N 
ATOM     25  H   UNL     1      -7.691  -1.179   5.781  0.00  0.00    +0.155 HD
BRANCH  24  26
ATOM     26  C   UNL     1      -8.964  -2.526   6.689  0.00  0.00    +0.076 A 
ATOM     27  C   UNL     1      -8.890  -3.717   7.397  0.00  0.00    +0.027 A 
ATOM     28  C   UNL     1      -9.948  -4.114   8.193  0.00  0.00    +0.002 A 
ATOM     29  C   UNL     1     -11.081  -3.326   8.287  0.00  0.00    +0.004 A 
ATOM     30  C   UNL     1     -11.161  -2.138   7.585  0.00  0.00    +0.047 A 
ATOM     31  C   UNL     1     -10.103  -1.731   6.788  0.00  0.00    +0.141 A 
BRANCH  31  32
ATOM     32  O   UNL     1     -10.179  -0.559   6.101  0.00  0.00    -0.493 OA
ATOM     33  C   UNL     1     -11.377   0.204   6.251  0.00  0.00    +0.277 C 
ENDBRANCH  31  32
ENDBRANCH  24  26
ENDBRANCH   4  22
TORSDOF 9
