REMARK  Name = ZINC63659204
REMARK  12 active torsions:
REMARK  status: ('A' for Active; 'I' for Inactive)
REMARK    1  A    between atoms: C_1  and  C_2
REMARK    2  A    between atoms: C_7  and  C_32
REMARK    3  A    between atoms: C_9  and  C_12
REMARK    4  A    between atoms: C_12  and  C_13
REMARK    5  A    between atoms: C_13  and  N_14
REMARK    6  A    between atoms: N_14  and  C_15
REMARK    7  A    between atoms: N_14  and  C_21
REMARK    8  A    between atoms: C_15  and  C_16
REMARK    9  A    between atoms: C_21  and  N_23
REMARK   10  A    between atoms: N_23  and  C_24
REMARK   11  A    between atoms: C_29  and  O_30
REMARK   12  A    between atoms: O_30  and  C_31
REMARK                            x       y       z     vdW  Elec       q    Type
REMARK                         _______ _______ _______ _____ _____    ______ ____
ROOT
ATOM      1  N   UNL     1       0.025  -1.409   5.427  0.00  0.00    -0.305 N 
ENDROOT
BRANCH   1   2
ATOM      2  C   UNL     1      -1.123  -1.306   6.127  0.00  0.00    +0.138 C 
ATOM      3  S   UNL     1      -2.577  -1.940   5.485  0.00  0.00    -0.018 S 
BRANCH   2   4
ATOM      4  N   UNL     1      -1.124  -0.702   7.332  0.00  0.00    -0.294 N 
ATOM      5  H   UNL     1      -0.289  -0.413   7.731  0.00  0.00    +0.154 HD
BRANCH   4   6
ATOM      6  C   UNL     1      -2.333  -0.492   8.008  0.00  0.00    +0.075 A 
ATOM      7  C   UNL     1      -3.440  -0.013   7.322  0.00  0.00    +0.027 A 
ATOM      8  C   UNL     1      -4.631   0.193   7.992  0.00  0.00    +0.002 A 
ATOM      9  C   UNL     1      -4.724  -0.077   9.345  0.00  0.00    +0.004 A 
ATOM     10  C   UNL     1      -3.626  -0.555  10.035  0.00  0.00    +0.047 A 
ATOM     11  C   UNL     1      -2.429  -0.769   9.370  0.00  0.00    +0.141 A 
BRANCH  11  12
ATOM     12  O   UNL     1      -1.349  -1.244  10.046  0.00  0.00    -0.493 OA
ATOM     13  C   UNL     1      -1.521  -1.506  11.441  0.00  0.00    +0.277 C 
ENDBRANCH  11  12
ENDBRANCH   4   6
ENDBRANCH   2   4
ENDBRANCH   1   2
BRANCH   1  14
ATOM     14  C   UNL     1       0.027  -2.065   4.117  0.00  0.00    +0.111 C 
BRANCH  14  15
ATOM     15  C   UNL     1       0.300  -3.560   4.296  0.00  0.00    +0.052 C 
BRANCH  15  23
ATOM     16  C   UNL     1      -0.621  -0.557  -0.376  0.00  0.00    +0.044 C 
ATOM     17  C   UNL     1      -0.339  -1.979   0.036  0.00  0.00    -0.050 A 
ATOM     18  C   UNL     1      -0.252  -2.971  -0.951  0.00  0.00    +0.005 A 
ATOM     19  C   UNL     1      -0.002  -4.266  -0.663  0.00  0.00    +0.026 A 
ATOM     20  C   UNL     1       0.185  -4.679   0.685  0.00  0.00    +0.043 A 
ATOM     21  N   UNL     1       0.433  -5.854   1.211  0.00  0.00    -0.378 N 
ATOM     22  C   UNL     1       0.532  -5.703   2.667  0.00  0.00    +0.103 C 
ATOM     23  C   UNL     1       0.302  -4.235   2.948  0.00  0.00    -0.037 C 
ATOM     24  C   UNL     1       0.098  -3.650   1.746  0.00  0.00    -0.001 A 
ATOM     25  C   UNL     1      -0.171  -2.264   1.347  0.00  0.00    +0.013 A 
ATOM     26  C   UNL     1       1.923  -6.122   3.148  0.00  0.00    +0.035 C 
ATOM     27  H   UNL     1       0.535  -6.684   0.720  0.00  0.00    +0.160 HD
ENDBRANCH  15  23
ENDBRANCH  14  15
ENDBRANCH   1  14
BRANCH   1  28
ATOM     28  C   UNL     1       1.269  -0.866   5.976  0.00  0.00    +0.181 C 
BRANCH  28  29
ATOM     29  C   UNL     1       1.427   0.568   5.539  0.00  0.00    +0.122 A 
ATOM     30  C   UNL     1       0.978   1.647   6.204  0.00  0.00    +0.046 A 
ATOM     31  C   UNL     1       1.342   2.780   5.441  0.00  0.00    +0.041 A 
ATOM     32  C   UNL     1       1.993   2.325   4.355  0.00  0.00    +0.195 A 
ATOM     33  O   UNL     1       2.046   0.985   4.423  0.00  0.00    -0.466 OA
ENDBRANCH  28  29
ENDBRANCH   1  28
TORSDOF 9
