REMARK  Name = ZINC67380971
REMARK  9 active torsions:
REMARK  status: ('A' for Active; 'I' for Inactive)
REMARK    1  A    between atoms: C_1  and  C_2
REMARK    2  A    between atoms: C_2  and  C_27
REMARK    3  A    between atoms: C_4  and  N_10
REMARK    4  A    between atoms: C_6  and  C_8
REMARK    5  A    between atoms: C_6  and  C_9
REMARK    6  A    between atoms: N_13  and  C_14
REMARK    7  A    between atoms: C_14  and  C_15
REMARK    8  A    between atoms: C_15  and  C_16
REMARK    9  A    between atoms: C_16  and  C_17
REMARK                            x       y       z     vdW  Elec       q    Type
REMARK                         _______ _______ _______ _____ _____    ______ ____
ROOT
ATOM      1  N   UNL     1       2.615  -0.819  -2.626  0.00  0.00    -0.297 N 
ATOM      2  C   UNL     1       3.770  -0.334  -3.123  0.00  0.00    +0.300 C 
ATOM      3  O   UNL     1       4.376   0.532  -2.522  0.00  0.00    -0.253 OA
ATOM      4  N   UNL     1       4.255  -0.809  -4.288  0.00  0.00    -0.299 N 
ATOM      5  H   UNL     1       2.133  -1.510  -3.106  0.00  0.00    +0.151 HD
ATOM      6  H   UNL     1       3.772  -1.500  -4.768  0.00  0.00    +0.150 HD
ENDROOT
BRANCH   1  10
ATOM      7  C   UNL     1      -0.019   1.528   0.010  0.00  0.00    -0.010 C 
ATOM      8  C   UNL     1       0.002  -0.004   0.002  0.00  0.00    -0.072 C 
ATOM      9  C   UNL     1       0.573  -0.505  -1.321  0.00  0.00    +0.009 C 
ATOM     10  C   UNL     1       2.088  -0.301  -1.357  0.00  0.00    +0.072 C 
ATOM     11  C   UNL     1       2.703  -1.086  -0.198  0.00  0.00    +0.009 C 
ATOM     12  C   UNL     1       2.147  -0.590   1.133  0.00  0.00    -0.072 C 
ATOM     13  N   UNL     1       0.697  -0.529   1.164  0.00  0.00    +0.386 N 
ATOM     14  C   UNL     1       2.769   0.766   1.481  0.00  0.00    -0.010 C 
ATOM     15  C   UNL     1       2.600  -1.589   2.223  0.00  0.00    -0.010 C 
ATOM     16  C   UNL     1      -1.468  -0.478   0.079  0.00  0.00    -0.010 C 
ATOM     17  H   UNL     1       0.416   0.021   1.982  0.00  0.00    -0.084 HD
ATOM     18  H   UNL     1       0.341  -1.472   1.351  0.00  0.00    -0.084 HD
ENDBRANCH   1  10
BRANCH   4  19
ATOM     19  C   UNL     1       5.510  -0.282  -4.829  0.00  0.00    +0.106 C 
BRANCH  19  20
ATOM     20  C   UNL     1       5.832  -0.986  -6.149  0.00  0.00    +0.026 C 
BRANCH  20  21
ATOM     21  C   UNL     1       7.143  -0.436  -6.714  0.00  0.00    +0.078 C 
BRANCH  21  22
ATOM     22  C   UNL     1       7.459  -1.129  -8.014  0.00  0.00    +0.134 A 
ATOM     23  N   UNL     1       8.153  -2.227  -8.160  0.00  0.00    -0.134 NA
ATOM     24  N   UNL     1       8.218  -2.537  -9.408  0.00  0.00    -0.134 NA
ATOM     25  C   UNL     1       7.567  -1.654 -10.110  0.00  0.00    +0.133 A 
ATOM     26  N   UNL     1       7.074  -0.735  -9.248  0.00  0.00    -0.315 N 
ATOM     27  C   UNL     1       6.297   0.455  -9.595  0.00  0.00    +0.125 C 
ATOM     28  C   UNL     1       5.524   0.197 -10.891  0.00  0.00    +0.022 C 
ATOM     29  C   UNL     1       6.382   0.596 -12.091  0.00  0.00    +0.002 C 
ATOM     30  C   UNL     1       7.657  -0.240 -12.137  0.00  0.00    +0.008 C 
ATOM     31  C   UNL     1       7.374  -1.643 -11.605  0.00  0.00    +0.076 C 
ENDBRANCH  21  22
ENDBRANCH  20  21
ENDBRANCH  19  20
ENDBRANCH   4  19
TORSDOF 5
