REMARK  Name = ZINC43264995
REMARK  6 active torsions:
REMARK  status: ('A' for Active; 'I' for Inactive)
REMARK    1  A    between atoms: C_4  and  N_8
REMARK    2  A    between atoms: N_11  and  C_12
REMARK    3  A    between atoms: C_12  and  C_13
REMARK    4  A    between atoms: C_13  and  C_14
REMARK    5  A    between atoms: C_17  and  S_20
REMARK    6  A    between atoms: S_20  and  N_23
REMARK                            x       y       z     vdW  Elec       q    Type
REMARK                         _______ _______ _______ _____ _____    ______ ____
ROOT
ATOM      1  N   UNL     1       3.627  -0.653  -0.036  0.00  0.00    -0.265 N 
ATOM      2  C   UNL     1       3.686  -1.941   0.355  0.00  0.00    +0.304 C 
ATOM      3  O   UNL     1       2.664  -2.538   0.636  0.00  0.00    -0.253 OA
ATOM      4  N   UNL     1       4.876  -2.567   0.437  0.00  0.00    -0.299 N 
ATOM      5  H   UNL     1       4.432  -0.198  -0.331  0.00  0.00    +0.157 HD
ATOM      6  H   UNL     1       5.691  -2.091   0.213  0.00  0.00    +0.150 HD
ENDROOT
BRANCH   1  10
ATOM      7  C   UNL     1      -0.015   1.381   0.016  0.00  0.00    +0.006 A 
ATOM      8  C   UNL     1       0.783   1.367   1.145  0.00  0.00    +0.040 A 
ATOM      9  C   UNL     1       1.991   0.693   1.132  0.00  0.00    +0.147 A 
ATOM     10  C   UNL     1       2.403   0.031  -0.019  0.00  0.00    +0.106 A 
ATOM     11  C   UNL     1       1.598   0.047  -1.151  0.00  0.00    +0.147 A 
ATOM     12  C   UNL     1       0.391   0.723  -1.130  0.00  0.00    +0.040 A 
ATOM     13  F   UNL     1       1.994  -0.595  -2.272  0.00  0.00    -0.203 F 
ATOM     14  F   UNL     1       2.771   0.680   2.235  0.00  0.00    -0.203 F 
ENDBRANCH   1  10
BRANCH   4  15
ATOM     15  C   UNL     1       4.940  -3.967   0.863  0.00  0.00    +0.110 C 
BRANCH  15  16
ATOM     16  C   UNL     1       6.397  -4.433   0.869  0.00  0.00    +0.054 C 
BRANCH  16  17
ATOM     17  C   UNL     1       6.463  -5.873   1.307  0.00  0.00    -0.046 A 
ATOM     18  C   UNL     1       6.594  -6.183   2.648  0.00  0.00    +0.005 A 
ATOM     19  C   UNL     1       6.654  -7.504   3.050  0.00  0.00    +0.029 A 
ATOM     20  C   UNL     1       6.582  -8.516   2.111  0.00  0.00    +0.105 A 
ATOM     21  C   UNL     1       6.450  -8.207   0.770  0.00  0.00    +0.029 A 
ATOM     22  C   UNL     1       6.386  -6.885   0.369  0.00  0.00    +0.005 A 
BRANCH  20  23
ATOM     23  S   UNL     1       6.660 -10.200   2.623  0.00  0.00    +0.056 S 
ATOM     24  O   UNL     1       7.120 -10.944   1.503  0.00  0.00    -0.153 OA
ATOM     25  O   UNL     1       7.332 -10.213   3.875  0.00  0.00    -0.153 OA
BRANCH  23  26
ATOM     26  N   UNL     1       5.107 -10.695   2.915  0.00  0.00    -0.204 NA
ATOM     27  H   UNL     1       4.369 -10.077   2.791  0.00  0.00    +0.144 HD
ATOM     28  H   UNL     1       4.934 -11.603   3.210  0.00  0.00    +0.144 HD
ENDBRANCH  23  26
ENDBRANCH  20  23
ENDBRANCH  16  17
ENDBRANCH  15  16
ENDBRANCH   4  15
TORSDOF 6
