REMARK  Name = ZINC34721117
REMARK  17 active torsions:
REMARK  status: ('A' for Active; 'I' for Inactive)
REMARK    1  A    between atoms: C_1  and  C_2
REMARK    2  A    between atoms: C_5  and  C_12
REMARK    3  A    between atoms: C_5  and  C_30
REMARK    4  A    between atoms: C_6  and  C_11
REMARK    5  A    between atoms: N_9  and  C_10
REMARK    6  A    between atoms: C_12  and  C_13
REMARK    7  A    between atoms: C_13  and  N_14
REMARK    8  A    between atoms: N_14  and  C_15
REMARK    9  A    between atoms: N_14  and  C_19
REMARK   10  A    between atoms: C_15  and  C_16
REMARK   11  A    between atoms: C_16  and  C_17
REMARK   12  A    between atoms: C_17  and  N_18
REMARK   13  A    between atoms: C_19  and  C_20
REMARK   14  A    between atoms: C_23  and  O_28
REMARK   15  A    between atoms: C_24  and  O_26
REMARK   16  A    between atoms: O_26  and  C_27
REMARK   17  A    between atoms: O_28  and  C_29
REMARK                            x       y       z     vdW  Elec       q    Type
REMARK                         _______ _______ _______ _____ _____    ______ ____
ROOT
ATOM      1  N   UNL     1      -2.148  -3.154  -1.717  0.00  0.00    -0.298 NA
ENDROOT
BRANCH   1   2
ATOM      2  C   UNL     1      -0.756  -2.683  -1.729  0.00  0.00    +0.085 C 
BRANCH   2   3
ATOM      3  C   UNL     1      -0.016  -3.249  -0.516  0.00  0.00    +0.027 C 
BRANCH   3   7
ATOM      4  C   UNL     1       1.133   0.834   0.442  0.00  0.00    -0.013 C 
ATOM      5  C   UNL     1       1.012  -0.687   0.553  0.00  0.00    -0.071 C 
ATOM      6  C   UNL     1       1.585  -1.337  -0.708  0.00  0.00    -0.004 C 
ATOM      7  C   UNL     1       1.462  -2.859  -0.593  0.00  0.00    -0.004 C 
ATOM      8  C   UNL     1       2.181  -3.324   0.677  0.00  0.00    -0.020 C 
ATOM      9  C   UNL     1       1.587  -2.601   1.887  0.00  0.00    -0.075 C 
ATOM     10  N   UNL     1       1.760  -1.152   1.728  0.00  0.00    +0.380 N 
ATOM     11  C   UNL     1       1.259  -0.467   2.928  0.00  0.00    -0.096 C 
ATOM     12  C   UNL     1       1.999  -4.834   0.843  0.00  0.00    +0.006 C 
ATOM     13  H   UNL     1       2.739  -0.942   1.608  0.00  0.00    -0.082 HD
BRANCH   7  14
ATOM     14  C   UNL     1       2.094  -3.509  -1.797  0.00  0.00    -0.041 A 
ATOM     15  C   UNL     1       1.950  -4.868  -2.004  0.00  0.00    +0.004 A 
ATOM     16  C   UNL     1       2.529  -5.464  -3.109  0.00  0.00    +0.000 A 
ATOM     17  C   UNL     1       3.253  -4.700  -4.006  0.00  0.00    +0.000 A 
ATOM     18  C   UNL     1       3.396  -3.341  -3.799  0.00  0.00    +0.000 A 
ATOM     19  C   UNL     1       2.813  -2.744  -2.697  0.00  0.00    +0.004 A 
ENDBRANCH   7  14
ENDBRANCH   3   7
ENDBRANCH   2   3
ENDBRANCH   1   2
BRANCH   1  20
ATOM     20  C   UNL     1      -2.213  -4.609  -1.914  0.00  0.00    +0.083 C 
BRANCH  20  21
ATOM     21  C   UNL     1      -3.653  -5.086  -1.716  0.00  0.00    -0.004 C 
BRANCH  21  22
ATOM     22  C   UNL     1      -3.697  -6.614  -1.778  0.00  0.00    -0.085 C 
BRANCH  22  23
ATOM     23  N   UNL     1      -5.080  -7.072  -1.588  0.00  0.00    +0.378 N 
ATOM     24  H   UNL     1      -5.417  -6.762  -0.689  0.00  0.00    -0.090 HD
ATOM     25  H   UNL     1      -5.664  -6.689  -2.316  0.00  0.00    -0.090 HD
ATOM     26  H   UNL     1      -5.109  -8.080  -1.629  0.00  0.00    -0.090 HD
ENDBRANCH  22  23
ENDBRANCH  21  22
ENDBRANCH  20  21
ENDBRANCH   1  20
BRANCH   1  27
ATOM     27  C   UNL     1      -2.951  -2.450  -2.725  0.00  0.00    +0.119 C 
BRANCH  27  28
ATOM     28  C   UNL     1      -3.075  -0.997  -2.344  0.00  0.00    -0.030 A 
ATOM     29  C   UNL     1      -4.044  -0.602  -1.441  0.00  0.00    +0.009 A 
ATOM     30  C   UNL     1      -4.161   0.730  -1.088  0.00  0.00    +0.050 A 
ATOM     31  C   UNL     1      -3.307   1.671  -1.639  0.00  0.00    +0.162 A 
ATOM     32  C   UNL     1      -2.331   1.272  -2.548  0.00  0.00    +0.162 A 
ATOM     33  C   UNL     1      -2.215  -0.064  -2.894  0.00  0.00    +0.054 A 
BRANCH  32  34
ATOM     34  O   UNL     1      -1.490   2.192  -3.092  0.00  0.00    -0.491 OA
ATOM     35  C   UNL     1      -0.513   1.711  -4.017  0.00  0.00    +0.277 C 
ENDBRANCH  32  34
BRANCH  31  36
ATOM     36  O   UNL     1      -3.421   2.981  -1.293  0.00  0.00    -0.491 OA
ATOM     37  C   UNL     1      -4.446   3.317  -0.355  0.00  0.00    +0.277 C 
ENDBRANCH  31  36
ENDBRANCH  27  28
ENDBRANCH   1  27
TORSDOF 12
