REMARK  Name = ZINC45699846
REMARK  8 active torsions:
REMARK  status: ('A' for Active; 'I' for Inactive)
REMARK    1  A    between atoms: C_3  and  C_6
REMARK    2  A    between atoms: C_6  and  C_8
REMARK    3  A    between atoms: C_6  and  N_24
REMARK    4  A    between atoms: C_8  and  N_9
REMARK    5  A    between atoms: N_12  and  C_13
REMARK    6  A    between atoms: C_16  and  O_19
REMARK    7  A    between atoms: O_19  and  C_20
REMARK    8  A    between atoms: C_20  and  C_21
REMARK                            x       y       z     vdW  Elec       q    Type
REMARK                         _______ _______ _______ _____ _____    ______ ____
ROOT
ATOM      1  N   UNL     1       5.654   0.334  -1.263  0.00  0.00    -0.300 N 
ATOM      2  C   UNL     1       6.398   0.202  -2.379  0.00  0.00    +0.304 C 
ATOM      3  O   UNL     1       5.856   0.088  -3.461  0.00  0.00    -0.253 OA
ATOM      4  N   UNL     1       7.743   0.195  -2.295  0.00  0.00    -0.269 N 
ATOM      5  H   UNL     1       6.087   0.425  -0.399  0.00  0.00    +0.150 HD
ATOM      6  H   UNL     1       8.177   0.356  -1.443  0.00  0.00    +0.156 HD
ENDROOT
BRANCH   4   7
ATOM      7  C   UNL     1       8.515  -0.044  -3.440  0.00  0.00    +0.035 A 
ATOM      8  C   UNL     1       9.701  -0.759  -3.341  0.00  0.00    +0.027 A 
ATOM      9  C   UNL     1      10.461  -0.995  -4.470  0.00  0.00    +0.047 A 
ATOM     10  C   UNL     1      10.040  -0.517  -5.702  0.00  0.00    +0.121 A 
ATOM     11  C   UNL     1       8.856   0.198  -5.801  0.00  0.00    +0.047 A 
ATOM     12  C   UNL     1       8.092   0.429  -4.675  0.00  0.00    +0.027 A 
BRANCH  10  13
ATOM     13  O   UNL     1      10.789  -0.750  -6.813  0.00  0.00    -0.483 OA
BRANCH  13  14
ATOM     14  C   UNL     1      10.296  -0.229  -8.049  0.00  0.00    +0.324 C 
BRANCH  14  15
ATOM     15  C   UNL     1      11.251  -0.582  -9.160  0.00  0.00    +0.248 C 
ATOM     16  O   UNL     1      12.255  -1.218  -8.917  0.00  0.00    -0.272 OA
ATOM     17  N   UNL     1      10.989  -0.192 -10.423  0.00  0.00    -0.327 N 
ATOM     18  H   UNL     1      10.186   0.316 -10.617  0.00  0.00    +0.145 HD
ATOM     19  H   UNL     1      11.603  -0.420 -11.138  0.00  0.00    +0.145 HD
ENDBRANCH  14  15
ENDBRANCH  13  14
ENDBRANCH  10  13
ENDBRANCH   4   7
BRANCH   1  20
ATOM     20  C   UNL     1       4.192   0.341  -1.354  0.00  0.00    +0.098 C 
BRANCH  20  21
ATOM     21  C   UNL     1       3.597   0.631   0.026  0.00  0.00    +0.016 C 
BRANCH  21  22
ATOM     22  N   UNL     1       2.133   0.528  -0.042  0.00  0.00    +0.387 N 
ATOM     23  C   UNL     1       1.728  -0.880  -0.287  0.00  0.00    -0.078 C 
ATOM     24  C   UNL     1       0.265  -0.922   0.222  0.00  0.00    -0.020 C 
ATOM     25  C   UNL     1       0.305  -0.004   1.465  0.00  0.00    -0.020 C 
ATOM     26  C   UNL     1       1.535   0.899   1.260  0.00  0.00    -0.078 C 
ATOM     27  H   UNL     1       1.775   1.126  -0.771  0.00  0.00    -0.081 HD
ENDBRANCH  21  22
BRANCH  21  30
ATOM     28  C   UNL     1       4.988   3.741   1.429  0.00  0.00    +0.041 A 
ATOM     29  C   UNL     1       4.977   2.333   1.310  0.00  0.00    +0.043 A 
ATOM     30  C   UNL     1       3.984   2.022   0.458  0.00  0.00    +0.093 A 
ATOM     31  O   UNL     1       3.396   3.161   0.057  0.00  0.00    -0.469 OA
ATOM     32  C   UNL     1       4.001   4.207   0.643  0.00  0.00    +0.195 A 
ENDBRANCH  21  30
ENDBRANCH  20  21
ENDBRANCH   1  20
TORSDOF 8
