REMARK  Name = ZINC39631273
REMARK  13 active torsions:
REMARK  status: ('A' for Active; 'I' for Inactive)
REMARK    1  A    between atoms: C_1  and  C_2
REMARK    2  A    between atoms: C_2  and  C_4
REMARK    3  A    between atoms: C_2  and  N_11
REMARK    4  A    between atoms: C_4  and  C_5
REMARK    5  A    between atoms: C_5  and  C_6
REMARK    6  A    between atoms: C_6  and  C_7
REMARK    7  A    between atoms: C_7  and  C_8
REMARK    8  A    between atoms: C_7  and  C_9
REMARK    9  A    between atoms: C_7  and  O_10
REMARK   10  A    between atoms: C_12  and  C_14
REMARK   11  A    between atoms: C_25  and  C_27
REMARK   12  A    between atoms: C_27  and  C_28
REMARK   13  A    between atoms: C_28  and  C_29
REMARK                            x       y       z     vdW  Elec       q    Type
REMARK                         _______ _______ _______ _____ _____    ______ ____
ROOT
ATOM      1  C   UNL     1       0.780  -1.133   3.576  0.00  0.00    +0.100 C 
ATOM      2  C   UNL     1       1.189  -2.611   3.392  0.00  0.00    +0.121 C 
ATOM      3  N   UNL     1       1.007  -3.220   4.731  0.00  0.00    -0.300 N 
ATOM      4  C   UNL     1      -0.236  -2.602   5.251  0.00  0.00    +0.115 C 
ATOM      5  C   UNL     1      -0.156  -1.131   4.797  0.00  0.00    -0.004 C 
ATOM      6  C   UNL     1      -1.540  -0.625   4.401  0.00  0.00    -0.010 C 
ATOM      7  C   UNL     1      -2.435  -0.577   5.642  0.00  0.00    -0.082 C 
ATOM      8  N   UNL     1      -1.836   0.311   6.646  0.00  0.00    +0.379 N 
ATOM      9  C   UNL     1      -0.547  -0.233   7.089  0.00  0.00    -0.082 C 
ATOM     10  C   UNL     1       0.428  -0.266   5.909  0.00  0.00    -0.010 C 
ATOM     11  C   UNL     1       1.794  -4.129   5.338  0.00  0.00    +0.216 C 
ATOM     12  O   UNL     1       1.510  -4.535   6.445  0.00  0.00    -0.276 OA
ATOM     13  H   UNL     1      -1.694   1.224   6.242  0.00  0.00    -0.086 HD
ATOM     14  H   UNL     1      -2.457   0.389   7.437  0.00  0.00    -0.086 HD
ENDROOT
BRANCH   1  16
ATOM     15  N   UNL     1       0.108   0.671   2.023  0.00  0.00    -0.312 N 
ATOM     16  C   UNL     1       0.051  -0.633   2.355  0.00  0.00    +0.218 C 
ATOM     17  O   UNL     1      -0.587  -1.406   1.672  0.00  0.00    -0.275 OA
ATOM     18  H   UNL     1       0.619   1.289   2.570  0.00  0.00    +0.149 HD
BRANCH  15  20
ATOM     19  C   UNL     1      -2.054   1.464   1.200  0.00  0.00    +0.028 C 
ATOM     20  C   UNL     1      -0.600   1.157   0.836  0.00  0.00    +0.070 C 
BRANCH  20  21
ATOM     21  C   UNL     1       0.077   2.429   0.323  0.00  0.00    +0.022 C 
BRANCH  21  22
ATOM     22  C   UNL     1       1.491   2.096  -0.158  0.00  0.00    +0.005 C 
BRANCH  22  23
ATOM     23  C   UNL     1       2.168   3.368  -0.671  0.00  0.00    +0.034 C 
BRANCH  23  24
ATOM     24  C   UNL     1       3.582   3.035  -1.152  0.00  0.00    +0.061 C 
ATOM     25  C   UNL     1       4.303   4.325  -1.549  0.00  0.00    +0.041 C 
ATOM     26  C   UNL     1       4.354   2.345  -0.026  0.00  0.00    +0.041 C 
BRANCH  24  27
ATOM     27  O   UNL     1       3.508   2.164  -2.282  0.00  0.00    -0.389 OA
ATOM     28  H   UNL     1       3.031   2.537  -3.036  0.00  0.00    +0.210 HD
ENDBRANCH  24  27
ENDBRANCH  23  24
ENDBRANCH  22  23
ENDBRANCH  21  22
ENDBRANCH  20  21
ENDBRANCH  15  20
ENDBRANCH   1  16
BRANCH  11  29
ATOM     29  C   UNL     1       3.029  -4.642   4.643  0.00  0.00    +0.100 C 
BRANCH  29  30
ATOM     30  C   UNL     1       3.738  -5.656   5.543  0.00  0.00    +0.044 C 
BRANCH  30  31
ATOM     31  C   UNL     1       4.972  -6.169   4.847  0.00  0.00    -0.047 A 
ATOM     32  C   UNL     1       4.895  -7.284   4.034  0.00  0.00    +0.003 A 
ATOM     33  C   UNL     1       6.027  -7.755   3.396  0.00  0.00    +0.000 A 
ATOM     34  C   UNL     1       7.237  -7.109   3.571  0.00  0.00    +0.000 A 
ATOM     35  C   UNL     1       7.314  -5.993   4.383  0.00  0.00    +0.000 A 
ATOM     36  C   UNL     1       6.181  -5.521   5.018  0.00  0.00    +0.003 A 
ENDBRANCH  30  31
ENDBRANCH  29  30
ENDBRANCH  11  29
TORSDOF 10
