REMARK  Name = ZINC12296263
REMARK  11 active torsions:
REMARK  status: ('A' for Active; 'I' for Inactive)
REMARK    1  A    between atoms: C_1  and  C_2
REMARK    2  A    between atoms: C_13  and  O_15
REMARK    3  A    between atoms: N_21  and  O_22
REMARK    4  A    between atoms: O_22  and  C_23
REMARK    5  A    between atoms: C_23  and  C_24
REMARK    6  A    between atoms: N_26  and  C_27
REMARK    7  A    between atoms: C_27  and  C_28
REMARK    8  A    between atoms: C_28  and  C_29
REMARK    9  A    between atoms: C_32  and  O_36
REMARK   10  A    between atoms: C_33  and  O_35
REMARK   11  A    between atoms: C_39  and  C_40
REMARK                            x       y       z     vdW  Elec       q    Type
REMARK                         _______ _______ _______ _____ _____    ______ ____
ROOT
ATOM      1  C   UNL     1       0.113   3.930   0.806  0.00  0.00    +0.014 C 
ATOM      2  C   UNL     1      -1.141   3.055   0.764  0.00  0.00    -0.003 C 
ATOM      3  C   UNL     1      -2.175   3.592   1.735  0.00  0.00    +0.010 C 
ATOM      4  C   UNL     1      -1.496   3.690   3.110  0.00  0.00    +0.005 C 
ATOM      5  C   UNL     1      -0.945   2.342   3.565  0.00  0.00    +0.002 C 
ATOM      6  C   UNL     1      -0.003   1.728   2.519  0.00  0.00    -0.003 C 
ATOM      7  C   UNL     1      -0.792   1.611   1.219  0.00  0.00    +0.001 C 
ATOM      8  C   UNL     1      -0.013   1.086   0.008  0.00  0.00    +0.007 C 
ATOM      9  C   UNL     1      -0.826   1.631  -1.198  0.00  0.00    +0.032 C 
ATOM     10  C   UNL     1      -1.595   2.872  -0.681  0.00  0.00    +0.121 C 
ATOM     11  C   UNL     1       0.410   0.327   2.981  0.00  0.00    +0.008 C 
ATOM     12  C   UNL     1       1.255   0.458   4.250  0.00  0.00    +0.031 C 
ATOM     13  C   UNL     1       0.464   1.238   5.285  0.00  0.00    -0.062 C 
ATOM     14  C   UNL     1       0.396   0.740   6.514  0.00  0.00    +0.026 C 
ATOM     15  C   UNL     1      -0.324   1.475   7.568  0.00  0.00    +0.080 C 
ATOM     16  N   UNL     1      -0.754   0.886   8.639  0.00  0.00    -0.089 NA
ATOM     17  C   UNL     1      -0.535   2.959   7.335  0.00  0.00    +0.059 C 
ATOM     18  C   UNL     1      -1.099   3.122   5.923  0.00  0.00    +0.017 C 
ATOM     19  C   UNL     1      -0.173   2.530   4.877  0.00  0.00    -0.007 C 
ATOM     20  C   UNL     1       0.953   3.534   4.620  0.00  0.00    +0.016 C 
ENDROOT
BRANCH  10  21
ATOM     21  O   UNL     1      -1.256   4.023  -1.458  0.00  0.00    -0.391 OA
ATOM     22  H   UNL     1      -1.485   3.947  -2.394  0.00  0.00    +0.210 HD
ENDBRANCH  10  21
BRANCH  16  23
ATOM     23  O   UNL     1      -0.537  -0.501   8.819  0.00  0.00    -0.384 OA
BRANCH  23  24
ATOM     24  C   UNL     1      -1.063  -1.018  10.043  0.00  0.00    +0.358 C 
BRANCH  24  25
ATOM     25  C   UNL     1      -0.777  -2.495  10.129  0.00  0.00    +0.253 C 
ATOM     26  O   UNL     1      -0.180  -3.051   9.231  0.00  0.00    -0.272 OA
ATOM     27  N   UNL     1      -1.183  -3.199  11.204  0.00  0.00    -0.312 N 
ATOM     28  H   UNL     1      -1.661  -2.755  11.922  0.00  0.00    +0.149 HD
BRANCH  27  29
ATOM     29  C   UNL     1      -0.904  -4.635  11.288  0.00  0.00    +0.109 C 
BRANCH  29  30
ATOM     30  C   UNL     1      -1.468  -5.188  12.598  0.00  0.00    +0.054 C 
BRANCH  30  31
ATOM     31  C   UNL     1      -1.181  -6.665  12.684  0.00  0.00    -0.042 A 
ATOM     32  C   UNL     1      -0.010  -7.107  13.271  0.00  0.00    +0.007 A 
ATOM     33  C   UNL     1       0.258  -8.461  13.352  0.00  0.00    +0.049 A 
ATOM     34  C   UNL     1      -0.649  -9.378  12.846  0.00  0.00    +0.158 A 
ATOM     35  C   UNL     1      -1.828  -8.933  12.257  0.00  0.00    +0.158 A 
ATOM     36  C   UNL     1      -2.093  -7.575  12.182  0.00  0.00    +0.052 A 
BRANCH  35  37
ATOM     37  O   UNL     1      -2.721  -9.830  11.759  0.00  0.00    -0.503 OA
ATOM     38  H   UNL     1      -3.384 -10.122  12.399  0.00  0.00    +0.292 HD
ENDBRANCH  35  37
BRANCH  34  39
ATOM     39  O   UNL     1      -0.387 -10.710  12.926  0.00  0.00    -0.503 OA
ATOM     40  H   UNL     1      -0.716 -11.128  13.734  0.00  0.00    +0.292 HD
ENDBRANCH  34  39
ENDBRANCH  30  31
ENDBRANCH  29  30
ENDBRANCH  27  29
ENDBRANCH  24  25
ENDBRANCH  23  24
ENDBRANCH  16  23
TORSDOF 9
