REMARK  Name = ZINC66932187
REMARK  3 active torsions:
REMARK  status: ('A' for Active; 'I' for Inactive)
REMARK    1  A    between atoms: C_6  and  C_7
REMARK    2  A    between atoms: C_9  and  C_12
REMARK    3  A    between atoms: C_18  and  C_20
REMARK                            x       y       z     vdW  Elec       q    Type
REMARK                         _______ _______ _______ _____ _____    ______ ____
ROOT
ATOM      1  C   UNL     1      -1.267  -0.763   0.009  0.00  0.00    +0.109 A 
ATOM      2  N   UNL     1      -2.508  -0.310   0.017  0.00  0.00    -0.234 NA
ATOM      3  C   UNL     1      -3.501  -1.190   0.021  0.00  0.00    +0.133 A 
ATOM      4  C   UNL     1      -3.206  -2.527   0.018  0.00  0.00    +0.080 A 
ATOM      5  S   UNL     1      -1.523  -2.528   0.001  0.00  0.00    -0.075 S 
ENDROOT
BRANCH   1  11
ATOM      6  C   UNL     1      -0.017   1.391   0.010  0.00  0.00    +0.014 A 
ATOM      7  C   UNL     1       1.168   2.096   0.002  0.00  0.00    +0.050 A 
ATOM      8  C   UNL     1       2.383   1.423  -0.012  0.00  0.00    +0.162 A 
ATOM      9  C   UNL     1       2.408   0.031  -0.018  0.00  0.00    +0.163 A 
ATOM     10  C   UNL     1       1.222  -0.681  -0.012  0.00  0.00    +0.060 A 
ATOM     11  C   UNL     1       0.002  -0.004   0.002  0.00  0.00    +0.011 A 
ATOM     12  O   UNL     1       3.591  -0.643  -0.024  0.00  0.00    -0.485 OA
ATOM     13  C   UNL     1       4.754   0.100  -0.405  0.00  0.00    +0.270 C 
ATOM     14  C   UNL     1       4.734   1.440   0.343  0.00  0.00    +0.270 C 
ATOM     15  O   UNL     1       3.540   2.139  -0.023  0.00  0.00    -0.485 OA
ENDBRANCH   1  11
BRANCH   3  16
ATOM     16  C   UNL     1      -4.902  -0.735   0.031  0.00  0.00    +0.266 C 
ATOM     17  O   UNL     1      -5.806  -1.548   0.035  0.00  0.00    -0.268 OA
ATOM     18  N   UNL     1      -5.182   0.584   0.034  0.00  0.00    -0.285 N 
ATOM     19  C   UNL     1      -4.189   1.673   0.023  0.00  0.00    +0.109 C 
ATOM     20  C   UNL     1      -4.938   2.887  -0.581  0.00  0.00    +0.021 C 
ATOM     21  C   UNL     1      -6.357   2.707   0.019  0.00  0.00    +0.033 C 
ATOM     22  C   UNL     1      -6.528   1.173   0.043  0.00  0.00    +0.162 C 
BRANCH  22  23
ATOM     23  C   UNL     1      -7.260   0.762   1.295  0.00  0.00    +0.231 C 
ATOM     24  O   UNL     1      -6.640   0.342   2.249  0.00  0.00    -0.274 OA
ATOM     25  N   UNL     1      -8.603   0.860   1.354  0.00  0.00    -0.328 N 
ATOM     26  H   UNL     1      -9.098   1.196   0.590  0.00  0.00    +0.145 HD
ATOM     27  H   UNL     1      -9.074   0.595   2.159  0.00  0.00    +0.145 HD
ENDBRANCH  22  23
ENDBRANCH   3  16
TORSDOF 3
