REMARK  Name = ZINC35718345
REMARK  7 active torsions:
REMARK  status: ('A' for Active; 'I' for Inactive)
REMARK    1  A    between atoms: C_1  and  N_2
REMARK    2  A    between atoms: N_2  and  C_3
REMARK    3  A    between atoms: N_2  and  C_9
REMARK    4  A    between atoms: C_3  and  C_4
REMARK    5  A    between atoms: C_9  and  C_10
REMARK    6  A    between atoms: N_12  and  C_13
REMARK    7  A    between atoms: C_16  and  N_20
REMARK                            x       y       z     vdW  Elec       q    Type
REMARK                         _______ _______ _______ _____ _____    ______ ____
ROOT
ATOM      1  C   UNL     1      -2.042  -0.133   1.310  0.00  0.00    +0.201 C 
ATOM      2  O   UNL     1      -1.431   0.507   2.140  0.00  0.00    -0.278 OA
ATOM      3  N   UNL     1      -3.320  -0.492   1.542  0.00  0.00    -0.286 N 
ATOM      4  H   UNL     1      -3.834  -0.933   0.848  0.00  0.00    +0.155 HD
ENDROOT
BRANCH   3   5
ATOM      5  C   UNL     1      -3.907  -0.229   2.788  0.00  0.00    +0.048 A 
ATOM      6  C   UNL     1      -3.109  -0.093   3.916  0.00  0.00    +0.026 A 
ATOM      7  C   UNL     1      -3.687   0.167   5.143  0.00  0.00    +0.024 A 
ATOM      8  C   UNL     1      -5.066   0.292   5.249  0.00  0.00    +0.026 A 
ATOM      9  C   UNL     1      -5.864   0.157   4.120  0.00  0.00    +0.039 A 
ATOM     10  C   UNL     1      -5.286  -0.097   2.892  0.00  0.00    +0.041 A 
ATOM     11 BR   UNL     1      -6.371  -0.274   1.354  0.00  0.00    -0.048 Br
BRANCH   8  12
ATOM     12  N   UNL     1      -5.651   0.555   6.492  0.00  0.00    -0.358 N 
ATOM     13  H   UNL     1      -5.093   0.649   7.280  0.00  0.00    +0.142 HD
ATOM     14  H   UNL     1      -6.614   0.642   6.566  0.00  0.00    +0.142 HD
ENDBRANCH   8  12
ENDBRANCH   3   5
BRANCH   1  15
ATOM     15  C   UNL     1      -1.372  -0.526   0.018  0.00  0.00    +0.019 C 
BRANCH  15  17
ATOM     16  C   UNL     1      -0.011   1.450   0.005  0.00  0.00    -0.095 C 
ATOM     17  N   UNL     1       0.007  -0.019   0.008  0.00  0.00    +0.386 N 
ATOM     18  H   UNL     1       0.492  -0.347   0.830  0.00  0.00    -0.081 HD
BRANCH  17  19
ATOM     19  C   UNL     1       0.698  -0.502  -1.195  0.00  0.00    -0.042 C 
BRANCH  19  20
ATOM     20  C   UNL     1       2.145  -0.085  -1.145  0.00  0.00    -0.057 A 
ATOM     21  C   UNL     1       2.545   1.125  -1.681  0.00  0.00    +0.009 A 
ATOM     22  C   UNL     1       3.855   1.470  -1.619  0.00  0.00    +0.045 A 
ATOM     23  S   UNL     1       4.569   0.062  -0.784  0.00  0.00    -0.105 S 
ATOM     24  C   UNL     1       3.073  -0.888  -0.569  0.00  0.00    +0.047 A 
ENDBRANCH  19  20
ENDBRANCH  17  19
ENDBRANCH  15  17
ENDBRANCH   1  15
TORSDOF 6
