REMARK  Name = ZINC04994550
REMARK  13 active torsions:
REMARK  status: ('A' for Active; 'I' for Inactive)
REMARK    1  A    between atoms: C_1  and  C_2
REMARK    2  A    between atoms: C_2  and  O_3
REMARK    3  A    between atoms: O_3  and  C_4
REMARK    4  A    between atoms: C_7  and  C_10
REMARK    5  A    between atoms: N_12  and  C_13
REMARK    6  A    between atoms: C_13  and  C_15
REMARK    7  A    between atoms: C_13  and  N_46
REMARK    8  A    between atoms: C_19  and  C_20
REMARK    9  A    between atoms: C_19  and  N_46
REMARK   10  A    between atoms: C_20  and  C_21
REMARK   11  A    between atoms: C_21  and  N_49
REMARK   12  A    between atoms: C_22  and  N_49
REMARK   13  A    between atoms: C_23  and  N_49
REMARK                            x       y       z     vdW  Elec       q    Type
REMARK                         _______ _______ _______ _____ _____    ______ ____
ROOT
ATOM      1  C   UNL     1      -0.013   1.086   0.008  0.00  0.00    +0.068 C 
ENDROOT
BRANCH   1   4
ATOM      2  C   UNL     1      -0.921   0.711   2.238  0.00  0.00    +0.243 C 
ATOM      3  O   UNL     1      -0.553  -0.445   2.162  0.00  0.00    -0.270 OA
ATOM      4  N   UNL     1      -0.698   1.558   1.213  0.00  0.00    -0.321 N 
ATOM      5  H   UNL     1      -0.992   2.481   1.274  0.00  0.00    +0.147 HD
BRANCH   2   9
ATOM      6  C   UNL     1      -2.909   2.081   5.732  0.00  0.00    +0.121 A 
ATOM      7  C   UNL     1      -2.489   0.758   5.646  0.00  0.00    +0.046 A 
ATOM      8  C   UNL     1      -1.844   0.311   4.515  0.00  0.00    +0.016 A 
ATOM      9  C   UNL     1      -1.612   1.187   3.452  0.00  0.00    +0.037 A 
ATOM     10  C   UNL     1      -2.031   2.517   3.544  0.00  0.00    +0.016 A 
ATOM     11  C   UNL     1      -2.681   2.956   4.676  0.00  0.00    +0.046 A 
BRANCH   6  12
ATOM     12  O   UNL     1      -3.544   2.518   6.848  0.00  0.00    -0.492 OA
BRANCH  12  14
ATOM     13  C   UNL     1      -4.643   4.195   8.198  0.00  0.00    +0.048 C 
ATOM     14  C   UNL     1      -3.949   3.889   6.869  0.00  0.00    +0.225 C 
ENDBRANCH  12  14
ENDBRANCH   6  12
ENDBRANCH   2   9
ENDBRANCH   1   4
BRANCH   1  15
ATOM     15  C   UNL     1      -0.753   1.593  -1.232  0.00  0.00    +0.194 C 
ATOM     16 CL   UNL     1       0.091   1.011  -2.715  0.00  0.00    -0.084 Cl
ATOM     17 CL   UNL     1      -2.444   0.969  -1.219  0.00  0.00    -0.084 Cl
ATOM     18 CL   UNL     1      -0.777   3.396  -1.222  0.00  0.00    -0.084 Cl
ENDBRANCH   1  15
BRANCH   1  19
ATOM     19  N   UNL     1       1.368   1.604  -0.005  0.00  0.00    +0.394 N 
ATOM     20  H   UNL     1       1.451   2.363   0.682  0.00  0.00    -0.083 HD
ATOM     21  H   UNL     1       1.586   1.965  -0.941  0.00  0.00    -0.083 HD
BRANCH  19  22
ATOM     22  C   UNL     1       2.321   0.532   0.338  0.00  0.00    -0.082 C 
BRANCH  22  23
ATOM     23  C   UNL     1       3.742   1.098   0.317  0.00  0.00    -0.038 C 
BRANCH  23  24
ATOM     24  C   UNL     1       4.738  -0.008   0.671  0.00  0.00    -0.081 C 
BRANCH  24  27
ATOM     25  C   UNL     1       7.061  -0.426   1.212  0.00  0.00    -0.097 C 
ATOM     26  C   UNL     1       6.490   0.933  -0.709  0.00  0.00    -0.097 C 
ATOM     27  N   UNL     1       6.103   0.559   0.667  0.00  0.00    +0.376 N 
ATOM     28  H   UNL     1       6.116   1.399   1.257  0.00  0.00    -0.083 HD
ENDBRANCH  24  27
ENDBRANCH  23  24
ENDBRANCH  22  23
ENDBRANCH  19  22
ENDBRANCH   1  19
TORSDOF 10
