REMARK  Name = ZINC36038446
REMARK  11 active torsions:
REMARK  status: ('A' for Active; 'I' for Inactive)
REMARK    1  A    between atoms: C_1  and  C_2
REMARK    2  A    between atoms: C_2  and  C_3
REMARK    3  A    between atoms: C_3  and  C_5
REMARK    4  A    between atoms: C_3  and  C_6
REMARK    5  A    between atoms: C_6  and  N_7
REMARK    6  A    between atoms: C_10  and  C_30
REMARK    7  A    between atoms: N_16  and  S_19
REMARK    8  A    between atoms: S_19  and  C_22
REMARK    9  A    between atoms: C_30  and  C_31
REMARK   10  A    between atoms: C_31  and  C_32
REMARK   11  A    between atoms: C_31  and  C_33
REMARK                            x       y       z     vdW  Elec       q    Type
REMARK                         _______ _______ _______ _____ _____    ______ ____
ROOT
ATOM      1  N   UNL     1      -4.133  -2.429   0.055  0.00  0.00    -0.313 N 
ATOM      2  C   UNL     1      -4.956  -2.578   1.114  0.00  0.00    +0.200 C 
ATOM      3  O   UNL     1      -4.791  -2.093   2.213  0.00  0.00    -0.277 OA
ATOM      4  C   UNL     1      -6.120  -3.451   0.698  0.00  0.00    +0.019 C 
ATOM      5  N   UNL     1      -6.091  -3.440  -0.784  0.00  0.00    +0.401 N 
ATOM      6  C   UNL     1      -4.674  -3.165  -1.091  0.00  0.00    +0.006 C 
ATOM      7  C   UNL     1      -3.925  -4.483  -1.274  0.00  0.00    +0.023 C 
ATOM      8  C   UNL     1      -2.447  -4.194  -1.556  0.00  0.00    +0.109 C 
ATOM      9  N   UNL     1      -2.355  -3.274  -2.698  0.00  0.00    -0.177 NA
ATOM     10  C   UNL     1      -3.101  -2.010  -2.650  0.00  0.00    +0.109 C 
ATOM     11  C   UNL     1      -4.574  -2.317  -2.358  0.00  0.00    +0.023 C 
ATOM     12  H   UNL     1      -6.371  -4.336  -1.153  0.00  0.00    -0.082 HD
ATOM     13  H   UNL     1      -6.680  -2.704  -1.146  0.00  0.00    -0.082 HD
ENDROOT
BRANCH   9  14
ATOM     14  S   UNL     1      -1.427  -3.656  -4.016  0.00  0.00    +0.062 S 
ATOM     15  O   UNL     1      -0.949  -2.427  -4.545  0.00  0.00    -0.153 OA
ATOM     16  O   UNL     1      -0.555  -4.702  -3.609  0.00  0.00    -0.153 OA
BRANCH  14  17
ATOM     17  C   UNL     1      -2.504  -4.342  -5.230  0.00  0.00    +0.125 A 
ATOM     18  C   UNL     1      -2.735  -3.663  -6.412  0.00  0.00    +0.030 A 
ATOM     19  C   UNL     1      -3.580  -4.200  -7.365  0.00  0.00    +0.003 A 
ATOM     20  C   UNL     1      -4.195  -5.417  -7.137  0.00  0.00    +0.021 A 
ATOM     21  C   UNL     1      -3.965  -6.098  -5.955  0.00  0.00    +0.061 A 
ATOM     22  C   UNL     1      -3.114  -5.562  -5.003  0.00  0.00    +0.086 A 
ATOM     23 CL   UNL     1      -2.818  -6.419  -3.522  0.00  0.00    -0.080 Cl
ATOM     24 CL   UNL     1      -4.737  -7.626  -5.669  0.00  0.00    -0.082 Cl
ENDBRANCH  14  17
ENDBRANCH   9  14
BRANCH   1  25
ATOM     25  C   UNL     1      -2.895  -1.647   0.050  0.00  0.00    +0.109 C 
BRANCH  25  26
ATOM     26  C   UNL     1      -3.208  -0.197  -0.326  0.00  0.00    +0.003 C 
ATOM     27  C   UNL     1      -4.099   0.427   0.750  0.00  0.00    +0.009 C 
BRANCH  26  29
ATOM     28  C   UNL     1      -2.206   2.011  -0.927  0.00  0.00    +0.004 C 
ATOM     29  C   UNL     1      -1.903   0.595  -0.431  0.00  0.00    +0.001 C 
ENDBRANCH  26  29
ENDBRANCH  25  26
ENDBRANCH   1  25
BRANCH   4  30
ATOM     30  C   UNL     1      -5.933  -4.875   1.226  0.00  0.00    -0.004 C 
BRANCH  30  31
ATOM     31  C   UNL     1      -6.003  -4.866   2.755  0.00  0.00    -0.018 C 
ATOM     32  C   UNL     1      -7.410  -4.460   3.198  0.00  0.00    +0.007 C 
ATOM     33  C   UNL     1      -5.684  -6.264   3.288  0.00  0.00    +0.007 C 
ENDBRANCH  30  31
ENDBRANCH   4  30
TORSDOF 7
