REMARK  Name = ZINC39796077
REMARK  10 active torsions:
REMARK  status: ('A' for Active; 'I' for Inactive)
REMARK    1  A    between atoms: C_1  and  C_2
REMARK    2  A    between atoms: C_2  and  C_4
REMARK    3  A    between atoms: C_2  and  S_14
REMARK    4  A    between atoms: N_9  and  C_10
REMARK    5  A    between atoms: C_10  and  C_11
REMARK    6  A    between atoms: C_10  and  C_12
REMARK    7  A    between atoms: C_10  and  C_13
REMARK    8  A    between atoms: S_14  and  C_15
REMARK    9  A    between atoms: C_19  and  C_24
REMARK   10  A    between atoms: N_20  and  C_21
REMARK                            x       y       z     vdW  Elec       q    Type
REMARK                         _______ _______ _______ _____ _____    ______ ____
ROOT
ATOM      1  C   UNL     1      -2.317  -0.109  -1.299  0.00  0.00    +0.238 C 
ATOM      2  N   UNL     1      -1.687  -0.891  -2.376  0.00  0.00    -0.237 N 
ATOM      3  N   UNL     1      -1.367   0.017  -3.391  0.00  0.00    -0.169 NA
ATOM      4  C   UNL     1      -1.719   1.233  -3.069  0.00  0.00    +0.147 C 
ATOM      5  N   UNL     1      -2.315   1.274  -1.803  0.00  0.00    -0.282 N 
ATOM      6  H   UNL     1      -1.526  -1.848  -2.380  0.00  0.00    +0.171 HD
ENDROOT
BRANCH   4   7
ATOM      7  C   UNL     1      -1.524   2.356  -3.888  0.00  0.00    +0.022 C 
ATOM      8  C   UNL     1      -0.901   2.393  -5.136  0.00  0.00    +0.006 A 
ATOM      9  C   UNL     1      -0.304   1.393  -5.932  0.00  0.00    +0.010 A 
ATOM     10  C   UNL     1       0.238   1.723  -7.133  0.00  0.00    +0.001 A 
ATOM     11  C   UNL     1       0.220   3.036  -7.607  0.00  0.00    +0.002 A 
ATOM     12  C   UNL     1      -0.337   4.046  -6.895  0.00  0.00    +0.026 A 
ATOM     13  C   UNL     1      -0.922   3.779  -5.630  0.00  0.00    +0.043 A 
ATOM     14  N   UNL     1      -1.517   4.571  -4.760  0.00  0.00    -0.380 N 
ATOM     15  C   UNL     1      -1.953   3.779  -3.605  0.00  0.00    +0.152 C 
ATOM     16  H   UNL     1      -1.649   5.526  -4.868  0.00  0.00    +0.160 HD
ENDBRANCH   4   7
BRANCH   5  17
ATOM     17  C   UNL     1      -2.834   2.458  -1.113  0.00  0.00    +0.078 C 
ATOM     18  C   UNL     1      -3.391   2.266   0.299  0.00  0.00    +0.024 C 
ATOM     19  C   UNL     1      -4.343   2.529  -0.870  0.00  0.00    +0.024 C 
ENDBRANCH   5  17
BRANCH   1  20
ATOM     20  S   UNL     1      -1.343  -0.230   0.227  0.00  0.00    -0.106 S 
BRANCH  20  22
ATOM     21  C   UNL     1       0.514   1.573  -0.657  0.00  0.00    +0.029 C 
ATOM     22  C   UNL     1       0.359   0.091  -0.313  0.00  0.00    +0.133 C 
BRANCH  22  23
ATOM     23  C   UNL     1       1.314  -0.270   0.795  0.00  0.00    +0.233 C 
ATOM     24  O   UNL     1       0.915  -0.349   1.938  0.00  0.00    -0.274 OA
ATOM     25  N   UNL     1       2.612  -0.505   0.517  0.00  0.00    -0.239 N 
ATOM     26  C   UNL     1       3.466  -0.828   1.509  0.00  0.00    +0.306 C 
ATOM     27  O   UNL     1       3.066  -0.907   2.654  0.00  0.00    -0.252 OA
ATOM     28  N   UNL     1       4.764  -1.062   1.230  0.00  0.00    -0.294 N 
ATOM     29  H   UNL     1       2.931  -0.442  -0.397  0.00  0.00    +0.159 HD
ATOM     30  H   UNL     1       5.083  -0.999   0.317  0.00  0.00    +0.151 HD
BRANCH  28  31
ATOM     31  C   UNL     1       5.692  -1.413   2.308  0.00  0.00    +0.028 C 
ATOM     32  C   UNL     1       5.221  -2.700   2.988  0.00  0.00    +0.031 C 
ATOM     33  C   UNL     1       7.091  -1.626   1.727  0.00  0.00    +0.031 C 
ATOM     34  C   UNL     1       5.733  -0.280   3.335  0.00  0.00    +0.031 C 
ENDBRANCH  28  31
ENDBRANCH  22  23
ENDBRANCH  20  22
ENDBRANCH   1  20
TORSDOF 6
