REMARK  Name = ZINC36954831
REMARK  8 active torsions:
REMARK  status: ('A' for Active; 'I' for Inactive)
REMARK    1  A    between atoms: C_1  and  C_2
REMARK    2  A    between atoms: C_7  and  C_24
REMARK    3  A    between atoms: C_9  and  N_10
REMARK    4  A    between atoms: N_10  and  C_11
REMARK    5  A    between atoms: C_11  and  C_13
REMARK    6  A    between atoms: C_11  and  C_14
REMARK    7  A    between atoms: C_17  and  S_20
REMARK    8  A    between atoms: S_20  and  N_23
REMARK                            x       y       z     vdW  Elec       q    Type
REMARK                         _______ _______ _______ _____ _____    ______ ____
ROOT
ATOM      1  C   UNL     1       2.566  -0.669   2.453  0.00  0.00    -0.044 C 
ATOM      2  C   UNL     1       2.777  -2.150   2.130  0.00  0.00    -0.009 C 
ENDROOT
BRANCH   1   3
ATOM      3  C   UNL     1       3.903   0.019   2.554  0.00  0.00    -0.062 A 
ATOM      4  C   UNL     1       4.570   0.405   1.406  0.00  0.00    +0.004 A 
ATOM      5  C   UNL     1       5.797   1.036   1.499  0.00  0.00    +0.029 A 
ATOM      6  C   UNL     1       6.356   1.281   2.739  0.00  0.00    +0.105 A 
ATOM      7  C   UNL     1       5.689   0.895   3.887  0.00  0.00    +0.029 A 
ATOM      8  C   UNL     1       4.460   0.268   3.794  0.00  0.00    +0.004 A 
BRANCH   6   9
ATOM      9  S   UNL     1       7.920   2.084   2.857  0.00  0.00    +0.056 S 
ATOM     10  O   UNL     1       8.477   1.707   4.109  0.00  0.00    -0.153 OA
ATOM     11  O   UNL     1       8.589   1.852   1.625  0.00  0.00    -0.153 OA
BRANCH   9  12
ATOM     12  N   UNL     1       7.630   3.712   2.939  0.00  0.00    -0.204 NA
ATOM     13  H   UNL     1       8.241   4.290   3.422  0.00  0.00    +0.144 HD
ATOM     14  H   UNL     1       6.848   4.088   2.505  0.00  0.00    +0.144 HD
ENDBRANCH   9  12
ENDBRANCH   6   9
ENDBRANCH   1   3
BRANCH   1  15
ATOM     15  N   UNL     1       1.773  -0.043   1.386  0.00  0.00    +0.386 N 
ATOM     16  H   UNL     1       1.907  -0.552   0.525  0.00  0.00    -0.085 HD
ATOM     17  H   UNL     1       2.071   0.912   1.262  0.00  0.00    -0.085 HD
BRANCH  15  24
ATOM     18  C   UNL     1       0.050  -2.175   0.445  0.00  0.00    +0.006 C 
ATOM     19  C   UNL     1      -0.135  -1.518   1.815  0.00  0.00    -0.028 C 
ATOM     20  C   UNL     1      -1.615  -1.544   2.198  0.00  0.00    +0.002 C 
ATOM     21  C   UNL     1      -2.427  -0.777   1.151  0.00  0.00    +0.000 C 
ATOM     22  C   UNL     1      -1.941   0.672   1.091  0.00  0.00    +0.002 C 
ATOM     23  C   UNL     1      -0.460   0.698   0.708  0.00  0.00    -0.028 C 
ATOM     24  C   UNL     1       0.351  -0.068   1.754  0.00  0.00    -0.065 C 
ATOM     25  C   UNL     1       0.026   2.148   0.647  0.00  0.00    +0.006 C 
ENDBRANCH  15  24
ENDBRANCH   1  15
TORSDOF 5
