REMARK  Name = ZINC40719572
REMARK  14 active torsions:
REMARK  status: ('A' for Active; 'I' for Inactive)
REMARK    1  A    between atoms: C_1  and  C_2
REMARK    2  A    between atoms: C_2  and  C_3
REMARK    3  A    between atoms: C_2  and  O_4
REMARK    4  A    between atoms: O_4  and  C_5
REMARK    5  A    between atoms: C_6  and  C_14
REMARK    6  A    between atoms: C_10  and  O_11
REMARK    7  A    between atoms: O_11  and  C_12
REMARK    8  A    between atoms: C_14  and  N_15
REMARK    9  A    between atoms: N_15  and  C_16
REMARK   10  A    between atoms: C_16  and  C_17
REMARK   11  A    between atoms: C_17  and  N_18
REMARK   12  A    between atoms: N_18  and  C_19
REMARK   13  A    between atoms: C_19  and  C_20
REMARK   14  A    between atoms: C_20  and  O_21
REMARK                            x       y       z     vdW  Elec       q    Type
REMARK                         _______ _______ _______ _____ _____    ______ ____
ROOT
ATOM      1  C   UNL     1      -1.510  -1.619  -0.684  0.00  0.00    +0.164 A 
ATOM      2  C   UNL     1      -1.842  -1.569  -2.028  0.00  0.00    -0.018 A 
ATOM      3  C   UNL     1      -2.155  -2.733  -2.706  0.00  0.00    +0.020 A 
ATOM      4  C   UNL     1      -2.136  -3.948  -2.046  0.00  0.00    +0.022 A 
ATOM      5  C   UNL     1      -1.805  -4.004  -0.704  0.00  0.00    +0.064 A 
ATOM      6  C   UNL     1      -1.486  -2.842  -0.020  0.00  0.00    +0.163 A 
ATOM      7 BR   UNL     1      -2.564  -5.536  -2.979  0.00  0.00    -0.050 Br
ENDROOT
BRANCH   6   8
ATOM      8  O   UNL     1      -1.154  -2.896   1.297  0.00  0.00    -0.491 OA
ATOM      9  C   UNL     1      -1.150  -4.186   1.913  0.00  0.00    +0.277 C 
ENDBRANCH   6   8
BRANCH   1  10
ATOM     10  O   UNL     1      -1.203  -0.475  -0.015  0.00  0.00    -0.486 OA
BRANCH  10  12
ATOM     11  C   UNL     1       0.323   1.399  -0.037  0.00  0.00    +0.051 C 
ATOM     12  C   UNL     1       0.179  -0.121   0.063  0.00  0.00    +0.168 C 
ATOM     13  C   UNL     1       0.754  -0.601   1.398  0.00  0.00    +0.051 C 
ENDBRANCH  10  12
ENDBRANCH   1  10
BRANCH   2  14
ATOM     14  C   UNL     1      -1.864  -0.247  -2.750  0.00  0.00    -0.043 C 
BRANCH  14  15
ATOM     15  N   UNL     1      -0.497   0.119  -3.143  0.00  0.00    +0.383 N 
ATOM     16  H   UNL     1       0.063   0.263  -2.316  0.00  0.00    -0.085 HD
ATOM     17  H   UNL     1      -0.095  -0.623  -3.696  0.00  0.00    -0.085 HD
BRANCH  15  18
ATOM     18  C   UNL     1      -0.529   1.357  -3.933  0.00  0.00    -0.067 C 
BRANCH  18  19
ATOM     19  C   UNL     1       0.895   1.738  -4.342  0.00  0.00    +0.062 C 
BRANCH  19  20
ATOM     20  N   UNL     1       0.863   2.976  -5.132  0.00  0.00    -0.316 NA
ATOM     21  H   UNL     1       0.256   2.878  -5.932  0.00  0.00    +0.122 HD
BRANCH  20  22
ATOM     22  C   UNL     1       2.216   3.374  -5.543  0.00  0.00    +0.108 C 
BRANCH  22  23
ATOM     23  C   UNL     1       2.142   4.664  -6.362  0.00  0.00    +0.171 C 
BRANCH  23  24
ATOM     24  O   UNL     1       1.671   5.728  -5.533  0.00  0.00    -0.394 OA
ATOM     25  H   UNL     1       1.599   6.579  -5.988  0.00  0.00    +0.209 HD
ENDBRANCH  23  24
ENDBRANCH  22  23
ENDBRANCH  20  22
ENDBRANCH  19  20
ENDBRANCH  18  19
ENDBRANCH  15  18
ENDBRANCH  14  15
ENDBRANCH   2  14
TORSDOF 11
