REMARK  Name = ZINC44281814
REMARK  7 active torsions:
REMARK  status: ('A' for Active; 'I' for Inactive)
REMARK    1  A    between atoms: C_3  and  C_10
REMARK    2  A    between atoms: C_5  and  C_6
REMARK    3  A    between atoms: C_6  and  C_7
REMARK    4  A    between atoms: C_7  and  C_8
REMARK    5  A    between atoms: C_8  and  N_9
REMARK    6  A    between atoms: C_10  and  O_11
REMARK    7  A    between atoms: O_11  and  C_12
REMARK                            x       y       z     vdW  Elec       q    Type
REMARK                         _______ _______ _______ _____ _____    ______ ____
ROOT
ATOM      1  C   UNL     1      -0.016   1.341   0.009  0.00  0.00    +0.045 A 
ATOM      2  C   UNL     1       1.331   1.769  -0.001  0.00  0.00    +0.048 A 
ATOM      3  C   UNL     1       2.092   0.660  -0.014  0.00  0.00    +0.142 A 
ATOM      4  O   UNL     1       1.282  -0.411  -0.012  0.00  0.00    -0.461 OA
ATOM      5  C   UNL     1       0.002  -0.004   0.002  0.00  0.00    +0.105 A 
ENDROOT
BRANCH   5   6
ATOM      6  C   UNL     1      -1.208  -0.902   0.009  0.00  0.00    +0.072 C 
BRANCH   6   7
ATOM      7  C   UNL     1      -1.632  -1.198  -1.431  0.00  0.00    -0.012 C 
BRANCH   7   8
ATOM      8  C   UNL     1      -2.861  -2.110  -1.423  0.00  0.00    -0.086 C 
BRANCH   8   9
ATOM      9  N   UNL     1      -3.268  -2.394  -2.806  0.00  0.00    +0.378 N 
ATOM     10  H   UNL     1      -3.493  -1.529  -3.275  0.00  0.00    -0.090 HD
ATOM     11  H   UNL     1      -2.512  -2.853  -3.292  0.00  0.00    -0.090 HD
ATOM     12  H   UNL     1      -4.078  -2.995  -2.801  0.00  0.00    -0.090 HD
ENDBRANCH   8   9
ENDBRANCH   7   8
ENDBRANCH   6   7
ENDBRANCH   5   6
BRANCH   3  13
ATOM     13  C   UNL     1       3.599   0.625  -0.029  0.00  0.00    +0.303 C 
BRANCH  13  14
ATOM     14  O   UNL     1       4.088   0.607   1.313  0.00  0.00    -0.481 OA
BRANCH  14  15
ATOM     15  C   UNL     1       5.438   0.575   1.478  0.00  0.00    +0.158 A 
ATOM     16  C   UNL     1       6.100  -0.642   1.550  0.00  0.00    +0.085 A 
ATOM     17  C   UNL     1       7.472  -0.673   1.718  0.00  0.00    +0.043 A 
ATOM     18  C   UNL     1       8.185   0.509   1.814  0.00  0.00    +0.044 A 
ATOM     19  C   UNL     1       7.526   1.724   1.742  0.00  0.00    +0.043 A 
ATOM     20  C   UNL     1       6.155   1.759   1.568  0.00  0.00    +0.085 A 
ATOM     21 CL   UNL     1       5.331   3.284   1.470  0.00  0.00    -0.080 Cl
ATOM     22 CL   UNL     1       9.907   0.468   2.025  0.00  0.00    -0.083 Cl
ATOM     23 CL   UNL     1       5.207  -2.126   1.431  0.00  0.00    -0.080 Cl
ENDBRANCH  14  15
ENDBRANCH  13  14
ENDBRANCH   3  13
TORSDOF 7
