REMARK  Name = ZINC14459725
REMARK  10 active torsions:
REMARK  status: ('A' for Active; 'I' for Inactive)
REMARK    1  A    between atoms: C_1  and  C_2
REMARK    2  A    between atoms: C_2  and  O_3
REMARK    3  A    between atoms: O_3  and  C_4
REMARK    4  A    between atoms: C_7  and  N_10
REMARK    5  A    between atoms: N_10  and  S_11
REMARK    6  A    between atoms: S_11  and  C_14
REMARK    7  A    between atoms: C_27  and  C_30
REMARK    8  A    between atoms: C_34  and  O_37
REMARK    9  A    between atoms: C_35  and  O_36
REMARK   10  A    between atoms: O_37  and  C_38
REMARK                            x       y       z     vdW  Elec       q    Type
REMARK                         _______ _______ _______ _____ _____    ______ ____
ROOT
ATOM      1  C   UNL     1       2.335   1.821   0.140  0.00  0.00    +0.109 A 
ATOM      2  C   UNL     1       1.260   2.688   0.221  0.00  0.00    +0.030 A 
ATOM      3  C   UNL     1      -0.024   2.192   0.324  0.00  0.00    +0.025 A 
ATOM      4  C   UNL     1      -0.246   0.820   0.347  0.00  0.00    +0.031 A 
ATOM      5  C   UNL     1       0.846  -0.050   0.254  0.00  0.00    -0.018 A 
ATOM      6  C   UNL     1       2.124   0.455   0.157  0.00  0.00    +0.034 A 
ATOM      7  C   UNL     1       0.564  -1.502   0.256  0.00  0.00    +0.049 C 
ATOM      8  C   UNL     1       1.556  -2.495   0.741  0.00  0.00    -0.023 C 
ATOM      9  C   UNL     1       0.922  -3.531   1.247  0.00  0.00    -0.030 C 
ATOM     10  C   UNL     1      -0.588  -3.285   1.206  0.00  0.00    +0.033 C 
ATOM     11  C   UNL     1      -0.651  -1.752   1.199  0.00  0.00    +0.029 C 
ATOM     12  C   UNL     1      -1.840  -1.111   0.507  0.00  0.00    +0.109 C 
ATOM     13  N   UNL     1      -1.554   0.340   0.485  0.00  0.00    -0.336 N 
ATOM     14  H   UNL     1      -2.286   0.971   0.569  0.00  0.00    +0.147 HD
ENDROOT
BRANCH  12  15
ATOM     15  C   UNL     1      -1.969  -1.637  -0.899  0.00  0.00    +0.018 A 
ATOM     16  C   UNL     1      -1.409  -0.939  -1.953  0.00  0.00    +0.009 A 
ATOM     17  C   UNL     1      -1.526  -1.418  -3.244  0.00  0.00    +0.004 A 
ATOM     18  C   UNL     1      -2.203  -2.599  -3.487  0.00  0.00    +0.049 A 
ATOM     19  C   UNL     1      -2.767  -3.304  -2.436  0.00  0.00    +0.162 A 
ATOM     20  C   UNL     1      -2.645  -2.823  -1.136  0.00  0.00    +0.163 A 
BRANCH  20  21
ATOM     21  O   UNL     1      -3.191  -3.514  -0.100  0.00  0.00    -0.503 OA
ATOM     22  H   UNL     1      -4.104  -3.265   0.101  0.00  0.00    +0.292 HD
ENDBRANCH  20  21
BRANCH  19  23
ATOM     23  O   UNL     1      -3.433  -4.465  -2.674  0.00  0.00    -0.491 OA
ATOM     24  C   UNL     1      -3.514  -4.900  -4.033  0.00  0.00    +0.277 C 
ENDBRANCH  19  23
ENDBRANCH  12  15
BRANCH   1  25
ATOM     25  S   UNL     1       3.973   2.459   0.015  0.00  0.00    +0.072 S 
ATOM     26  O   UNL     1       3.917   3.810   0.452  0.00  0.00    -0.150 OA
ATOM     27  O   UNL     1       4.830   1.498   0.617  0.00  0.00    -0.150 OA
BRANCH  25  28
ATOM     28  N   UNL     1       4.362   2.498  -1.595  0.00  0.00    -0.216 N 
ATOM     29  H   UNL     1       5.089   1.952  -1.931  0.00  0.00    +0.174 HD
BRANCH  28  33
ATOM     30  C   UNL     1       2.214   4.943  -4.200  0.00  0.00    +0.121 A 
ATOM     31  C   UNL     1       3.126   5.502  -3.317  0.00  0.00    +0.047 A 
ATOM     32  C   UNL     1       3.838   4.693  -2.453  0.00  0.00    +0.028 A 
ATOM     33  C   UNL     1       3.641   3.319  -2.469  0.00  0.00    +0.048 A 
ATOM     34  C   UNL     1       2.732   2.759  -3.357  0.00  0.00    +0.028 A 
ATOM     35  C   UNL     1       2.017   3.570  -4.216  0.00  0.00    +0.047 A 
BRANCH  30  36
ATOM     36  O   UNL     1       1.514   5.740  -5.050  0.00  0.00    -0.492 OA
BRANCH  36  38
ATOM     37  C   UNL     1      -0.096   6.148  -6.805  0.00  0.00    +0.048 C 
ATOM     38  C   UNL     1       0.592   5.097  -5.932  0.00  0.00    +0.225 C 
ENDBRANCH  36  38
ENDBRANCH  30  36
ENDBRANCH  28  33
ENDBRANCH  25  28
ENDBRANCH   1  25
TORSDOF 8
