REMARK  Name = ZINC44145063
REMARK  15 active torsions:
REMARK  status: ('A' for Active; 'I' for Inactive)
REMARK    1  A    between atoms: C_1  and  C_2
REMARK    2  A    between atoms: C_2  and  C_3
REMARK    3  A    between atoms: C_3  and  C_4
REMARK    4  A    between atoms: C_4  and  C_6
REMARK    5  A    between atoms: C_4  and  N_16
REMARK    6  A    between atoms: N_8  and  C_9
REMARK    7  A    between atoms: C_9  and  C_10
REMARK    8  A    between atoms: C_10  and  N_11
REMARK    9  A    between atoms: C_17  and  C_38
REMARK   10  A    between atoms: C_18  and  C_35
REMARK   11  A    between atoms: C_20  and  C_21
REMARK   12  A    between atoms: C_27  and  C_33
REMARK   13  A    between atoms: C_27  and  C_34
REMARK   14  A    between atoms: C_30  and  C_31
REMARK   15  A    between atoms: C_30  and  C_32
REMARK                            x       y       z     vdW  Elec       q    Type
REMARK                         _______ _______ _______ _____ _____    ______ ____
ROOT
ATOM      1  N   UNL     1      -2.791  -2.648  -0.018  0.00  0.00    -0.331 N 
ATOM      2  C   UNL     1      -3.712  -2.462   0.949  0.00  0.00    +0.029 A 
ATOM      3  C   UNL     1      -4.928  -2.910   0.479  0.00  0.00    +0.058 A 
ATOM      4  C   UNL     1      -4.711  -3.387  -0.840  0.00  0.00    +0.041 A 
ATOM      5  C   UNL     1      -3.394  -3.209  -1.117  0.00  0.00    +0.051 A 
ATOM      6  C   UNL     1      -3.455  -1.867   2.309  0.00  0.00    +0.064 C 
ENDROOT
BRANCH   5   7
ATOM      7  C   UNL     1      -2.722  -3.561  -2.386  0.00  0.00    -0.001 A 
ATOM      8  C   UNL     1      -1.373  -3.918  -2.392  0.00  0.00    +0.010 A 
ATOM      9  C   UNL     1      -0.760  -4.241  -3.582  0.00  0.00    +0.005 A 
ATOM     10  C   UNL     1      -1.470  -4.217  -4.777  0.00  0.00    -0.038 A 
ATOM     11  C   UNL     1      -2.804  -3.870  -4.777  0.00  0.00    -0.037 A 
ATOM     12  C   UNL     1      -3.432  -3.545  -3.584  0.00  0.00    +0.014 A 
ATOM     13  C   UNL     1      -3.634  -3.840  -6.034  0.00  0.00    -0.010 C 
ATOM     14  C   UNL     1      -2.738  -3.798  -7.269  0.00  0.00    +0.012 C 
ATOM     15  C   UNL     1      -1.706  -4.927  -7.157  0.00  0.00    +0.012 C 
ATOM     16  C   UNL     1      -0.728  -4.575  -6.038  0.00  0.00    -0.010 C 
ATOM     17  C   UNL     1       0.179  -5.777  -5.765  0.00  0.00    +0.016 C 
ATOM     18  C   UNL     1       0.130  -3.385  -6.474  0.00  0.00    +0.016 C 
ATOM     19  C   UNL     1      -4.511  -5.093  -6.089  0.00  0.00    +0.016 C 
ATOM     20  C   UNL     1      -4.529  -2.599  -6.018  0.00  0.00    +0.016 C 
ENDBRANCH   5   7
BRANCH   3  21
ATOM     21  C   UNL     1      -6.208  -2.896   1.207  0.00  0.00    +0.243 C 
ATOM     22  O   UNL     1      -6.258  -2.457   2.340  0.00  0.00    -0.270 OA
ATOM     23  N   UNL     1      -7.324  -3.370   0.618  0.00  0.00    -0.325 N 
ATOM     24  H   UNL     1      -7.283  -3.720  -0.286  0.00  0.00    +0.145 HD
ATOM     25  H   UNL     1      -8.167  -3.361   1.098  0.00  0.00    +0.145 HD
ENDBRANCH   3  21
BRANCH   1  26
ATOM     26  C   UNL     1      -1.371  -2.302   0.086  0.00  0.00    +0.173 C 
BRANCH  26  27
ATOM     27  C   UNL     1      -0.711  -3.187   1.111  0.00  0.00    +0.236 C 
ATOM     28  O   UNL     1      -1.343  -4.077   1.641  0.00  0.00    -0.274 OA
ATOM     29  N   UNL     1       0.581  -2.990   1.440  0.00  0.00    -0.315 N 
ATOM     30  H   UNL     1       1.065  -2.234   1.072  0.00  0.00    +0.149 HD
BRANCH  29  31
ATOM     31  C   UNL     1       1.254  -3.917   2.354  0.00  0.00    +0.086 C 
BRANCH  31  32
ATOM     32  C   UNL     1       2.702  -3.469   2.559  0.00  0.00    -0.060 C 
BRANCH  32  33
ATOM     33  N   UNL     1       3.377  -4.399   3.475  0.00  0.00    +0.381 N 
ATOM     34  C   UNL     1       3.553  -5.722   2.824  0.00  0.00    -0.079 C 
ATOM     35  C   UNL     1       4.714  -6.360   3.626  0.00  0.00    -0.020 C 
ATOM     36  C   UNL     1       5.643  -5.157   3.907  0.00  0.00    -0.020 C 
ATOM     37  C   UNL     1       4.741  -3.915   3.779  0.00  0.00    -0.079 C 
ATOM     38  H   UNL     1       2.845  -4.497   4.327  0.00  0.00    -0.082 HD
ENDBRANCH  32  33
ENDBRANCH  31  32
ENDBRANCH  29  31
ENDBRANCH  26  27
BRANCH  26  39
ATOM     39  C   UNL     1      -1.233  -0.838   0.510  0.00  0.00    +0.034 C 
BRANCH  39  41
ATOM     40  C   UNL     1      -1.766   1.521  -0.115  0.00  0.00    +0.004 C 
ATOM     41  C   UNL     1      -1.797   0.066  -0.587  0.00  0.00    -0.001 C 
ENDBRANCH  39  41
ENDBRANCH  26  39
ENDBRANCH   1  26
TORSDOF 9
