REMARK  Name = ZINC09009883
REMARK  11 active torsions:
REMARK  status: ('A' for Active; 'I' for Inactive)
REMARK    1  A    between atoms: C_1  and  C_2
REMARK    2  A    between atoms: C_2  and  C_3
REMARK    3  A    between atoms: C_2  and  C_4
REMARK    4  A    between atoms: C_4  and  C_5
REMARK    5  A    between atoms: C_8  and  C_11
REMARK    6  A    between atoms: C_14  and  C_16
REMARK    7  A    between atoms: C_16  and  C_31
REMARK    8  A    between atoms: C_17  and  N_18
REMARK    9  A    between atoms: N_18  and  C_19
REMARK   10  A    between atoms: C_22  and  S_25
REMARK   11  A    between atoms: S_25  and  N_28
REMARK                            x       y       z     vdW  Elec       q    Type
REMARK                         _______ _______ _______ _____ _____    ______ ____
ROOT
ATOM      1  N   UNL     1       2.390  -4.585   0.264  0.00  0.00    -0.319 N 
ATOM      2  H   UNL     1       3.231  -4.128   0.109  0.00  0.00    +0.152 HD
ENDROOT
BRANCH   1   3
ATOM      3  C   UNL     1       2.296  -5.964   0.061  0.00  0.00    +0.031 A 
ATOM      4  C   UNL     1       1.093  -6.621   0.288  0.00  0.00    +0.025 A 
ATOM      5  C   UNL     1       1.002  -7.984   0.081  0.00  0.00    +0.031 A 
ATOM      6  C   UNL     1       2.110  -8.696  -0.342  0.00  0.00    +0.111 A 
ATOM      7  C   UNL     1       3.310  -8.046  -0.563  0.00  0.00    +0.031 A 
ATOM      8  C   UNL     1       3.407  -6.683  -0.363  0.00  0.00    +0.025 A 
BRANCH   6   9
ATOM      9  S   UNL     1       1.991 -10.435  -0.599  0.00  0.00    +0.080 S 
ATOM     10  O   UNL     1       0.621 -10.716  -0.848  0.00  0.00    -0.148 OA
ATOM     11  O   UNL     1       3.019 -10.780  -1.518  0.00  0.00    -0.148 OA
BRANCH   9  12
ATOM     12  N   UNL     1       2.372 -11.169   0.836  0.00  0.00    -0.228 N 
ATOM     13  C   UNL     1       1.562 -10.995   1.933  0.00  0.00    +0.186 C 
ATOM     14  N   UNL     1       1.878 -11.605   3.124  0.00  0.00    -0.370 N 
ATOM     15  H   UNL     1       3.166 -11.722   0.902  0.00  0.00    +0.191 HD
ATOM     16  H   UNL     1      -0.139 -10.069   2.562  0.00  0.00    +0.159 HD
ATOM     17  H   UNL     1       2.672 -12.158   3.190  0.00  0.00    +0.159 HD
ATOM     18  H   UNL     1       1.307 -11.482   3.898  0.00  0.00    +0.159 HD
ATOM     19  N   UNL     1       0.492 -10.228   1.777  0.00  0.00    -0.370 N 
ATOM     20  H   UNL     1       0.300  -9.794   0.867  0.00  0.00    +0.159 HD
ENDBRANCH   9  12
ENDBRANCH   6   9
ENDBRANCH   1   3
BRANCH   1  22
ATOM     21  C   UNL     1       1.388  -2.535   0.879  0.00  0.00    +0.098 C 
ATOM     22  C   UNL     1       1.296  -3.880   0.681  0.00  0.00    +0.093 C 
BRANCH  21  26
ATOM     23  C   UNL     1      -1.058   0.042   1.980  0.00  0.00    +0.079 A 
ATOM     24  C   UNL     1      -2.144  -0.773   2.143  0.00  0.00    +0.075 A 
ATOM     25  S   UNL     1      -1.445  -2.355   1.688  0.00  0.00    -0.074 S 
ATOM     26  C   UNL     1       0.207  -1.773   1.330  0.00  0.00    +0.120 A 
ATOM     27  N   UNL     1       0.088  -0.476   1.573  0.00  0.00    -0.238 NA
BRANCH  23  31
ATOM     28  C   UNL     1      -1.369   4.211   2.755  0.00  0.00    -0.047 A 
ATOM     29  C   UNL     1      -0.164   3.676   2.337  0.00  0.00    +0.004 A 
ATOM     30  C   UNL     1      -0.057   2.324   2.083  0.00  0.00    +0.010 A 
ATOM     31  C   UNL     1      -1.166   1.496   2.251  0.00  0.00    +0.001 A 
ATOM     32  C   UNL     1      -2.379   2.042   2.668  0.00  0.00    +0.010 A 
ATOM     33  C   UNL     1      -2.473   3.395   2.923  0.00  0.00    +0.004 A 
BRANCH  28  34
ATOM     34  C   UNL     1      -1.480   5.689   3.029  0.00  0.00    +0.038 C 
BRANCH  34  36
ATOM     35  C   UNL     1      -2.128   7.896   2.054  0.00  0.00    +0.007 C 
ATOM     36  C   UNL     1      -1.894   6.415   1.748  0.00  0.00    -0.013 C 
ATOM     37  C   UNL     1      -0.785   6.279   0.703  0.00  0.00    +0.007 C 
ENDBRANCH  34  36
ENDBRANCH  28  34
ENDBRANCH  23  31
ENDBRANCH  21  26
BRANCH  21  38
ATOM     38  C   UNL     1       2.630  -1.860   0.650  0.00  0.00    +0.103 C 
ATOM     39  N   UNL     1       3.616  -1.325   0.468  0.00  0.00    -0.191 NA
ENDBRANCH  21  38
ENDBRANCH   1  22
TORSDOF 9
