REMARK  Name = ZINC48182755
REMARK  6 active torsions:
REMARK  status: ('A' for Active; 'I' for Inactive)
REMARK    1  A    between atoms: C_1  and  C_2
REMARK    2  A    between atoms: C_4  and  C_22
REMARK    3  A    between atoms: C_7  and  N_8
REMARK    4  A    between atoms: N_11  and  C_12
REMARK    5  A    between atoms: C_12  and  C_13
REMARK    6  A    between atoms: N_24  and  C_25
REMARK                            x       y       z     vdW  Elec       q    Type
REMARK                         _______ _______ _______ _____ _____    ______ ____
ROOT
ATOM      1  N   UNL     1       0.025  -0.012   2.413  0.00  0.00    -0.269 N 
ATOM      2  C   UNL     1      -0.057  -0.688   3.577  0.00  0.00    +0.304 C 
ATOM      3  O   UNL     1      -0.040  -1.903   3.576  0.00  0.00    -0.252 OA
ATOM      4  N   UNL     1      -0.156  -0.015   4.741  0.00  0.00    -0.292 N 
ATOM      5  H   UNL     1       0.078   0.956   2.417  0.00  0.00    +0.156 HD
ATOM      6  H   UNL     1      -0.169   0.955   4.741  0.00  0.00    +0.151 HD
ENDROOT
BRANCH   1  13
ATOM      7  C   UNL     1      -1.270   1.182   0.184  0.00  0.00    +0.045 C 
ATOM      8  C   UNL     1      -0.589  -0.159   0.086  0.00  0.00    -0.028 A 
ATOM      9  C   UNL     1      -0.579  -0.838  -1.111  0.00  0.00    +0.018 A 
ATOM     10  C   UNL     1       0.053  -2.082  -1.202  0.00  0.00    +0.037 A 
ATOM     11  C   UNL     1       0.672  -2.631  -0.075  0.00  0.00    +0.015 A 
ATOM     12  C   UNL     1       0.657  -1.946   1.119  0.00  0.00    +0.024 A 
ATOM     13  C   UNL     1       0.033  -0.706   1.204  0.00  0.00    +0.038 A 
BRANCH  10  14
ATOM     14  C   UNL     1       0.066  -2.813  -2.483  0.00  0.00    +0.244 C 
ATOM     15  O   UNL     1      -0.474  -2.334  -3.462  0.00  0.00    -0.270 OA
ATOM     16  N   UNL     1       0.675  -4.012  -2.569  0.00  0.00    -0.314 N 
ATOM     17  C   UNL     1       0.688  -4.738  -3.841  0.00  0.00    +0.128 C 
ATOM     18  H   UNL     1       1.105  -4.394  -1.788  0.00  0.00    +0.149 HD
ENDBRANCH  10  14
ENDBRANCH   1  13
BRANCH   4  19
ATOM     19  C   UNL     1      -0.245  -0.749   6.005  0.00  0.00    +0.182 C 
BRANCH  19  20
ATOM     20  C   UNL     1      -0.347   0.228   7.148  0.00  0.00    +0.155 A 
ATOM     21  N   UNL     1       0.653   0.749   7.812  0.00  0.00    -0.132 NA
ATOM     22  N   UNL     1       0.216   1.545   8.723  0.00  0.00    -0.129 NA
ATOM     23  C   UNL     1      -1.106   1.575   8.687  0.00  0.00    +0.161 A 
ATOM     24  N   UNL     1      -1.495   0.736   7.672  0.00  0.00    -0.285 N 
ATOM     25  C   UNL     1      -2.818   0.562   7.387  0.00  0.00    +0.094 A 
ATOM     26  C   UNL     1      -3.763   1.215   8.095  0.00  0.00    +0.018 A 
ATOM     27  C   UNL     1      -3.396   2.084   9.138  0.00  0.00    +0.005 A 
ATOM     28  C   UNL     1      -2.081   2.260   9.438  0.00  0.00    +0.048 A 
ENDBRANCH  19  20
ENDBRANCH   4  19
TORSDOF 4
