REMARK  Name = ZINC25680331
REMARK  6 active torsions:
REMARK  status: ('A' for Active; 'I' for Inactive)
REMARK    1  A    between atoms: C_1  and  C_2
REMARK    2  A    between atoms: C_2  and  C_4
REMARK    3  A    between atoms: C_2  and  N_15
REMARK    4  A    between atoms: N_6  and  C_7
REMARK    5  A    between atoms: C_18  and  C_21
REMARK    6  A    between atoms: C_24  and  O_27
REMARK                            x       y       z     vdW  Elec       q    Type
REMARK                         _______ _______ _______ _____ _____    ______ ____
ROOT
ATOM      1  N   UNL     1      -1.071   7.790   0.316  0.00  0.00    +0.390 N 
ATOM      2  C   UNL     1      -1.426   7.158  -0.966  0.00  0.00    -0.073 C 
ATOM      3  C   UNL     1      -2.567   6.167  -0.717  0.00  0.00    +0.017 C 
ATOM      4  C   UNL     1      -3.656   6.839   0.072  0.00  0.00    -0.048 C 
ATOM      5  C   UNL     1      -3.465   7.958   0.735  0.00  0.00    -0.041 C 
ATOM      6  C   UNL     1      -2.149   8.682   0.759  0.00  0.00    -0.050 C 
ATOM      7  H   UNL     1      -0.942   7.000   1.071  0.00  0.00    -0.080 HD
ENDROOT
BRANCH   4   8
ATOM      8  C   UNL     1      -4.994   6.213   0.109  0.00  0.00    -0.022 A 
ATOM      9  C   UNL     1      -6.089   6.867  -0.458  0.00  0.00    +0.012 A 
ATOM     10  C   UNL     1      -7.335   6.280  -0.422  0.00  0.00    +0.046 A 
ATOM     11  C   UNL     1      -7.503   5.039   0.177  0.00  0.00    +0.117 A 
ATOM     12  C   UNL     1      -6.417   4.385   0.743  0.00  0.00    +0.046 A 
ATOM     13  C   UNL     1      -5.167   4.966   0.711  0.00  0.00    +0.012 A 
BRANCH  11  14
ATOM     14  O   UNL     1      -8.733   4.463   0.211  0.00  0.00    -0.507 OA
ATOM     15  H   UNL     1      -8.868   3.480   0.685  0.00  0.00    +0.292 HD
ENDBRANCH  11  14
ENDBRANCH   4   8
BRANCH   1  17
ATOM     16  C   UNL     1       0.019   9.741  -0.686  0.00  0.00    -0.004 C 
ATOM     17  C   UNL     1       0.203   8.515   0.210  0.00  0.00    +0.017 C 
BRANCH  17  18
ATOM     18  C   UNL     1       0.644   8.957   1.582  0.00  0.00    +0.204 C 
ATOM     19  O   UNL     1      -0.035   8.693   2.552  0.00  0.00    -0.277 OA
ATOM     20  N   UNL     1       1.793   9.644   1.731  0.00  0.00    -0.282 N 
ATOM     21  H   UNL     1       2.451   9.811   0.865  0.00  0.00    +0.155 HD
BRANCH  20  22
ATOM     22  C   UNL     1       2.151  10.147   2.990  0.00  0.00    +0.105 A 
ATOM     23  C   UNL     1       1.735  11.416   3.377  0.00  0.00    +0.147 A 
ATOM     24  C   UNL     1       2.086  11.907   4.622  0.00  0.00    +0.040 A 
ATOM     25  C   UNL     1       2.857  11.141   5.476  0.00  0.00    +0.006 A 
ATOM     26  C   UNL     1       3.278   9.881   5.093  0.00  0.00    +0.040 A 
ATOM     27  C   UNL     1       2.927   9.381   3.851  0.00  0.00    +0.147 A 
ATOM     28  F   UNL     1       3.338   8.150   3.477  0.00  0.00    -0.203 F 
ATOM     29  F   UNL     1       0.986  12.166   2.540  0.00  0.00    -0.203 F 
ENDBRANCH  20  22
ENDBRANCH  17  18
ENDBRANCH   1  17
TORSDOF 5
