REMARK  Name = ZINC39325387
REMARK  10 active torsions:
REMARK  status: ('A' for Active; 'I' for Inactive)
REMARK    1  A    between atoms: C_1  and  C_2
REMARK    2  A    between atoms: C_7  and  C_8
REMARK    3  A    between atoms: C_8  and  C_9
REMARK    4  A    between atoms: C_9  and  N_10
REMARK    5  A    between atoms: N_10  and  C_11
REMARK    6  A    between atoms: N_10  and  S_26
REMARK    7  A    between atoms: C_11  and  C_12
REMARK    8  A    between atoms: C_17  and  O_24
REMARK    9  A    between atoms: O_24  and  C_25
REMARK   10  A    between atoms: S_26  and  C_29
REMARK                            x       y       z     vdW  Elec       q    Type
REMARK                         _______ _______ _______ _____ _____    ______ ____
ROOT
ATOM      1  N   UNL     1      -1.592   1.392   4.431  0.00  0.00    -0.175 NA
ENDROOT
BRANCH   1   2
ATOM      2  S   UNL     1      -1.808   0.523   5.824  0.00  0.00    +0.063 S 
ATOM      3  O   UNL     1      -2.886   1.133   6.520  0.00  0.00    -0.153 OA
ATOM      4  O   UNL     1      -1.821  -0.847   5.450  0.00  0.00    -0.153 OA
BRANCH   2   5
ATOM      5  C   UNL     1      -0.370   0.761   6.814  0.00  0.00    +0.133 A 
ATOM      6  C   UNL     1      -0.456   1.453   7.975  0.00  0.00    +0.031 A 
ATOM      7  C   UNL     1       0.661   1.661   8.784  0.00  0.00    +0.004 A 
ATOM      8  C   UNL     1       1.879   1.180   8.444  0.00  0.00    +0.031 A 
ATOM      9  C   UNL     1       2.045   0.444   7.240  0.00  0.00    +0.102 A 
ATOM     10  C   UNL     1       0.876   0.222   6.397  0.00  0.00    +0.126 A 
ATOM     11  N   UNL     1       1.149  -0.484   5.298  0.00  0.00    -0.189 NA
ATOM     12  S   UNL     1       2.722  -0.813   5.372  0.00  0.00    +0.117 S 
ATOM     13  N   UNL     1       3.158  -0.101   6.747  0.00  0.00    -0.191 NA
ENDBRANCH   2   5
ENDBRANCH   1   2
BRANCH   1  14
ATOM     14  C   UNL     1      -1.067   0.735   3.231  0.00  0.00    +0.114 C 
BRANCH  14  15
ATOM     15  C   UNL     1       0.321   1.293   2.910  0.00  0.00    +0.052 C 
BRANCH  15  22
ATOM     16  C   UNL     1      -0.406   2.368   0.329  0.00  0.00    +0.044 C 
ATOM     17  C   UNL     1       0.495   1.163   0.417  0.00  0.00    -0.047 A 
ATOM     18  C   UNL     1       0.978   0.576  -0.738  0.00  0.00    +0.003 A 
ATOM     19  C   UNL     1       1.804  -0.530  -0.657  0.00  0.00    +0.000 A 
ATOM     20  C   UNL     1       2.147  -1.048   0.578  0.00  0.00    +0.000 A 
ATOM     21  C   UNL     1       1.665  -0.460   1.732  0.00  0.00    +0.004 A 
ATOM     22  C   UNL     1       0.842   0.649   1.651  0.00  0.00    -0.043 A 
ENDBRANCH  15  22
ENDBRANCH  14  15
ENDBRANCH   1  14
BRANCH   1  23
ATOM     23  C   UNL     1      -1.926   2.818   4.398  0.00  0.00    +0.126 C 
BRANCH  23  24
ATOM     24  C   UNL     1      -3.439   2.984   4.237  0.00  0.00    +0.114 C 
ATOM     25  C   UNL     1      -3.776   4.441   4.484  0.00  0.00    -0.003 C 
ATOM     26  C   UNL     1      -4.407   5.116   3.482  0.00  0.00    -0.004 A 
ATOM     27  C   UNL     1      -4.769   6.525   3.638  0.00  0.00    +0.055 A 
ATOM     28  C   UNL     1      -5.399   7.158   2.610  0.00  0.00    +0.121 A 
ATOM     29  C   UNL     1      -5.703   6.487   1.419  0.00  0.00    +0.047 A 
ATOM     30  C   UNL     1      -5.393   5.181   1.217  0.00  0.00    +0.027 A 
ATOM     31  C   UNL     1      -4.740   4.436   2.217  0.00  0.00    +0.041 A 
ATOM     32  N   UNL     1      -4.440   3.155   2.004  0.00  0.00    -0.284 N 
ATOM     33  C   UNL     1      -3.830   2.398   2.899  0.00  0.00    +0.225 C 
ATOM     34  O   UNL     1      -3.583   1.234   2.647  0.00  0.00    -0.275 OA
ATOM     35  H   UNL     1      -4.683   2.760   1.152  0.00  0.00    +0.155 HD
BRANCH  28  36
ATOM     36  O   UNL     1      -5.741   8.467   2.743  0.00  0.00    -0.495 OA
ATOM     37  C   UNL     1      -6.400   9.082   1.634  0.00  0.00    +0.277 C 
ENDBRANCH  28  36
ENDBRANCH  23  24
ENDBRANCH   1  23
TORSDOF 8
