REMARK  Name = ZINC05272453
REMARK  3 active torsions:
REMARK  status: ('A' for Active; 'I' for Inactive)
REMARK    1  A    between atoms: N_9  and  C_13
REMARK    2  A    between atoms: C_13  and  C_14
REMARK    3  A    between atoms: N_16  and  C_17
REMARK                            x       y       z     vdW  Elec       q    Type
REMARK                         _______ _______ _______ _____ _____    ______ ____
ROOT
ATOM      1  C   UNL     1       2.868   3.853  -0.002  0.00  0.00    +0.001 A 
ATOM      2  C   UNL     1       3.928   2.964  -0.027  0.00  0.00    +0.002 A 
ATOM      3  C   UNL     1       3.675   1.600  -0.038  0.00  0.00    +0.029 A 
ATOM      4  C   UNL     1       2.386   1.150  -0.024  0.00  0.00    +0.121 A 
ATOM      5  C   UNL     1       1.292   2.025   0.001  0.00  0.00    +0.065 A 
ATOM      6  C   UNL     1       1.567   3.404   0.012  0.00  0.00    +0.015 A 
ATOM      7  C   UNL     1       0.004   1.319   0.013  0.00  0.00    +0.268 C 
ATOM      8  O   UNL     1      -1.045   1.933   0.029  0.00  0.00    -0.268 OA
ATOM      9  N   UNL     1       0.017  -0.022  -0.002  0.00  0.00    -0.159 N 
ATOM     10  S   UNL     1       1.633  -0.454  -0.030  0.00  0.00    +0.078 S 
ATOM     11  O   UNL     1       1.935  -1.078   1.211  0.00  0.00    -0.150 OA
ATOM     12  O   UNL     1       1.899  -1.051  -1.292  0.00  0.00    -0.150 OA
ENDROOT
BRANCH   9  13
ATOM     13  C   UNL     1      -1.140  -0.920   0.006  0.00  0.00    +0.230 C 
BRANCH  13  14
ATOM     14  C   UNL     1      -1.634  -1.115  -1.405  0.00  0.00    +0.236 C 
ATOM     15  O   UNL     1      -1.074  -0.559  -2.326  0.00  0.00    -0.274 OA
ATOM     16  N   UNL     1      -2.698  -1.908  -1.643  0.00  0.00    -0.283 N 
ATOM     17  H   UNL     1      -3.105  -2.404  -0.916  0.00  0.00    +0.155 HD
BRANCH  16  18
ATOM     18  C   UNL     1      -3.215  -2.015  -2.941  0.00  0.00    +0.048 A 
ATOM     19  C   UNL     1      -2.364  -1.967  -4.035  0.00  0.00    +0.024 A 
ATOM     20  C   UNL     1      -2.875  -2.078  -5.314  0.00  0.00    +0.002 A 
ATOM     21  C   UNL     1      -4.236  -2.226  -5.509  0.00  0.00    +0.001 A 
ATOM     22  C   UNL     1      -5.093  -2.270  -4.426  0.00  0.00    +0.017 A 
ATOM     23  C   UNL     1      -4.588  -2.165  -3.137  0.00  0.00    +0.040 A 
ATOM     24  S   UNL     1      -5.677  -2.220  -1.754  0.00  0.00    -0.050 SA
ENDBRANCH  16  18
ENDBRANCH  13  14
ENDBRANCH   9  13
TORSDOF 3
