REMARK  Name = ZINC21323363
REMARK  12 active torsions:
REMARK  status: ('A' for Active; 'I' for Inactive)
REMARK    1  A    between atoms: C_1  and  C_2
REMARK    2  A    between atoms: C_2  and  C_3
REMARK    3  A    between atoms: C_3  and  C_5
REMARK    4  A    between atoms: C_3  and  C_6
REMARK    5  A    between atoms: C_9  and  N_12
REMARK    6  A    between atoms: C_13  and  C_15
REMARK    7  A    between atoms: C_15  and  S_16
REMARK    8  A    between atoms: S_16  and  C_17
REMARK    9  A    between atoms: N_21  and  N_22
REMARK   10  A    between atoms: N_23  and  N_24
REMARK   11  A    between atoms: C_25  and  C_26
REMARK   12  A    between atoms: C_25  and  C_27
REMARK                            x       y       z     vdW  Elec       q    Type
REMARK                         _______ _______ _______ _____ _____    ______ ____
ROOT
ATOM      1  C   UNL     1      -0.016   1.362   0.022  0.00  0.00    +0.210 A 
ATOM      2  N   UNL     1       1.226   1.784   0.022  0.00  0.00    -0.119 NA
ATOM      3  N   UNL     1       2.065   0.662   0.014  0.00  0.00    -0.109 NA
ATOM      4  C   UNL     1       1.309  -0.409   0.010  0.00  0.00    +0.254 A 
ATOM      5  N   UNL     1       0.003  -0.004   0.015  0.00  0.00    -0.211 N 
ATOM      6  N   UNL     1       1.755  -1.722   0.003  0.00  0.00    -0.204 N 
ATOM      7  H   UNL     1       1.030  -2.550   0.001  0.00  0.00    +0.178 HD
ENDROOT
BRANCH   5   8
ATOM      8  N   UNL     1      -1.091  -0.822   0.013  0.00  0.00    -0.294 N 
ATOM      9  H   UNL     1      -0.962  -1.914   0.007  0.00  0.00    +0.163 HD
ATOM     10  H   UNL     1      -2.102  -0.388   0.016  0.00  0.00    +0.163 HD
ENDBRANCH   5   8
BRANCH   6  11
ATOM     11  N   UNL     1       3.130  -1.995  -0.002  0.00  0.00    -0.184 NA
ATOM     12  C   UNL     1       3.548  -3.224  -0.009  0.00  0.00    +0.063 C 
ATOM     13  C   UNL     1       2.554  -4.358  -0.012  0.00  0.00    +0.068 C 
BRANCH  12  14
ATOM     14  C   UNL     1       4.994  -3.511  -0.013  0.00  0.00    -0.002 A 
ATOM     15  C   UNL     1       5.447  -4.833  -0.015  0.00  0.00    +0.012 A 
ATOM     16  C   UNL     1       6.800  -5.095  -0.024  0.00  0.00    +0.039 A 
ATOM     17  C   UNL     1       7.711  -4.050  -0.021  0.00  0.00    +0.123 A 
ATOM     18  C   UNL     1       7.268  -2.737  -0.014  0.00  0.00    +0.039 A 
ATOM     19  C   UNL     1       5.917  -2.462  -0.010  0.00  0.00    +0.012 A 
ATOM     20  F   UNL     1       9.036  -4.313  -0.025  0.00  0.00    -0.205 F 
ENDBRANCH  12  14
ENDBRANCH   6  11
BRANCH   1  21
ATOM     21  S   UNL     1      -1.455   2.378   0.024  0.00  0.00    -0.075 S 
BRANCH  21  22
ATOM     22  C   UNL     1      -0.799   4.069   0.035  0.00  0.00    +0.173 C 
BRANCH  22  24
ATOM     23  N   UNL     1      -1.692   6.376   0.045  0.00  0.00    -0.285 N 
ATOM     24  C   UNL     1      -1.942   5.051   0.037  0.00  0.00    +0.227 C 
ATOM     25  O   UNL     1      -3.086   4.650   0.033  0.00  0.00    -0.275 OA
ATOM     26  H   UNL     1      -0.657   6.740   0.126  0.00  0.00    +0.155 HD
BRANCH  23  30
ATOM     27  C   UNL     1      -4.839   9.091  -0.239  0.00  0.00    -0.044 A 
ATOM     28  C   UNL     1      -5.011   7.904   0.449  0.00  0.00    +0.006 A 
ATOM     29  C   UNL     1      -3.970   7.002   0.545  0.00  0.00    +0.023 A 
ATOM     30  C   UNL     1      -2.749   7.288  -0.050  0.00  0.00    +0.033 A 
ATOM     31  C   UNL     1      -2.577   8.483  -0.736  0.00  0.00    +0.023 A 
ATOM     32  C   UNL     1      -3.624   9.379  -0.833  0.00  0.00    +0.006 A 
BRANCH  27  33
ATOM     33  C   UNL     1      -5.977  10.073  -0.342  0.00  0.00    +0.016 C 
ATOM     34  C   UNL     1      -6.328  10.295  -1.815  0.00  0.00    +0.012 C 
BRANCH  33  36
ATOM     35  C   UNL     1      -6.756  12.360   0.297  0.00  0.00    +0.004 C 
ATOM     36  C   UNL     1      -5.561  11.404   0.289  0.00  0.00    +0.004 C 
ENDBRANCH  33  36
ENDBRANCH  27  33
ENDBRANCH  23  30
ENDBRANCH  22  24
ENDBRANCH  21  22
ENDBRANCH   1  21
TORSDOF 9
