REMARK  Name = ZINC63588777
REMARK  7 active torsions:
REMARK  status: ('A' for Active; 'I' for Inactive)
REMARK    1  A    between atoms: C_1  and  C_2
REMARK    2  A    between atoms: C_6  and  N_8
REMARK    3  A    between atoms: N_10  and  C_11
REMARK    4  A    between atoms: C_11  and  C_12
REMARK    5  A    between atoms: C_12  and  C_13
REMARK    6  A    between atoms: N_22  and  C_23
REMARK    7  A    between atoms: C_23  and  C_25
REMARK                            x       y       z     vdW  Elec       q    Type
REMARK                         _______ _______ _______ _____ _____    ______ ____
ROOT
ATOM      1  N   UNL     1       0.083  -3.163   2.027  0.00  0.00    -0.328 N 
ATOM      2  C   UNL     1       0.091  -4.489   2.352  0.00  0.00    +0.194 C 
ATOM      3  N   UNL     1       0.228  -4.872   3.654  0.00  0.00    -0.357 N 
ATOM      4  N   UNL     1      -0.035  -5.404   1.403  0.00  0.00    -0.143 NA
ATOM      5  H   UNL     1       0.564  -5.757   3.867  0.00  0.00    +0.162 HD
ATOM      6  H   UNL     1      -0.577  -2.820   1.405  0.00  0.00    +0.169 HD
ENDROOT
BRANCH   1  12
ATOM      7  C   UNL     1       1.339   1.356   3.499  0.00  0.00    +0.044 C 
ATOM      8  C   UNL     1       1.664  -0.104   3.316  0.00  0.00    -0.049 A 
ATOM      9  C   UNL     1       2.898  -0.592   3.706  0.00  0.00    +0.003 A 
ATOM     10  C   UNL     1       3.199  -1.931   3.541  0.00  0.00    +0.002 A 
ATOM     11  C   UNL     1       2.268  -2.786   2.984  0.00  0.00    +0.026 A 
ATOM     12  C   UNL     1       1.028  -2.300   2.591  0.00  0.00    +0.042 A 
ATOM     13  C   UNL     1       0.726  -0.955   2.764  0.00  0.00    +0.029 A 
ENDBRANCH   1  12
BRANCH   4  14
ATOM     14  C   UNL     1      -0.218  -5.029   0.130  0.00  0.00    +0.270 C 
ATOM     15  O   UNL     1      -0.177  -3.848  -0.169  0.00  0.00    -0.268 OA
BRANCH  14  16
ATOM     16  C   UNL     1      -0.470  -6.048  -0.915  0.00  0.00    +0.040 A 
ATOM     17  C   UNL     1      -0.629  -7.388  -0.561  0.00  0.00    +0.013 A 
ATOM     18  C   UNL     1      -0.864  -8.334  -1.538  0.00  0.00    +0.002 A 
ATOM     19  C   UNL     1      -0.942  -7.955  -2.867  0.00  0.00    +0.015 A 
ATOM     20  C   UNL     1      -0.784  -6.627  -3.224  0.00  0.00    +0.019 A 
ATOM     21  C   UNL     1      -0.556  -5.671  -2.255  0.00  0.00    +0.028 A 
ATOM     22 BR   UNL     1      -0.891  -6.120  -5.043  0.00  0.00    -0.050 Br
ENDBRANCH  14  16
ENDBRANCH   4  14
BRANCH   3  23
ATOM     23  C   UNL     1      -0.133  -3.947   4.731  0.00  0.00    +0.120 C 
BRANCH  23  24
ATOM     24  C   UNL     1       0.222  -4.573   6.081  0.00  0.00    +0.054 C 
BRANCH  24  25
ATOM     25  C   UNL     1      -0.259  -3.676   7.192  0.00  0.00    -0.040 C 
ATOM     26  C   UNL     1      -1.452  -3.735   7.827  0.00  0.00    -0.001 A 
ATOM     27  C   UNL     1      -2.616  -4.618   7.676  0.00  0.00    +0.010 A 
ATOM     28  C   UNL     1      -3.691  -4.427   8.473  0.00  0.00    +0.001 A 
ATOM     29  C   UNL     1      -3.723  -3.410   9.437  0.00  0.00    +0.002 A 
ATOM     30  C   UNL     1      -2.693  -2.560   9.635  0.00  0.00    +0.026 A 
ATOM     31  C   UNL     1      -1.511  -2.669   8.852  0.00  0.00    +0.043 A 
ATOM     32  N   UNL     1      -0.397  -1.978   8.852  0.00  0.00    -0.380 N 
ATOM     33  C   UNL     1       0.497  -2.531   7.829  0.00  0.00    +0.144 C 
ATOM     34  H   UNL     1      -0.197  -1.228   9.434  0.00  0.00    +0.160 HD
ENDBRANCH  24  25
ENDBRANCH  23  24
ENDBRANCH   3  23
TORSDOF 6
