REMARK  Name = ZINC65078774
REMARK  6 active torsions:
REMARK  status: ('A' for Active; 'I' for Inactive)
REMARK    1  A    between atoms: C_1  and  C_2
REMARK    2  A    between atoms: N_5  and  S_8
REMARK    3  A    between atoms: S_8  and  C_11
REMARK    4  A    between atoms: N_22  and  C_23
REMARK    5  A    between atoms: C_23  and  C_24
REMARK    6  A    between atoms: N_29  and  C_32
REMARK                            x       y       z     vdW  Elec       q    Type
REMARK                         _______ _______ _______ _____ _____    ______ ____
ROOT
ATOM      1  C   UNL     1      -0.795  -5.265   1.507  0.00  0.00    +0.106 A 
ATOM      2  C   UNL     1      -1.688  -5.898   0.662  0.00  0.00    +0.030 A 
ATOM      3  C   UNL     1      -1.397  -7.153   0.162  0.00  0.00    +0.026 A 
ATOM      4  C   UNL     1      -0.206  -7.772   0.509  0.00  0.00    +0.040 A 
ATOM      5  C   UNL     1       0.694  -7.132   1.348  0.00  0.00    -0.024 A 
ATOM      6  C   UNL     1       0.397  -5.879   1.847  0.00  0.00    +0.034 A 
ATOM      7  C   UNL     1       2.001  -7.796   1.691  0.00  0.00    +0.037 C 
ATOM      8  C   UNL     1       1.779  -8.895   2.733  0.00  0.00    +0.014 C 
ATOM      9  C   UNL     1       0.532  -9.701   2.369  0.00  0.00    +0.097 C 
ATOM     10  C   UNL     1       0.505  -9.995   0.895  0.00  0.00    +0.220 C 
ATOM     11  O   UNL     1       0.852 -11.083   0.488  0.00  0.00    -0.275 OA
ATOM     12  N   UNL     1       0.097  -9.052   0.025  0.00  0.00    -0.262 N 
ENDROOT
BRANCH   1  13
ATOM     13  S   UNL     1      -1.173  -3.668   2.148  0.00  0.00    +0.061 S 
ATOM     14  O   UNL     1      -0.421  -3.521   3.344  0.00  0.00    -0.153 OA
ATOM     15  O   UNL     1      -2.589  -3.544   2.119  0.00  0.00    -0.153 OA
BRANCH  13  20
ATOM     16  C   UNL     1      -0.019   1.526   0.010  0.00  0.00    +0.007 C 
ATOM     17  C   UNL     1       0.002  -0.004   0.002  0.00  0.00    -0.012 C 
ATOM     18  C   UNL     1      -1.434  -0.533   0.011  0.00  0.00    +0.020 C 
ATOM     19  C   UNL     1      -1.409  -2.065  -0.032  0.00  0.00    +0.110 C 
ATOM     20  N   UNL     1      -0.578  -2.556   1.075  0.00  0.00    -0.177 NA
ATOM     21  C   UNL     1       0.791  -2.042   1.212  0.00  0.00    +0.110 C 
ATOM     22  C   UNL     1       0.742  -0.511   1.242  0.00  0.00    +0.020 C 
ENDBRANCH  13  20
ENDBRANCH   1  13
BRANCH  12  23
ATOM     23  C   UNL     1      -0.028  -9.359  -1.403  0.00  0.00    +0.209 C 
BRANCH  23  24
ATOM     24  C   UNL     1       1.278  -9.068  -2.095  0.00  0.00    +0.233 C 
ATOM     25  O   UNL     1       2.221  -8.646  -1.460  0.00  0.00    -0.274 OA
ATOM     26  N   UNL     1       1.399  -9.276  -3.421  0.00  0.00    -0.304 N 
ATOM     27  C   UNL     1       0.267  -9.782  -4.214  0.00  0.00    +0.089 C 
ATOM     28  C   UNL     1       0.084  -8.873  -5.434  0.00  0.00    -0.060 C 
ATOM     29  N   UNL     1       1.350  -8.787  -6.173  0.00  0.00    +0.380 N 
ATOM     30  C   UNL     1       2.370  -8.133  -5.342  0.00  0.00    -0.060 C 
ATOM     31  C   UNL     1       2.664  -8.999  -4.119  0.00  0.00    +0.089 C 
ATOM     32  C   UNL     1       1.147  -8.006  -7.400  0.00  0.00    -0.096 C 
ATOM     33  H   UNL     1       1.661  -9.716  -6.415  0.00  0.00    -0.082 HD
ENDBRANCH  23  24
ENDBRANCH  12  23
TORSDOF 4
