REMARK  Name = ZINC52952620
REMARK  7 active torsions:
REMARK  status: ('A' for Active; 'I' for Inactive)
REMARK    1  A    between atoms: C_1  and  C_2
REMARK    2  A    between atoms: C_4  and  S_23
REMARK    3  A    between atoms: C_6  and  N_9
REMARK    4  A    between atoms: C_7  and  C_8
REMARK    5  A    between atoms: C_10  and  C_12
REMARK    6  A    between atoms: N_15  and  C_17
REMARK    7  A    between atoms: S_23  and  N_26
REMARK                            x       y       z     vdW  Elec       q    Type
REMARK                         _______ _______ _______ _____ _____    ______ ____
ROOT
ATOM      1  N   UNL     1       0.052  -2.797   2.392  0.00  0.00    -0.280 N 
ATOM      2  C   UNL     1       0.562  -4.044   2.435  0.00  0.00    +0.270 C 
ATOM      3  O   UNL     1       1.092  -4.519   1.449  0.00  0.00    -0.268 OA
ATOM      4  H   UNL     1      -0.298  -2.388   3.199  0.00  0.00    +0.155 HD
ENDROOT
BRANCH   1  10
ATOM      5  C   UNL     1      -0.044   1.494  -0.004  0.00  0.00    +0.044 C 
ATOM      6  C   UNL     1      -0.020  -0.012  -0.007  0.00  0.00    -0.044 A 
ATOM      7  C   UNL     1      -0.024  -0.701  -1.207  0.00  0.00    +0.032 A 
ATOM      8  C   UNL     1      -0.002  -2.083  -1.214  0.00  0.00    +0.107 A 
ATOM      9  C   UNL     1       0.023  -2.781  -0.023  0.00  0.00    +0.052 A 
ATOM     10  C   UNL     1       0.027  -2.093   1.184  0.00  0.00    +0.039 A 
ATOM     11  C   UNL     1       0.010  -0.704   1.188  0.00  0.00    -0.026 A 
ATOM     12  C   UNL     1       0.020   0.047   2.494  0.00  0.00    +0.046 C 
BRANCH   8  13
ATOM     13  S   UNL     1      -0.007  -2.955  -2.745  0.00  0.00    +0.056 S 
ATOM     14  O   UNL     1      -0.534  -4.247  -2.475  0.00  0.00    -0.153 OA
ATOM     15  O   UNL     1      -0.584  -2.083  -3.707  0.00  0.00    -0.153 OA
BRANCH  13  16
ATOM     16  N   UNL     1       1.573  -3.172  -3.190  0.00  0.00    -0.204 NA
ATOM     17  H   UNL     1       1.827  -3.948  -3.714  0.00  0.00    +0.144 HD
ATOM     18  H   UNL     1       2.245  -2.524  -2.927  0.00  0.00    +0.144 HD
ENDBRANCH  13  16
ENDBRANCH   8  13
ENDBRANCH   1  10
BRANCH   2  19
ATOM     19  C   UNL     1       0.479  -4.833   3.681  0.00  0.00    +0.168 A 
ATOM     20  C   UNL     1       0.971  -6.137   3.869  0.00  0.00    +0.169 A 
ATOM     21  N   UNL     1       0.694  -6.468   5.108  0.00  0.00    -0.155 NA
ATOM     22  N   UNL     1       0.033  -5.378   5.690  0.00  0.00    -0.150 N 
ATOM     23  N   UNL     1      -0.067  -4.438   4.817  0.00  0.00    -0.142 NA
BRANCH  22  24
ATOM     24  C   UNL     1      -0.437  -5.319   7.008  0.00  0.00    +0.086 A 
ATOM     25  C   UNL     1      -1.085  -4.179   7.466  0.00  0.00    +0.029 A 
ATOM     26  C   UNL     1      -1.548  -4.125   8.766  0.00  0.00    +0.002 A 
ATOM     27  C   UNL     1      -1.367  -5.204   9.612  0.00  0.00    +0.000 A 
ATOM     28  C   UNL     1      -0.723  -6.340   9.159  0.00  0.00    +0.002 A 
ATOM     29  C   UNL     1      -0.262  -6.403   7.859  0.00  0.00    +0.029 A 
ENDBRANCH  22  24
ENDBRANCH   2  19
TORSDOF 5
