REMARK  Name = ZINC12586607
REMARK  12 active torsions:
REMARK  status: ('A' for Active; 'I' for Inactive)
REMARK    1  A    between atoms: C_1  and  C_2
REMARK    2  A    between atoms: C_5  and  N_8
REMARK    3  A    between atoms: N_8  and  S_9
REMARK    4  A    between atoms: S_9  and  C_12
REMARK    5  A    between atoms: C_14  and  C_20
REMARK    6  A    between atoms: C_17  and  O_18
REMARK    7  A    between atoms: O_18  and  C_19
REMARK    8  A    between atoms: C_20  and  O_22
REMARK    9  A    between atoms: O_22  and  C_23
REMARK   10  A    between atoms: C_23  and  C_24
REMARK   11  A    between atoms: N_26  and  C_27
REMARK   12  A    between atoms: C_28  and  C_32
REMARK                            x       y       z     vdW  Elec       q    Type
REMARK                         _______ _______ _______ _____ _____    ______ ____
ROOT
ATOM      1  C   UNL     1      -3.529   1.721   0.036  0.00  0.00    +0.151 A 
ATOM      2  C   UNL     1      -2.458   0.855   0.010  0.00  0.00    +0.047 A 
ATOM      3  C   UNL     1      -1.155   1.359  -0.026  0.00  0.00    +0.061 A 
ATOM      4  C   UNL     1      -0.945   2.741  -0.029  0.00  0.00    +0.018 A 
ATOM      5  C   UNL     1      -2.020   3.600  -0.009  0.00  0.00    +0.048 A 
ATOM      6  C   UNL     1      -3.315   3.094   0.027  0.00  0.00    +0.147 A 
ENDROOT
BRANCH   1   7
ATOM      7  S   UNL     1      -5.172   1.087   0.082  0.00  0.00    +0.076 S 
ATOM      8  O   UNL     1      -5.907   1.790  -0.911  0.00  0.00    -0.150 OA
ATOM      9  O   UNL     1      -5.061  -0.330   0.086  0.00  0.00    -0.150 OA
BRANCH   7  10
ATOM     10  N   UNL     1      -5.822   1.515   1.544  0.00  0.00    -0.216 N 
ATOM     11  H   UNL     1      -6.596   2.099   1.578  0.00  0.00    +0.174 HD
BRANCH  10  16
ATOM     12  C   UNL     1      -3.525  -0.434   6.348  0.00  0.00    +0.044 C 
ATOM     13  C   UNL     1      -4.136   0.084   5.071  0.00  0.00    -0.050 A 
ATOM     14  C   UNL     1      -4.483   1.418   4.964  0.00  0.00    +0.005 A 
ATOM     15  C   UNL     1      -5.042   1.896   3.796  0.00  0.00    +0.025 A 
ATOM     16  C   UNL     1      -5.256   1.035   2.727  0.00  0.00    +0.048 A 
ATOM     17  C   UNL     1      -4.911  -0.306   2.840  0.00  0.00    +0.025 A 
ATOM     18  C   UNL     1      -4.348  -0.776   4.009  0.00  0.00    +0.005 A 
ENDBRANCH  10  16
ENDBRANCH   7  10
ENDBRANCH   1   7
BRANCH   6  19
ATOM     19  O   UNL     1      -4.373   3.944   0.053  0.00  0.00    -0.493 OA
ATOM     20  C   UNL     1      -4.088   5.339  -0.070  0.00  0.00    +0.277 C 
ENDBRANCH   6  19
BRANCH   3  21
ATOM     21  C   UNL     1      -0.006   0.436  -0.054  0.00  0.00    +0.340 C 
ATOM     22  O   UNL     1      -0.191  -0.765  -0.045  0.00  0.00    -0.245 OA
BRANCH  21  23
ATOM     23  O   UNL     1       1.250   0.924  -0.094  0.00  0.00    -0.452 OA
BRANCH  23  24
ATOM     24  C   UNL     1       2.332  -0.043  -0.126  0.00  0.00    +0.328 C 
BRANCH  24  25
ATOM     25  C   UNL     1       3.652   0.682  -0.168  0.00  0.00    +0.255 C 
ATOM     26  O   UNL     1       3.679   1.894  -0.172  0.00  0.00    -0.272 OA
ATOM     27  N   UNL     1       4.804  -0.017  -0.203  0.00  0.00    -0.277 N 
ATOM     28  H   UNL     1       4.783  -0.987  -0.200  0.00  0.00    +0.155 HD
BRANCH  27  29
ATOM     29  C   UNL     1       6.019   0.650  -0.242  0.00  0.00    +0.084 A 
ATOM     30  C   UNL     1       7.300   0.111  -0.275  0.00  0.00    +0.065 A 
ATOM     31  C   UNL     1       8.398   1.047  -0.317  0.00  0.00    +0.022 A 
ATOM     32  C   UNL     1       8.089   2.356  -0.309  0.00  0.00    +0.048 A 
ATOM     33  S   UNL     1       6.309   2.357  -0.254  0.00  0.00    -0.081 S 
BRANCH  30  34
ATOM     34  C   UNL     1       7.524  -1.339  -0.272  0.00  0.00    +0.244 C 
ATOM     35  O   UNL     1       6.576  -2.101  -0.240  0.00  0.00    -0.270 OA
ATOM     36  N   UNL     1       8.780  -1.826  -0.305  0.00  0.00    -0.325 N 
ATOM     37  H   UNL     1       9.536  -1.218  -0.331  0.00  0.00    +0.145 HD
ATOM     38  H   UNL     1       8.929  -2.784  -0.303  0.00  0.00    +0.145 HD
ENDBRANCH  30  34
ENDBRANCH  27  29
ENDBRANCH  24  25
ENDBRANCH  23  24
ENDBRANCH  21  23
ENDBRANCH   3  21
TORSDOF 10
