REMARK  Name = ZINC09781629
REMARK  6 active torsions:
REMARK  status: ('A' for Active; 'I' for Inactive)
REMARK    1  A    between atoms: C_4  and  C_7
REMARK    2  A    between atoms: C_7  and  C_8
REMARK    3  A    between atoms: C_8  and  C_32
REMARK    4  A    between atoms: N_11  and  C_15
REMARK    5  A    between atoms: C_15  and  N_68
REMARK    6  A    between atoms: C_19  and  C_21
REMARK                            x       y       z     vdW  Elec       q    Type
REMARK                         _______ _______ _______ _____ _____    ______ ____
ROOT
ATOM      1  C   UNL     1       1.707  -2.131   0.371  0.00  0.00    +0.142 C 
ATOM      2  C   UNL     1       1.521  -2.761   1.737  0.00  0.00    +0.250 C 
ATOM      3  O   UNL     1       2.277  -2.697   2.682  0.00  0.00    -0.272 OA
ATOM      4  N   UNL     1       0.339  -3.407   1.683  0.00  0.00    -0.241 N 
ATOM      5  C   UNL     1      -0.241  -3.274   0.485  0.00  0.00    +0.308 C 
ATOM      6  O   UNL     1      -1.313  -3.768   0.195  0.00  0.00    -0.252 OA
ATOM      7  N   UNL     1       0.494  -2.533  -0.363  0.00  0.00    -0.281 N 
ATOM      8  H   UNL     1       0.270  -2.306  -1.279  0.00  0.00    +0.152 HD
ENDROOT
BRANCH   1   9
ATOM      9  C   UNL     1       1.784  -0.630   0.486  0.00  0.00    -0.015 A 
ATOM     10  C   UNL     1       0.630   0.128   0.425  0.00  0.00    +0.006 A 
ATOM     11  C   UNL     1       0.701   1.505   0.530  0.00  0.00    +0.000 A 
ATOM     12  C   UNL     1       1.926   2.123   0.697  0.00  0.00    +0.000 A 
ATOM     13  C   UNL     1       3.080   1.364   0.759  0.00  0.00    +0.000 A 
ATOM     14  C   UNL     1       3.009  -0.012   0.653  0.00  0.00    +0.006 A 
ENDBRANCH   1   9
BRANCH   1  15
ATOM     15  C   UNL     1       2.960  -2.683  -0.310  0.00  0.00    +0.075 C 
BRANCH  15  19
ATOM     16  C   UNL     1       2.520  -6.888  -0.914  0.00  0.00    +0.000 A 
ATOM     17  C   UNL     1       2.099  -6.002  -1.888  0.00  0.00    +0.000 A 
ATOM     18  C   UNL     1       2.241  -4.641  -1.693  0.00  0.00    +0.004 A 
ATOM     19  C   UNL     1       2.805  -4.166  -0.523  0.00  0.00    -0.045 A 
ATOM     20  C   UNL     1       3.231  -5.052   0.449  0.00  0.00    +0.004 A 
ATOM     21  C   UNL     1       3.083  -6.413   0.255  0.00  0.00    +0.000 A 
ENDBRANCH  15  19
ENDBRANCH   1  15
BRANCH   4  22
ATOM     22  C   UNL     1      -0.238  -4.163   2.797  0.00  0.00    +0.043 C 
BRANCH  22  27
ATOM     23  C   UNL     1      -0.256  -2.503   4.571  0.00  0.00    -0.076 C 
ATOM     24  C   UNL     1      -1.158  -2.339   5.819  0.00  0.00    -0.020 C 
ATOM     25  C   UNL     1      -1.891  -3.705   5.858  0.00  0.00    -0.012 C 
ATOM     26  C   UNL     1      -2.086  -4.038   4.364  0.00  0.00    -0.035 C 
ATOM     27  N   UNL     1      -1.087  -3.256   3.614  0.00  0.00    +0.395 N 
ATOM     28  H   UNL     1      -1.568  -2.597   2.991  0.00  0.00    -0.079 HD
BRANCH  26  29
ATOM     29  C   UNL     1      -1.883  -5.514   4.137  0.00  0.00    -0.057 A 
ATOM     30  C   UNL     1      -0.709  -6.119   4.544  0.00  0.00    +0.006 A 
ATOM     31  C   UNL     1      -0.516  -7.474   4.340  0.00  0.00    +0.049 A 
ATOM     32  C   UNL     1      -1.506  -8.223   3.726  0.00  0.00    +0.162 A 
ATOM     33  C   UNL     1      -2.684  -7.616   3.316  0.00  0.00    +0.162 A 
ATOM     34  C   UNL     1      -2.876  -6.261   3.527  0.00  0.00    +0.051 A 
ATOM     35  O   UNL     1      -3.653  -8.363   2.711  0.00  0.00    -0.488 OA
ATOM     36  C   UNL     1      -3.334  -8.863   1.411  0.00  0.00    +0.232 C 
ATOM     37  C   UNL     1      -2.551 -10.163   1.510  0.00  0.00    +0.082 C 
ATOM     38  C   UNL     1      -1.189  -9.970   2.158  0.00  0.00    +0.232 C 
ATOM     39  O   UNL     1      -1.329  -9.560   3.520  0.00  0.00    -0.488 OA
ENDBRANCH  26  29
ENDBRANCH  22  27
ENDBRANCH   4  22
TORSDOF 6
