REMARK  Name = ZINC41621685
REMARK  8 active torsions:
REMARK  status: ('A' for Active; 'I' for Inactive)
REMARK    1  A    between atoms: C_1  and  C_2
REMARK    2  A    between atoms: C_2  and  C_3
REMARK    3  A    between atoms: C_2  and  N_4
REMARK    4  A    between atoms: C_8  and  C_10
REMARK    5  A    between atoms: C_10  and  N_11
REMARK    6  A    between atoms: C_15  and  N_18
REMARK    7  A    between atoms: N_18  and  S_19
REMARK    8  A    between atoms: S_19  and  C_22
REMARK                            x       y       z     vdW  Elec       q    Type
REMARK                         _______ _______ _______ _____ _____    ______ ____
ROOT
ATOM      1  N   UNL     1      -4.623  -5.289  -1.554  0.00  0.00    +0.386 N 
ATOM      2  C   UNL     1      -3.853  -6.212  -0.711  0.00  0.00    -0.078 C 
ATOM      3  C   UNL     1      -3.814  -7.595  -1.365  0.00  0.00    -0.017 C 
ATOM      4  C   UNL     1      -5.244  -8.119  -1.524  0.00  0.00    +0.017 C 
ATOM      5  C   UNL     1      -6.058  -7.112  -2.343  0.00  0.00    +0.060 C 
ATOM      6  C   UNL     1      -6.014  -5.747  -1.653  0.00  0.00    -0.058 C 
ATOM      7  H   UNL     1      -4.214  -5.259  -2.476  0.00  0.00    -0.081 HD
ENDROOT
BRANCH   5   8
ATOM      8  N   UNL     1      -7.446  -7.569  -2.439  0.00  0.00    -0.194 NA
ATOM      9  H   UNL     1      -8.075  -7.360  -1.731  0.00  0.00    +0.148 HD
BRANCH   8  10
ATOM     10  S   UNL     1      -7.942  -8.441  -3.756  0.00  0.00    +0.027 S 
ATOM     11  O   UNL     1      -9.323  -8.688  -3.529  0.00  0.00    -0.158 OA
ATOM     12  O   UNL     1      -7.517  -7.679  -4.877  0.00  0.00    -0.158 OA
ATOM     13  C   UNL     1      -7.007  -9.993  -3.666  0.00  0.00    +0.214 C 
ENDBRANCH   8  10
ENDBRANCH   5   8
BRANCH   1  14
ATOM     14  C   UNL     1      -4.592  -3.945  -0.962  0.00  0.00    +0.019 C 
BRANCH  14  19
ATOM     15  N   UNL     1      -1.372  -0.511   0.012  0.00  0.00    -0.297 N 
ATOM     16  C   UNL     1      -1.643  -1.734  -0.485  0.00  0.00    +0.306 C 
ATOM     17  O   UNL     1      -0.747  -2.416  -0.942  0.00  0.00    -0.252 OA
ATOM     18  N   UNL     1      -2.908  -2.201  -0.475  0.00  0.00    -0.242 N 
ATOM     19  C   UNL     1      -3.178  -3.424  -0.973  0.00  0.00    +0.204 C 
ATOM     20  O   UNL     1      -2.285  -4.104  -1.429  0.00  0.00    -0.277 OA
ATOM     21  H   UNL     1      -2.087   0.033   0.377  0.00  0.00    +0.151 HD
ATOM     22  H   UNL     1      -3.623  -1.656  -0.111  0.00  0.00    +0.159 HD
BRANCH  15  24
ATOM     23  C   UNL     1      -0.019   1.526   0.010  0.00  0.00    +0.027 C 
ATOM     24  C   UNL     1       0.002  -0.004   0.002  0.00  0.00    +0.068 C 
ATOM     25  C   UNL     1       0.742  -0.511   1.242  0.00  0.00    +0.027 C 
ENDBRANCH  15  24
ENDBRANCH  14  19
ENDBRANCH   1  14
TORSDOF 5
