REMARK  Name = ZINC20310515
REMARK  9 active torsions:
REMARK  status: ('A' for Active; 'I' for Inactive)
REMARK    1  A    between atoms: C_1  and  C_2
REMARK    2  A    between atoms: C_2  and  O_4
REMARK    3  A    between atoms: O_4  and  C_5
REMARK    4  A    between atoms: C_5  and  C_6
REMARK    5  A    between atoms: C_9  and  N_26
REMARK    6  A    between atoms: C_17  and  C_20
REMARK    7  A    between atoms: C_20  and  O_21
REMARK    8  A    between atoms: O_21  and  C_22
REMARK    9  A    between atoms: C_22  and  C_24
REMARK                            x       y       z     vdW  Elec       q    Type
REMARK                         _______ _______ _______ _____ _____    ______ ____
ROOT
ATOM      1  C   UNL     1      -2.442  -2.712   0.011  0.00  0.00    +0.189 A 
ATOM      2  N   UNL     1      -3.123  -3.009   1.083  0.00  0.00    -0.223 NA
ATOM      3  C   UNL     1      -4.315  -3.519   0.733  0.00  0.00    +0.128 A 
ATOM      4  C   UNL     1      -5.469  -4.018   1.502  0.00  0.00    +0.184 A 
ATOM      5  C   UNL     1      -6.604  -4.502   0.799  0.00  0.00    +0.239 A 
ATOM      6  C   UNL     1      -6.612  -4.501  -0.588  0.00  0.00    +0.163 A 
ATOM      7  C   UNL     1      -5.512  -4.026  -1.322  0.00  0.00    +0.126 A 
ATOM      8  C   UNL     1      -4.366  -3.536  -0.657  0.00  0.00    +0.142 A 
ATOM      9  N   UNL     1      -3.166  -3.013  -1.089  0.00  0.00    -0.111 N 
ATOM     10  O   UNL     1      -2.766  -2.828  -2.435  0.00  0.00    -0.162 OA
ATOM     11  N   UNL     1      -5.826  -4.155  -2.625  0.00  0.00    -0.223 NA
ATOM     12  C   UNL     1      -7.020  -4.668  -2.746  0.00  0.00    +0.189 A 
ATOM     13  N   UNL     1      -7.551  -4.900  -1.528  0.00  0.00    -0.109 N 
ATOM     14  O   UNL     1      -8.828  -5.450  -1.259  0.00  0.00    -0.162 OA
ATOM     15  O   UNL     1      -7.676  -4.965   1.483  0.00  0.00    -0.283 OA
ENDROOT
BRANCH   4  16
ATOM     16  N   UNL     1      -5.447  -4.014   2.823  0.00  0.00    -0.024 NA
ATOM     17  O   UNL     1      -6.407  -4.428   3.449  0.00  0.00    -0.143 OA
ENDBRANCH   4  16
BRANCH   1  18
ATOM     18  C   UNL     1      -1.057  -2.117   0.001  0.00  0.00    +0.309 C 
BRANCH  18  19
ATOM     19  O   UNL     1      -1.151  -0.691   0.009  0.00  0.00    -0.457 OA
BRANCH  19  21
ATOM     20  C   UNL     1      -0.018   1.503   0.010  0.00  0.00    +0.136 C 
ATOM     21  C   UNL     1       0.002  -0.004   0.002  0.00  0.00    +0.304 C 
ATOM     22  O   UNL     1       1.056  -0.594  -0.011  0.00  0.00    -0.251 OA
ENDBRANCH  19  21
ENDBRANCH  18  19
ENDBRANCH   1  18
BRANCH  12  23
ATOM     23  C   UNL     1      -7.706  -4.957  -4.056  0.00  0.00    +0.309 C 
BRANCH  23  24
ATOM     24  O   UNL     1      -7.392  -6.287  -4.474  0.00  0.00    -0.457 OA
BRANCH  24  25
ATOM     25  C   UNL     1      -7.928  -6.704  -5.632  0.00  0.00    +0.304 C 
ATOM     26  O   UNL     1      -8.641  -5.965  -6.269  0.00  0.00    -0.251 OA
ATOM     27  C   UNL     1      -7.641  -8.095  -6.137  0.00  0.00    +0.136 C 
ENDBRANCH  24  25
ENDBRANCH  23  24
ENDBRANCH  12  23
TORSDOF 7
