REMARK  Name = ZINC34830347
REMARK  6 active torsions:
REMARK  status: ('A' for Active; 'I' for Inactive)
REMARK    1  A    between atoms: C_1  and  C_2
REMARK    2  A    between atoms: C_7  and  C_8
REMARK    3  A    between atoms: N_17  and  C_18
REMARK    4  A    between atoms: C_18  and  C_20
REMARK    5  A    between atoms: C_18  and  C_21
REMARK    6  A    between atoms: C_29  and  C_31
REMARK                            x       y       z     vdW  Elec       q    Type
REMARK                         _______ _______ _______ _____ _____    ______ ____
ROOT
ATOM      1  C   UNL     1       1.817  -1.242   1.509  0.00  0.00    +0.202 C 
ATOM      2  O   UNL     1       0.832  -1.827   1.111  0.00  0.00    -0.277 OA
ATOM      3  N   UNL     1       2.915  -1.165   0.732  0.00  0.00    -0.300 N 
ATOM      4  C   UNL     1       4.154  -0.563   1.244  0.00  0.00    +0.126 C 
ATOM      5  C   UNL     1       5.294  -1.577   1.086  0.00  0.00    +0.127 C 
ATOM      6  N   UNL     1       5.274  -2.095  -0.290  0.00  0.00    -0.295 N 
ATOM      7  C   UNL     1       4.035  -2.697  -0.802  0.00  0.00    +0.127 C 
ATOM      8  C   UNL     1       2.897  -1.688  -0.642  0.00  0.00    +0.126 C 
ATOM      9  C   UNL     1       6.372  -2.018  -1.067  0.00  0.00    +0.247 C 
ATOM     10  O   UNL     1       6.317  -2.360  -2.232  0.00  0.00    -0.270 OA
ENDROOT
BRANCH   9  11
ATOM     11  C   UNL     1       7.644  -1.518  -0.504  0.00  0.00    +0.037 A 
ATOM     12  C   UNL     1       8.021  -1.885   0.801  0.00  0.00    +0.013 A 
ATOM     13  C   UNL     1       9.184  -1.439   1.340  0.00  0.00    +0.009 A 
ATOM     14  C   UNL     1      10.029  -0.597   0.594  0.00  0.00    -0.018 A 
ATOM     15  C   UNL     1      11.237  -0.122   1.132  0.00  0.00    +0.008 A 
ATOM     16  C   UNL     1      12.034   0.691   0.386  0.00  0.00    +0.001 A 
ATOM     17  C   UNL     1      11.671   1.062  -0.908  0.00  0.00    +0.001 A 
ATOM     18  C   UNL     1      10.509   0.623  -1.462  0.00  0.00    +0.008 A 
ATOM     19  C   UNL     1       9.659  -0.219  -0.722  0.00  0.00    -0.017 A 
ATOM     20  C   UNL     1       8.457  -0.695  -1.265  0.00  0.00    +0.021 A 
ENDBRANCH   9  11
BRANCH   1  21
ATOM     21  C   UNL     1       1.814  -0.602   2.873  0.00  0.00    +0.018 C 
ATOM     22  C   UNL     1       2.464  -1.549   3.884  0.00  0.00    -0.004 C 
BRANCH  21  31
ATOM     23  C   UNL     1       0.439   0.490   4.502  0.00  0.00    -0.005 C 
ATOM     24  C   UNL     1      -0.997   0.685   4.976  0.00  0.00    -0.047 A 
ATOM     25  C   UNL     1      -1.401   1.695   5.846  0.00  0.00    +0.010 A 
ATOM     26  C   UNL     1      -2.700   1.794   6.212  0.00  0.00    +0.045 A 
ATOM     27  S   UNL     1      -3.439   0.430   5.323  0.00  0.00    -0.101 S 
ATOM     28  C   UNL     1      -1.969  -0.165   4.538  0.00  0.00    -0.010 A 
ATOM     29  C   UNL     1      -1.784  -1.322   3.611  0.00  0.00    +0.024 C 
ATOM     30  C   UNL     1      -0.273  -1.596   3.509  0.00  0.00    -0.071 C 
ATOM     31  N   UNL     1       0.430  -0.326   3.281  0.00  0.00    +0.395 N 
ATOM     32  H   UNL     1      -0.037   0.183   2.546  0.00  0.00    -0.079 HD
BRANCH  23  39
ATOM     33  C   UNL     1       1.794   1.944   6.598  0.00  0.00    +0.044 C 
ATOM     34  C   UNL     1       1.709   2.526   5.211  0.00  0.00    -0.049 A 
ATOM     35  C   UNL     1       2.285   3.754   4.941  0.00  0.00    +0.003 A 
ATOM     36  C   UNL     1       2.207   4.289   3.668  0.00  0.00    +0.000 A 
ATOM     37  C   UNL     1       1.554   3.595   2.666  0.00  0.00    +0.000 A 
ATOM     38  C   UNL     1       0.979   2.368   2.937  0.00  0.00    +0.002 A 
ATOM     39  C   UNL     1       1.061   1.831   4.208  0.00  0.00    -0.054 A 
ENDBRANCH  23  39
ENDBRANCH  21  31
ENDBRANCH   1  21
TORSDOF 4
