REMARK  Name = ZINC15105690
REMARK  15 active torsions:
REMARK  status: ('A' for Active; 'I' for Inactive)
REMARK    1  A    between atoms: C_1  and  C_2
REMARK    2  A    between atoms: C_2  and  C_3
REMARK    3  A    between atoms: C_3  and  C_4
REMARK    4  A    between atoms: C_4  and  N_5
REMARK    5  A    between atoms: N_5  and  C_6
REMARK    6  A    between atoms: C_7  and  N_19
REMARK    7  A    between atoms: N_8  and  C_15
REMARK    8  A    between atoms: C_15  and  C_16
REMARK    9  A    between atoms: C_16  and  C_17
REMARK   10  A    between atoms: C_16  and  C_18
REMARK   11  A    between atoms: C_20  and  C_22
REMARK   12  A    between atoms: C_22  and  N_77
REMARK   13  A    between atoms: C_28  and  C_30
REMARK   14  A    between atoms: C_33  and  O_36
REMARK   15  A    between atoms: O_36  and  C_37
REMARK                            x       y       z     vdW  Elec       q    Type
REMARK                         _______ _______ _______ _____ _____    ______ ____
ROOT
ATOM      1  N   UNL     1      -1.326  -2.113   4.330  0.00  0.00    -0.266 N 
ATOM      2  C   UNL     1      -1.975  -1.433   3.362  0.00  0.00    +0.203 C 
ATOM      3  O   UNL     1      -3.152  -1.169   3.491  0.00  0.00    -0.277 OA
ENDROOT
BRANCH   1   4
ATOM      4  C   UNL     1      -2.038  -2.611   5.442  0.00  0.00    +0.140 A 
ATOM      5  C   UNL     1      -2.667  -1.748   6.316  0.00  0.00    +0.127 A 
ATOM      6  N   UNL     1      -3.358  -2.263   7.388  0.00  0.00    -0.280 N 
ATOM      7  C   UNL     1      -3.412  -3.592   7.588  0.00  0.00    +0.331 A 
ATOM      8  O   UNL     1      -4.024  -4.028   8.544  0.00  0.00    -0.246 OA
ATOM      9  N   UNL     1      -2.802  -4.448   6.749  0.00  0.00    -0.273 N 
ATOM     10  H   UNL     1      -2.858  -5.432   6.919  0.00  0.00    +0.173 HD
ATOM     11  C   UNL     1      -2.116  -3.996   5.681  0.00  0.00    +0.277 A 
ATOM     12  O   UNL     1      -1.566  -4.780   4.927  0.00  0.00    -0.266 OA
BRANCH   5  13
ATOM     13  N   UNL     1      -2.606  -0.389   6.116  0.00  0.00    -0.343 N 
ATOM     14  H   UNL     1      -2.108  -0.032   5.364  0.00  0.00    +0.144 HD
ATOM     15  H   UNL     1      -3.061   0.212   6.726  0.00  0.00    +0.144 HD
ENDBRANCH   5  13
BRANCH   6  16
ATOM     16  C   UNL     1      -4.035  -1.359   8.321  0.00  0.00    +0.131 C 
BRANCH  16  17
ATOM     17  C   UNL     1      -3.072  -0.972   9.445  0.00  0.00    +0.003 C 
ATOM     18  C   UNL     1      -1.910  -0.162   8.866  0.00  0.00    +0.009 C 
ATOM     19  C   UNL     1      -3.813  -0.129  10.485  0.00  0.00    +0.009 C 
ENDBRANCH  16  17
ENDBRANCH   6  16
ENDBRANCH   1   4
BRANCH   1  20
ATOM     20  C   UNL     1       0.118  -2.336   4.227  0.00  0.00    +0.114 C 
BRANCH  20  21
ATOM     21  C   UNL     1       0.861  -1.196   4.928  0.00  0.00    +0.019 C 
BRANCH  21  23
ATOM     22  C   UNL     1       3.114  -0.305   5.538  0.00  0.00    +0.004 C 
ATOM     23  C   UNL     1       2.369  -1.391   4.759  0.00  0.00    -0.002 C 
ENDBRANCH  21  23
ENDBRANCH  20  21
ENDBRANCH   1  20
BRANCH   2  24
ATOM     24  C   UNL     1      -1.238  -1.001   2.121  0.00  0.00    +0.020 C 
BRANCH  24  31
ATOM     25  C   UNL     1      -3.074  -1.468   0.600  0.00  0.00    -0.077 C 
ATOM     26  C   UNL     1      -3.876  -0.982  -0.577  0.00  0.00    -0.019 C 
ATOM     27  C   UNL     1      -3.109  -1.329  -1.869  0.00  0.00    -0.002 C 
ATOM     28  C   UNL     1      -2.015  -0.399  -2.128  0.00  0.00    -0.001 C 
ATOM     29  C   UNL     1      -0.962  -0.409  -1.000  0.00  0.00    -0.011 C 
ATOM     30  C   UNL     1      -1.485   0.403   0.153  0.00  0.00    -0.037 C 
ATOM     31  N   UNL     1      -2.212  -0.393   1.202  0.00  0.00    +0.390 N 
ATOM     32  H   UNL     1      -2.815   0.246   1.733  0.00  0.00    -0.080 HD
BRANCH  30  33
ATOM     33  C   UNL     1      -0.329   1.109   0.814  0.00  0.00    -0.061 A 
ATOM     34  C   UNL     1      -0.529   2.327   1.436  0.00  0.00    +0.005 A 
ATOM     35  C   UNL     1       0.528   2.974   2.047  0.00  0.00    +0.046 A 
ATOM     36  C   UNL     1       1.793   2.405   2.026  0.00  0.00    +0.120 A 
ATOM     37  C   UNL     1       1.993   1.186   1.396  0.00  0.00    +0.046 A 
ATOM     38  C   UNL     1       0.931   0.540   0.791  0.00  0.00    +0.005 A 
BRANCH  36  39
ATOM     39  O   UNL     1       2.836   3.042   2.621  0.00  0.00    -0.495 OA
ATOM     40  C   UNL     1       2.536   4.230   3.357  0.00  0.00    +0.277 C 
ENDBRANCH  36  39
ENDBRANCH  30  33
ENDBRANCH  24  31
ENDBRANCH   2  24
TORSDOF 11
