REMARK  Name = ZINC20517720
REMARK  6 active torsions:
REMARK  status: ('A' for Active; 'I' for Inactive)
REMARK    1  A    between atoms: C_1  and  C_2
REMARK    2  A    between atoms: C_6  and  N_8
REMARK    3  A    between atoms: C_13  and  C_32
REMARK    4  A    between atoms: C_25  and  C_30
REMARK    5  A    between atoms: C_32  and  C_33
REMARK    6  A    between atoms: C_33  and  C_34
REMARK                            x       y       z     vdW  Elec       q    Type
REMARK                         _______ _______ _______ _____ _____    ______ ____
ROOT
ATOM      1  N   UNL     1       0.050  -2.798   2.395  0.00  0.00    -0.210 N 
ATOM      2  C   UNL     1       0.141  -2.196   3.587  0.00  0.00    +0.232 C 
ATOM      3  O   UNL     1       0.218  -0.999   3.762  0.00  0.00    -0.274 OA
ATOM      4  C   UNL     1       0.131  -3.240   4.680  0.00  0.00    +0.107 C 
ATOM      5  C   UNL     1       1.520  -3.281   5.353  0.00  0.00    +0.068 C 
ATOM      6  N   UNL     1       1.852  -4.727   5.454  0.00  0.00    -0.295 NA
ATOM      7  C   UNL     1       1.349  -5.302   4.191  0.00  0.00    +0.136 C 
ATOM      8  C   UNL     1       0.012  -4.577   3.896  0.00  0.00    +0.123 C 
ATOM      9  C   UNL     1      -0.030  -4.133   2.452  0.00  0.00    +0.233 C 
ATOM     10  O   UNL     1      -0.120  -4.870   1.494  0.00  0.00    -0.274 OA
ATOM     11  C   UNL     1       2.339  -5.129   3.075  0.00  0.00    +0.004 A 
ATOM     12  C   UNL     1       2.926  -4.029   2.489  0.00  0.00    +0.009 A 
ATOM     13  C   UNL     1       3.827  -4.194   1.453  0.00  0.00    +0.021 A 
ATOM     14  C   UNL     1       4.137  -5.467   1.005  0.00  0.00    +0.046 A 
ATOM     15  C   UNL     1       3.550  -6.572   1.589  0.00  0.00    -0.011 A 
ATOM     16  C   UNL     1       2.642  -6.414   2.633  0.00  0.00    +0.043 A 
ATOM     17  N   UNL     1       1.929  -7.359   3.373  0.00  0.00    -0.283 N 
ATOM     18  C   UNL     1       1.147  -6.788   4.309  0.00  0.00    +0.243 C 
ATOM     19  O   UNL     1       0.420  -7.360   5.093  0.00  0.00    -0.273 OA
ATOM     20  C   UNL     1       3.893  -7.953   1.095  0.00  0.00    +0.047 C 
ATOM     21 CL   UNL     1       5.268  -5.674  -0.295  0.00  0.00    -0.083 Cl
ATOM     22  H   UNL     1       2.848  -4.864   5.542  0.00  0.00    +0.123 HD
ATOM     23  H   UNL     1       1.990  -8.317   3.230  0.00  0.00    +0.155 HD
ENDROOT
BRANCH   1  29
ATOM     24  C   UNL     1      -2.365  -1.359  -1.641  0.00  0.00    +0.044 C 
ATOM     25  C   UNL     1      -1.122  -1.375  -0.789  0.00  0.00    -0.049 A 
ATOM     26  C   UNL     1       0.006  -0.689  -1.200  0.00  0.00    +0.003 A 
ATOM     27  C   UNL     1       1.149  -0.701  -0.421  0.00  0.00    +0.002 A 
ATOM     28  C   UNL     1       1.166  -1.399   0.770  0.00  0.00    +0.024 A 
ATOM     29  C   UNL     1       0.035  -2.089   1.186  0.00  0.00    +0.044 A 
ATOM     30  C   UNL     1      -1.112  -2.070   0.405  0.00  0.00    +0.027 A 
ENDBRANCH   1  29
BRANCH   5  31
ATOM     31  C   UNL     1       1.455  -2.650   6.745  0.00  0.00    +0.028 C 
BRANCH  31  32
ATOM     32  C   UNL     1       2.862  -2.588   7.343  0.00  0.00    +0.097 C 
BRANCH  32  33
ATOM     33  C   UNL     1       2.798  -1.966   8.714  0.00  0.00    +0.211 C 
ATOM     34  O   UNL     1       1.732  -1.607   9.169  0.00  0.00    -0.276 OA
ATOM     35  N   UNL     1       3.926  -1.808   9.436  0.00  0.00    -0.329 N 
ATOM     36  H   UNL     1       4.778  -2.094   9.072  0.00  0.00    +0.145 HD
ATOM     37  H   UNL     1       3.885  -1.407  10.318  0.00  0.00    +0.145 HD
ENDBRANCH  32  33
ENDBRANCH  31  32
ENDBRANCH   5  31
TORSDOF 4
