REMARK  Name = ZINC09505612
REMARK  10 active torsions:
REMARK  status: ('A' for Active; 'I' for Inactive)
REMARK    1  A    between atoms: C_1  and  C_2
REMARK    2  A    between atoms: C_4  and  C_32
REMARK    3  A    between atoms: N_11  and  C_12
REMARK    4  A    between atoms: C_12  and  C_13
REMARK    5  A    between atoms: C_13  and  N_60
REMARK    6  A    between atoms: C_14  and  N_60
REMARK    7  A    between atoms: C_15  and  N_60
REMARK    8  A    between atoms: C_16  and  C_18
REMARK    9  A    between atoms: N_23  and  S_24
REMARK   10  A    between atoms: S_24  and  C_27
REMARK                            x       y       z     vdW  Elec       q    Type
REMARK                         _______ _______ _______ _____ _____    ______ ____
ROOT
ATOM      1  C   UNL     1      -4.422   7.843  -3.920  0.00  0.00    +0.044 C 
ATOM      2  C   UNL     1      -3.499   7.241  -2.891  0.00  0.00    -0.049 A 
ATOM      3  C   UNL     1      -2.598   8.042  -2.204  0.00  0.00    +0.009 A 
ATOM      4  C   UNL     1      -1.748   7.520  -1.265  0.00  0.00    -0.024 A 
ATOM      5  C   UNL     1      -1.762   6.138  -0.965  0.00  0.00    +0.083 A 
ATOM      6  C   UNL     1      -2.693   5.354  -1.684  0.00  0.00    +0.041 A 
ATOM      7  C   UNL     1      -3.541   5.885  -2.623  0.00  0.00    +0.020 A 
ATOM      8  S   UNL     1      -2.399   3.727  -1.032  0.00  0.00    -0.052 S 
ATOM      9  C   UNL     1      -1.104   4.175   0.115  0.00  0.00    +0.168 A 
ATOM     10  N   UNL     1      -1.001   5.471  -0.071  0.00  0.00    -0.224 NA
ATOM     11  N   UNL     1      -0.393   3.363   0.984  0.00  0.00    -0.251 N 
ATOM     12  C   UNL     1       0.616   3.878   1.714  0.00  0.00    +0.240 C 
ATOM     13  O   UNL     1       1.183   3.189   2.535  0.00  0.00    -0.273 OA
ATOM     14  C   UNL     1      -0.786   8.429  -0.544  0.00  0.00    +0.046 C 
ENDROOT
BRANCH  12  15
ATOM     15  C   UNL     1       1.041   5.309   1.508  0.00  0.00    +0.166 C 
ATOM     16  C   UNL     1       0.222   6.237   2.430  0.00  0.00    +0.031 C 
ATOM     17  C   UNL     1       1.173   6.441   3.644  0.00  0.00    +0.019 C 
ATOM     18  C   UNL     1       2.559   6.463   2.954  0.00  0.00    +0.110 C 
ATOM     19  N   UNL     1       2.457   5.467   1.871  0.00  0.00    -0.164 NA
BRANCH  19  20
ATOM     20  S   UNL     1       3.727   4.662   1.178  0.00  0.00    +0.068 S 
ATOM     21  O   UNL     1       4.778   4.662   2.133  0.00  0.00    -0.152 OA
ATOM     22  O   UNL     1       3.196   3.463   0.629  0.00  0.00    -0.152 OA
BRANCH  20  23
ATOM     23  C   UNL     1       4.281   5.636  -0.182  0.00  0.00    +0.143 A 
ATOM     24  C   UNL     1       5.215   6.618  -0.204  0.00  0.00    +0.036 A 
ATOM     25  C   UNL     1       5.494   7.251  -1.400  0.00  0.00    +0.010 A 
ATOM     26  C   UNL     1       4.819   6.878  -2.515  0.00  0.00    +0.047 A 
ATOM     27  S   UNL     1       3.754   5.590  -1.887  0.00  0.00    -0.077 S 
ENDBRANCH  20  23
ENDBRANCH  19  20
ENDBRANCH  12  15
BRANCH  11  28
ATOM     28  C   UNL     1      -0.739   1.945   1.109  0.00  0.00    +0.097 C 
BRANCH  28  29
ATOM     29  C   UNL     1       0.147   1.119   0.174  0.00  0.00    -0.060 C 
BRANCH  29  32
ATOM     30  C   UNL     1      -1.478  -0.665  -0.020  0.00  0.00    -0.097 C 
ATOM     31  C   UNL     1       0.878  -1.137  -0.312  0.00  0.00    -0.097 C 
ATOM     32  N   UNL     1      -0.111  -0.316   0.418  0.00  0.00    +0.377 N 
ATOM     33  H   UNL     1      -0.024  -0.504   1.423  0.00  0.00    -0.083 HD
ENDBRANCH  29  32
ENDBRANCH  28  29
ENDBRANCH  11  28
TORSDOF 6
