REMARK  Name = ZINC46761871
REMARK  14 active torsions:
REMARK  status: ('A' for Active; 'I' for Inactive)
REMARK    1  A    between atoms: C_1  and  C_2
REMARK    2  A    between atoms: C_2  and  N_3
REMARK    3  A    between atoms: N_3  and  C_4
REMARK    4  A    between atoms: N_3  and  C_24
REMARK    5  A    between atoms: C_4  and  C_5
REMARK    6  A    between atoms: N_7  and  N_8
REMARK    7  A    between atoms: C_11  and  C_15
REMARK    8  A    between atoms: C_11  and  C_16
REMARK    9  A    between atoms: C_16  and  C_17
REMARK   10  A    between atoms: C_17  and  C_18
REMARK   11  A    between atoms: C_24  and  C_26
REMARK   12  A    between atoms: C_24  and  C_27
REMARK   13  A    between atoms: C_31  and  O_33
REMARK   14  A    between atoms: O_33  and  C_34
REMARK                            x       y       z     vdW  Elec       q    Type
REMARK                         _______ _______ _______ _____ _____    ______ ____
ROOT
ATOM      1  C   UNL     1       1.769  -2.227   0.093  0.00  0.00    +0.213 C 
ATOM      2  O   UNL     1       2.208  -1.364  -0.637  0.00  0.00    -0.276 OA
ATOM      3  N   UNL     1       2.112  -3.516  -0.105  0.00  0.00    -0.225 N 
ATOM      4  H   UNL     1       1.762  -4.206   0.479  0.00  0.00    +0.173 HD
ENDROOT
BRANCH   3   5
ATOM      5  N   UNL     1       2.976  -3.857  -1.154  0.00  0.00    -0.137 N 
ATOM      6  C   UNL     1       2.578  -4.439  -2.303  0.00  0.00    +0.263 C 
ATOM      7  O   UNL     1       1.449  -4.755  -2.611  0.00  0.00    -0.271 OA
ATOM      8  C   UNL     1       3.837  -4.617  -3.129  0.00  0.00    +0.112 C 
ATOM      9  N   UNL     1       4.896  -4.063  -2.269  0.00  0.00    -0.284 N 
ATOM     10  C   UNL     1       4.296  -3.640  -1.142  0.00  0.00    +0.326 C 
ATOM     11  O   UNL     1       4.887  -3.123  -0.215  0.00  0.00    -0.251 OA
ATOM     12  C   UNL     1       3.737  -3.830  -4.437  0.00  0.00    +0.041 C 
ATOM     13  H   UNL     1       5.843  -4.010  -2.477  0.00  0.00    +0.151 HD
BRANCH   8  14
ATOM     14  C   UNL     1       4.091  -6.100  -3.409  0.00  0.00    +0.040 C 
BRANCH  14  15
ATOM     15  C   UNL     1       5.429  -6.259  -4.135  0.00  0.00    +0.038 C 
BRANCH  15  16
ATOM     16  C   UNL     1       5.680  -7.720  -4.411  0.00  0.00    -0.047 A 
ATOM     17  C   UNL     1       6.349  -8.493  -3.481  0.00  0.00    +0.003 A 
ATOM     18  C   UNL     1       6.579  -9.833  -3.734  0.00  0.00    +0.000 A 
ATOM     19  C   UNL     1       6.139 -10.398  -4.916  0.00  0.00    +0.000 A 
ATOM     20  C   UNL     1       5.469  -9.625  -5.845  0.00  0.00    +0.000 A 
ATOM     21  C   UNL     1       5.235  -8.286  -5.590  0.00  0.00    +0.003 A 
ENDBRANCH  15  16
ENDBRANCH  14  15
ENDBRANCH   8  14
ENDBRANCH   3   5
BRANCH   1  22
ATOM     22  C   UNL     1       0.840  -1.860   1.221  0.00  0.00    +0.021 C 
BRANCH  22  23
ATOM     23  N   UNL     1       0.624  -0.407   1.224  0.00  0.00    +0.390 N 
ATOM     24  H   UNL     1       1.515   0.066   1.266  0.00  0.00    -0.080 HD
BRANCH  23  26
ATOM     25  C   UNL     1      -1.460  -0.678  -0.033  0.00  0.00    -0.017 C 
ATOM     26  C   UNL     1      -0.082  -0.015  -0.003  0.00  0.00    -0.081 C 
ENDBRANCH  23  26
BRANCH  23  27
ATOM     27  C   UNL     1      -0.183  -0.034   2.393  0.00  0.00    -0.040 C 
ATOM     28  C   UNL     1       0.609  -0.318   3.671  0.00  0.00    -0.008 C 
BRANCH  27  29
ATOM     29  C   UNL     1      -0.518   1.433   2.326  0.00  0.00    -0.058 A 
ATOM     30  C   UNL     1       0.471   2.355   2.035  0.00  0.00    +0.002 A 
ATOM     31  C   UNL     1       0.167   3.702   1.972  0.00  0.00    +0.004 A 
ATOM     32  C   UNL     1      -1.127   4.131   2.200  0.00  0.00    +0.045 A 
ATOM     33  C   UNL     1      -2.121   3.208   2.492  0.00  0.00    +0.120 A 
ATOM     34  C   UNL     1      -1.814   1.856   2.548  0.00  0.00    +0.047 A 
BRANCH  33  35
ATOM     35  O   UNL     1      -3.394   3.628   2.716  0.00  0.00    -0.495 OA
ATOM     36  C   UNL     1      -3.638   5.034   2.636  0.00  0.00    +0.277 C 
ENDBRANCH  33  35
ENDBRANCH  27  29
ENDBRANCH  23  27
ENDBRANCH  22  23
ENDBRANCH   1  22
TORSDOF 10
