REMARK  Name = ZINC35039145
REMARK  8 active torsions:
REMARK  status: ('A' for Active; 'I' for Inactive)
REMARK    1  A    between atoms: C_1  and  C_2
REMARK    2  A    between atoms: C_2  and  C_3
REMARK    3  A    between atoms: C_3  and  C_4
REMARK    4  A    between atoms: C_4  and  N_5
REMARK    5  A    between atoms: N_11  and  C_14
REMARK    6  A    between atoms: C_14  and  C_16
REMARK    7  A    between atoms: C_14  and  C_17
REMARK    8  A    between atoms: N_27  and  C_28
REMARK                            x       y       z     vdW  Elec       q    Type
REMARK                         _______ _______ _______ _____ _____    ______ ____
ROOT
ATOM      1  C   UNL     1      -9.323  -5.220   1.433  0.00  0.00    +0.104 A 
ATOM      2  N   UNL     1      -9.732  -5.376   0.211  0.00  0.00    -0.235 NA
ATOM      3  C   UNL     1     -10.909  -4.855  -0.217  0.00  0.00    +0.078 A 
ATOM      4  C   UNL     1     -11.350  -5.024  -1.532  0.00  0.00    +0.028 A 
ATOM      5  C   UNL     1     -12.551  -4.478  -1.923  0.00  0.00    +0.002 A 
ATOM      6  C   UNL     1     -13.333  -3.760  -1.027  0.00  0.00    +0.001 A 
ATOM      7  C   UNL     1     -12.919  -3.580   0.274  0.00  0.00    +0.015 A 
ATOM      8  C   UNL     1     -11.707  -4.125   0.692  0.00  0.00    +0.065 A 
ATOM      9  C   UNL     1     -11.216  -3.966   2.068  0.00  0.00    +0.266 A 
ATOM     10  O   UNL     1     -11.855  -3.348   2.900  0.00  0.00    -0.267 OA
ATOM     11  N   UNL     1     -10.028  -4.537   2.376  0.00  0.00    -0.266 N 
ENDROOT
BRANCH  11  12
ATOM     12  C   UNL     1      -9.517  -4.419   3.675  0.00  0.00    +0.051 A 
ATOM     13  C   UNL     1      -8.427  -3.595   3.921  0.00  0.00    +0.027 A 
ATOM     14  C   UNL     1      -7.925  -3.481   5.203  0.00  0.00    +0.017 A 
ATOM     15  C   UNL     1      -8.507  -4.187   6.240  0.00  0.00    +0.018 A 
ATOM     16  C   UNL     1      -9.592  -5.010   5.997  0.00  0.00    +0.017 A 
ATOM     17  C   UNL     1     -10.102  -5.122   4.719  0.00  0.00    +0.027 A 
ATOM     18 BR   UNL     1      -7.816  -4.029   7.994  0.00  0.00    -0.050 Br
ENDBRANCH  11  12
BRANCH   1  19
ATOM     19  C   UNL     1      -8.004  -5.831   1.830  0.00  0.00    -0.003 C 
ATOM     20  C   UNL     1      -8.223  -7.282   2.262  0.00  0.00    -0.005 C 
BRANCH  19  27
ATOM     21  N   UNL     1      -2.436  -5.415  -0.848  0.00  0.00    -0.299 N 
ATOM     22  C   UNL     1      -3.532  -4.641  -0.976  0.00  0.00    +0.302 C 
ATOM     23  O   UNL     1      -3.420  -3.483  -1.329  0.00  0.00    -0.253 OA
ATOM     24  N   UNL     1      -4.752  -5.150  -0.713  0.00  0.00    -0.289 N 
ATOM     25  C   UNL     1      -5.970  -4.363  -0.961  0.00  0.00    +0.091 C 
ATOM     26  C   UNL     1      -6.836  -4.399   0.302  0.00  0.00    -0.059 C 
ATOM     27  N   UNL     1      -7.084  -5.795   0.685  0.00  0.00    +0.388 N 
ATOM     28  C   UNL     1      -5.820  -6.444   1.055  0.00  0.00    -0.059 C 
ATOM     29  C   UNL     1      -4.903  -6.511  -0.176  0.00  0.00    +0.091 C 
ATOM     30  H   UNL     1      -2.517  -6.316  -0.499  0.00  0.00    +0.150 HD
ATOM     31  H   UNL     1      -7.499  -6.287  -0.092  0.00  0.00    -0.081 HD
BRANCH  21  32
ATOM     32  C   UNL     1      -1.123  -4.896  -1.236  0.00  0.00    +0.106 C 
BRANCH  32  33
ATOM     33  C   UNL     1      -0.058  -5.967  -0.992  0.00  0.00    +0.018 C 
BRANCH  33  35
ATOM     34  C   UNL     1       2.379  -6.496  -1.153  0.00  0.00    +0.004 C 
ATOM     35  C   UNL     1       1.314  -5.424  -1.397  0.00  0.00    -0.002 C 
ENDBRANCH  33  35
ENDBRANCH  32  33
ENDBRANCH  21  32
ENDBRANCH  19  27
ENDBRANCH   1  19
TORSDOF 6
