REMARK  Name = ZINC07126243
REMARK  5 active torsions:
REMARK  status: ('A' for Active; 'I' for Inactive)
REMARK    1  A    between atoms: C_1  and  C_2
REMARK    2  A    between atoms: C_2  and  C_3
REMARK    3  A    between atoms: C_3  and  O_4
REMARK    4  A    between atoms: O_4  and  C_5
REMARK    5  A    between atoms: C_10  and  C_11
REMARK                            x       y       z     vdW  Elec       q    Type
REMARK                         _______ _______ _______ _____ _____    ______ ____
ROOT
ATOM      1  C   UNL     1      -1.397  -4.787  -0.011  0.00  0.00    +0.212 C 
ATOM      2  N   UNL     1      -1.646  -6.126   0.553  0.00  0.00    -0.294 N 
ATOM      3  C   UNL     1      -2.221  -7.081  -0.272  0.00  0.00    +0.159 C 
ATOM      4  N   UNL     1      -1.608  -7.283  -1.509  0.00  0.00    -0.259 N 
ATOM      5  C   UNL     1      -1.053  -6.144  -2.087  0.00  0.00    +0.205 A 
ATOM      6  N   UNL     1      -0.937  -4.959  -1.394  0.00  0.00    -0.288 N 
ATOM      7  C   UNL     1      -0.346  -4.056  -2.230  0.00  0.00    +0.072 A 
ATOM      8  C   UNL     1       0.021  -2.725  -2.077  0.00  0.00    +0.028 A 
ATOM      9  C   UNL     1       0.612  -2.103  -3.165  0.00  0.00    +0.002 A 
ATOM     10  C   UNL     1       0.832  -2.768  -4.359  0.00  0.00    +0.002 A 
ATOM     11  C   UNL     1       0.476  -4.093  -4.538  0.00  0.00    +0.030 A 
ATOM     12  C   UNL     1      -0.121  -4.741  -3.451  0.00  0.00    +0.091 A 
ATOM     13  N   UNL     1      -0.577  -6.004  -3.294  0.00  0.00    -0.214 NA
ATOM     14  N   UNL     1      -3.277  -7.754   0.088  0.00  0.00    -0.375 N 
ATOM     15  H   UNL     1      -1.414  -6.333   1.472  0.00  0.00    +0.151 HD
ATOM     16  H   UNL     1      -3.683  -7.593   0.955  0.00  0.00    +0.158 HD
ATOM     17  H   UNL     1      -1.571  -8.153  -1.935  0.00  0.00    +0.158 HD
ATOM     18  H   UNL     1      -3.659  -8.415  -0.510  0.00  0.00    +0.158 HD
ENDROOT
BRANCH   1  24
ATOM     19  C   UNL     1      -3.116  -3.412   1.190  0.00  0.00    +0.127 A 
ATOM     20  C   UNL     1      -4.286  -2.666   1.202  0.00  0.00    +0.047 A 
ATOM     21  C   UNL     1      -5.008  -2.497   0.036  0.00  0.00    +0.019 A 
ATOM     22  C   UNL     1      -4.566  -3.071  -1.142  0.00  0.00    +0.018 A 
ATOM     23  C   UNL     1      -3.400  -3.816  -1.156  0.00  0.00    +0.026 A 
ATOM     24  C   UNL     1      -2.671  -3.982   0.006  0.00  0.00    +0.036 A 
ATOM     25 BR   UNL     1      -5.556  -2.839  -2.736  0.00  0.00    -0.050 Br
BRANCH  19  26
ATOM     26  O   UNL     1      -2.404  -3.579   2.336  0.00  0.00    -0.492 OA
BRANCH  26  27
ATOM     27  C   UNL     1      -2.922  -2.964   3.517  0.00  0.00    +0.229 C 
BRANCH  27  29
ATOM     28  C   UNL     1      -2.547  -2.601   5.960  0.00  0.00    +0.007 C 
ATOM     29  C   UNL     1      -1.993  -3.260   4.695  0.00  0.00    +0.038 C 
ENDBRANCH  27  29
ENDBRANCH  26  27
ENDBRANCH  19  26
ENDBRANCH   1  24
TORSDOF 4
