REMARK  Name = ZINC17193852
REMARK  6 active torsions:
REMARK  status: ('A' for Active; 'I' for Inactive)
REMARK    1  A    between atoms: C_3  and  C_24
REMARK    2  A    between atoms: C_5  and  N_7
REMARK    3  A    between atoms: C_12  and  C_13
REMARK    4  A    between atoms: C_12  and  N_47
REMARK    5  A    between atoms: C_13  and  C_14
REMARK    6  A    between atoms: C_17  and  N_21
REMARK                            x       y       z     vdW  Elec       q    Type
REMARK                         _______ _______ _______ _____ _____    ______ ____
ROOT
ATOM      1  N   UNL     1      -0.069   5.239   0.030  0.00  0.00    -0.333 N 
ATOM      2  C   UNL     1      -0.850   5.761  -1.099  0.00  0.00    +0.086 C 
ATOM      3  C   UNL     1      -0.913   7.288  -1.011  0.00  0.00    -0.060 C 
ATOM      4  C   UNL     1       1.233   7.311   0.108  0.00  0.00    -0.060 C 
ATOM      5  C   UNL     1       1.296   5.784   0.020  0.00  0.00    +0.086 C 
ATOM      6  N   UNL     1       0.464   7.824  -1.045  0.00  0.00    +0.382 N 
ATOM      7  H   UNL     1       0.919   7.518  -1.913  0.00  0.00    -0.082 HD
ENDROOT
BRANCH   1  12
ATOM      8  C   UNL     1       1.177   1.782   0.000  0.00  0.00    +0.002 A 
ATOM      9  C   UNL     1      -0.013   1.076   0.008  0.00  0.00    +0.012 A 
ATOM     10  C   UNL     1      -1.220   1.749   0.017  0.00  0.00    +0.057 A 
ATOM     11  C   UNL     1      -1.242   3.130   0.031  0.00  0.00    +0.035 A 
ATOM     12  C   UNL     1      -0.050   3.842   0.023  0.00  0.00    +0.030 A 
ATOM     13  C   UNL     1       1.161   3.163   0.008  0.00  0.00    +0.023 A 
BRANCH  10  14
ATOM     14  C   UNL     1      -2.513   0.976   0.019  0.00  0.00    +0.417 C 
ATOM     15  F   UNL     1      -2.236  -0.396   0.010  0.00  0.00    -0.166 F 
ATOM     16  F   UNL     1      -3.247   1.295   1.166  0.00  0.00    -0.166 F 
ATOM     17  F   UNL     1      -3.257   1.309  -1.118  0.00  0.00    -0.166 F 
ENDBRANCH  10  14
ENDBRANCH   1  12
BRANCH   6  18
ATOM     18  C   UNL     1       0.431   9.302  -1.014  0.00  0.00    -0.074 C 
BRANCH  18  19
ATOM     19  C   UNL     1      -0.584   9.803  -2.043  0.00  0.00    +0.016 C 
BRANCH  19  20
ATOM     20  C   UNL     1      -0.604  11.310  -2.035  0.00  0.00    -0.048 A 
ATOM     21  C   UNL     1      -1.481  11.982  -1.191  0.00  0.00    +0.006 A 
ATOM     22  C   UNL     1      -1.509  13.344  -1.168  0.00  0.00    +0.032 A 
ATOM     23  C   UNL     1      -0.644  14.078  -2.020  0.00  0.00    +0.113 A 
ATOM     24  C   UNL     1       0.242  13.378  -2.880  0.00  0.00    +0.042 A 
ATOM     25  C   UNL     1       0.249  12.013  -2.875  0.00  0.00    +0.020 A 
ATOM     26  I   UNL     1       1.531  14.433  -4.149  0.00  0.00    -0.042 I 
BRANCH  23  27
ATOM     27  N   UNL     1      -0.663  15.402  -2.013  0.00  0.00    -0.071 NA
ATOM     28  N   UNL     1      -1.367  15.951  -1.330  0.00  0.00    -0.162 NA
ATOM     29  N   UNL     1      -2.071  16.499  -0.646  0.00  0.00    +0.068 NA
ENDBRANCH  23  27
ENDBRANCH  19  20
ENDBRANCH  18  19
ENDBRANCH   6  18
TORSDOF 6
