REMARK  Name = ZINC34756586
REMARK  9 active torsions:
REMARK  status: ('A' for Active; 'I' for Inactive)
REMARK    1  A    between atoms: C_1  and  C_2
REMARK    2  A    between atoms: C_2  and  N_3
REMARK    3  A    between atoms: N_3  and  C_4
REMARK    4  A    between atoms: C_4  and  C_5
REMARK    5  A    between atoms: C_6  and  C_8
REMARK    6  A    between atoms: C_8  and  S_9
REMARK    7  A    between atoms: S_9  and  C_10
REMARK    8  A    between atoms: N_26  and  C_29
REMARK    9  A    between atoms: C_29  and  C_30
REMARK                            x       y       z     vdW  Elec       q    Type
REMARK                         _______ _______ _______ _____ _____    ______ ____
ROOT
ATOM      1  C   UNL     1       5.298  -0.451  -1.439  0.00  0.00    +0.191 A 
ATOM      2  N   UNL     1       6.605  -0.625  -1.594  0.00  0.00    -0.206 NA
ATOM      3  C   UNL     1       7.219  -0.360  -2.735  0.00  0.00    +0.134 A 
ATOM      4  C   UNL     1       6.460   0.128  -3.836  0.00  0.00    +0.051 A 
ATOM      5  C   UNL     1       6.923   0.486  -5.179  0.00  0.00    -0.025 A 
ATOM      6  C   UNL     1       5.993   0.928  -6.048  0.00  0.00    -0.004 A 
ATOM      7  S   UNL     1       4.466   0.895  -5.149  0.00  0.00    -0.073 S 
ATOM      8  C   UNL     1       5.081   0.287  -3.600  0.00  0.00    +0.115 A 
ATOM      9  N   UNL     1       4.541  -0.004  -2.433  0.00  0.00    -0.214 NA
ATOM     10  C   UNL     1       6.208   1.355  -7.469  0.00  0.00    +0.043 C 
ATOM     11  C   UNL     1       7.712   1.572  -7.687  0.00  0.00    +0.005 C 
ATOM     12  C   UNL     1       8.468   0.366  -7.121  0.00  0.00    +0.005 C 
ATOM     13  C   UNL     1       8.387   0.373  -5.594  0.00  0.00    +0.037 C 
ATOM     14  N   UNL     1       8.583  -0.555  -2.857  0.00  0.00    -0.318 N 
ATOM     15  C   UNL     1       9.526   0.555  -2.652  0.00  0.00    +0.088 C 
ATOM     16  C   UNL     1      10.607   0.098  -1.667  0.00  0.00    -0.059 C 
ATOM     17  N   UNL     1      11.225  -1.140  -2.160  0.00  0.00    +0.387 N 
ATOM     18  C   UNL     1      10.230  -2.220  -2.184  0.00  0.00    -0.059 C 
ATOM     19  C   UNL     1       9.131  -1.879  -3.189  0.00  0.00    +0.088 C 
ATOM     20  H   UNL     1      11.579  -0.990  -3.092  0.00  0.00    -0.081 HD
ENDROOT
BRANCH   1  21
ATOM     21  S   UNL     1       4.554  -0.827   0.113  0.00  0.00    -0.077 S 
BRANCH  21  22
ATOM     22  C   UNL     1       2.797  -0.452  -0.140  0.00  0.00    +0.173 C 
BRANCH  22  24
ATOM     23  N   UNL     1       0.704  -0.526   1.177  0.00  0.00    -0.301 N 
ATOM     24  C   UNL     1       2.035  -0.734   1.130  0.00  0.00    +0.226 C 
ATOM     25  O   UNL     1       2.620  -1.147   2.108  0.00  0.00    -0.275 OA
BRANCH  23  27
ATOM     26  C   UNL     1      -0.021   1.502   0.020  0.00  0.00    +0.024 C 
ATOM     27  C   UNL     1      -0.002  -0.027  -0.006  0.00  0.00    +0.104 C 
ENDBRANCH  23  27
BRANCH  23  28
ATOM     28  C   UNL     1      -0.036  -0.800   2.411  0.00  0.00    +0.104 C 
ATOM     29  C   UNL     1      -0.521  -2.252   2.404  0.00  0.00    +0.024 C 
ENDBRANCH  23  28
ENDBRANCH  22  24
ENDBRANCH  21  22
ENDBRANCH   1  21
BRANCH  17  30
ATOM     30  C   UNL     1      12.334  -1.518  -1.274  0.00  0.00    +0.019 C 
BRANCH  30  31
ATOM     31  C   UNL     1      13.046  -2.717  -1.844  0.00  0.00    +0.199 C 
ATOM     32  O   UNL     1      12.668  -3.209  -2.886  0.00  0.00    -0.278 OA
ATOM     33  N   UNL     1      14.105  -3.243  -1.196  0.00  0.00    -0.303 N 
ATOM     34  C   UNL     1      14.663  -2.753   0.073  0.00  0.00    +0.108 C 
ATOM     35  C   UNL     1      15.875  -3.645   0.415  0.00  0.00    +0.020 C 
ATOM     36  C   UNL     1      16.276  -4.231  -0.965  0.00  0.00    +0.020 C 
ATOM     37  C   UNL     1      14.890  -4.410  -1.639  0.00  0.00    +0.108 C 
ENDBRANCH  30  31
ENDBRANCH  17  30
TORSDOF 7
