REMARK  Name = ZINC42737098
REMARK  11 active torsions:
REMARK  status: ('A' for Active; 'I' for Inactive)
REMARK    1  A    between atoms: C_1  and  C_2
REMARK    2  A    between atoms: C_2  and  C_4
REMARK    3  A    between atoms: C_2  and  N_8
REMARK    4  A    between atoms: C_4  and  C_5
REMARK    5  A    between atoms: C_4  and  C_6
REMARK    6  A    between atoms: C_4  and  C_7
REMARK    7  A    between atoms: N_8  and  C_9
REMARK    8  A    between atoms: N_8  and  C_10
REMARK    9  A    between atoms: C_10  and  C_11
REMARK   10  A    between atoms: N_13  and  C_14
REMARK   11  A    between atoms: C_17  and  N_21
REMARK                            x       y       z     vdW  Elec       q    Type
REMARK                         _______ _______ _______ _____ _____    ______ ____
ROOT
ATOM      1  C   UNL     1       2.201  -0.625  -2.108  0.00  0.00    +0.201 C 
ATOM      2  O   UNL     1       2.973   0.299  -1.957  0.00  0.00    -0.278 OA
ATOM      3  N   UNL     1       2.398  -1.512  -3.103  0.00  0.00    -0.286 N 
ATOM      4  H   UNL     1       1.749  -2.215  -3.262  0.00  0.00    +0.155 HD
ENDROOT
BRANCH   3   5
ATOM      5  C   UNL     1       3.542  -1.419  -3.909  0.00  0.00    +0.048 A 
ATOM      6  C   UNL     1       4.727  -0.929  -3.378  0.00  0.00    +0.026 A 
ATOM      7  C   UNL     1       5.854  -0.837  -4.171  0.00  0.00    +0.024 A 
ATOM      8  C   UNL     1       5.801  -1.234  -5.501  0.00  0.00    +0.026 A 
ATOM      9  C   UNL     1       4.615  -1.724  -6.033  0.00  0.00    +0.039 A 
ATOM     10  C   UNL     1       3.490  -1.821  -5.238  0.00  0.00    +0.041 A 
ATOM     11 BR   UNL     1       1.877  -2.495  -5.959  0.00  0.00    -0.048 Br
BRANCH   8  12
ATOM     12  N   UNL     1       6.942  -1.141  -6.305  0.00  0.00    -0.358 N 
ATOM     13  H   UNL     1       7.770  -0.798  -5.933  0.00  0.00    +0.142 HD
ATOM     14  H   UNL     1       6.905  -1.418  -7.234  0.00  0.00    +0.142 HD
ENDBRANCH   8  12
ENDBRANCH   3   5
BRANCH   1  15
ATOM     15  C   UNL     1       1.023  -0.781  -1.182  0.00  0.00    +0.019 C 
BRANCH  15  16
ATOM     16  N   UNL     1       1.032   0.303  -0.191  0.00  0.00    +0.386 N 
ATOM     17  C   UNL     1       0.514   1.533  -0.806  0.00  0.00    -0.095 C 
ATOM     18  H   UNL     1       1.976   0.459   0.129  0.00  0.00    -0.081 HD
BRANCH  16  20
ATOM     19  C   UNL     1       0.957  -1.008   1.876  0.00  0.00    -0.013 C 
ATOM     20  C   UNL     1       0.183  -0.068   0.949  0.00  0.00    -0.066 C 
BRANCH  20  21
ATOM     21  C   UNL     1      -1.075  -0.775   0.440  0.00  0.00    -0.050 C 
ATOM     22  C   UNL     1      -2.060  -0.960   1.596  0.00  0.00    +0.009 C 
ATOM     23  C   UNL     1      -1.727   0.070  -0.656  0.00  0.00    +0.009 C 
ATOM     24  C   UNL     1      -0.695  -2.144  -0.130  0.00  0.00    +0.009 C 
ENDBRANCH  20  21
ENDBRANCH  16  20
ENDBRANCH  15  16
ENDBRANCH   1  15
TORSDOF 6
