REMARK  Name = ZINC66980867
REMARK  8 active torsions:
REMARK  status: ('A' for Active; 'I' for Inactive)
REMARK    1  A    between atoms: C_1  and  C_2
REMARK    2  A    between atoms: N_4  and  C_5
REMARK    3  A    between atoms: C_7  and  N_13
REMARK    4  A    between atoms: N_16  and  C_17
REMARK    5  A    between atoms: C_17  and  C_18
REMARK    6  A    between atoms: C_18  and  C_19
REMARK    7  A    between atoms: C_18  and  C_20
REMARK    8  A    between atoms: C_18  and  N_21
REMARK                            x       y       z     vdW  Elec       q    Type
REMARK                         _______ _______ _______ _____ _____    ______ ____
ROOT
ATOM      1  N   UNL     1       1.158  -5.018  -0.408  0.00  0.00    -0.267 N 
ATOM      2  C   UNL     1       2.300  -4.381  -0.082  0.00  0.00    +0.304 C 
ATOM      3  O   UNL     1       2.303  -3.175   0.068  0.00  0.00    -0.253 OA
ATOM      4  N   UNL     1       3.440  -5.082   0.079  0.00  0.00    -0.300 N 
ATOM      5  H   UNL     1       1.168  -5.972  -0.584  0.00  0.00    +0.156 HD
ATOM      6  H   UNL     1       3.438  -6.045  -0.040  0.00  0.00    +0.150 HD
ENDROOT
BRANCH   1   9
ATOM      7  C   UNL     1      -1.227  -2.277  -1.015  0.00  0.00    +0.071 A 
ATOM      8  C   UNL     1      -0.036  -2.984  -0.930  0.00  0.00    +0.052 A 
ATOM      9  C   UNL     1      -0.043  -4.301  -0.495  0.00  0.00    +0.072 A 
ATOM     10  C   UNL     1      -1.244  -4.910  -0.146  0.00  0.00    +0.147 A 
ATOM     11  C   UNL     1      -2.430  -4.204  -0.231  0.00  0.00    +0.080 A 
ATOM     12  C   UNL     1      -2.424  -2.888  -0.660  0.00  0.00    +0.147 A 
ATOM     13  F   UNL     1      -3.583  -2.199  -0.737  0.00  0.00    -0.203 F 
ATOM     14  F   UNL     1      -1.251  -6.194   0.277  0.00  0.00    -0.203 F 
BRANCH   7  18
ATOM     15  C   UNL     1      -0.376   0.864  -2.912  0.00  0.00    +0.109 C 
ATOM     16  C   UNL     1      -0.325  -0.543  -2.375  0.00  0.00    +0.214 C 
ATOM     17  O   UNL     1       0.524  -1.313  -2.772  0.00  0.00    -0.276 OA
ATOM     18  N   UNL     1      -1.222  -0.946  -1.453  0.00  0.00    -0.283 N 
ATOM     19  H   UNL     1      -1.865  -0.315  -1.093  0.00  0.00    +0.155 HD
ENDBRANCH   7  18
ENDBRANCH   1   9
BRANCH   4  20
ATOM     20  C   UNL     1       4.682  -4.391   0.434  0.00  0.00    +0.093 C 
BRANCH  20  21
ATOM     21  C   UNL     1       5.839  -5.391   0.439  0.00  0.00    -0.055 C 
ATOM     22  C   UNL     1       6.065  -5.917  -0.980  0.00  0.00    -0.008 C 
ATOM     23  C   UNL     1       7.110  -4.697   0.934  0.00  0.00    -0.008 C 
BRANCH  21  24
ATOM     24  N   UNL     1       5.514  -6.512   1.331  0.00  0.00    +0.384 N 
ATOM     25  C   UNL     1       5.204  -5.996   2.670  0.00  0.00    -0.078 C 
ATOM     26  C   UNL     1       4.786  -7.152   3.582  0.00  0.00    -0.019 C 
ATOM     27  C   UNL     1       5.933  -8.162   3.675  0.00  0.00    -0.004 C 
ATOM     28  C   UNL     1       6.298  -8.637   2.266  0.00  0.00    -0.019 C 
ATOM     29  C   UNL     1       6.660  -7.426   1.403  0.00  0.00    -0.078 C 
ATOM     30  H   UNL     1       4.713  -7.006   0.969  0.00  0.00    -0.081 HD
ENDBRANCH  21  24
ENDBRANCH  20  21
ENDBRANCH   4  20
TORSDOF 5
