REMARK  Name = ZINC11775212
REMARK  8 active torsions:
REMARK  status: ('A' for Active; 'I' for Inactive)
REMARK    1  A    between atoms: C_1  and  C_2
REMARK    2  A    between atoms: C_4  and  C_10
REMARK    3  A    between atoms: C_7  and  O_8
REMARK    4  A    between atoms: O_8  and  C_9
REMARK    5  A    between atoms: C_10  and  N_66
REMARK    6  A    between atoms: C_16  and  C_18
REMARK    7  A    between atoms: C_18  and  C_19
REMARK    8  A    between atoms: N_21  and  C_22
REMARK                            x       y       z     vdW  Elec       q    Type
REMARK                         _______ _______ _______ _____ _____    ______ ____
ROOT
ATOM      1  C   UNL     1      -0.408   1.507   7.672  0.00  0.00    -0.058 C 
ATOM      2  C   UNL     1      -1.469   1.871   8.712  0.00  0.00    +0.085 C 
ATOM      3  N   UNL     1      -1.901   3.253   8.524  0.00  0.00    -0.318 N 
ATOM      4  C   UNL     1      -1.693   3.932   7.390  0.00  0.00    +0.200 C 
ATOM      5  O   UNL     1      -2.112   5.067   7.308  0.00  0.00    -0.278 OA
ATOM      6  C   UNL     1      -0.964   3.346   6.215  0.00  0.00    +0.028 C 
ATOM      7  H   UNL     1      -2.357   3.700   9.254  0.00  0.00    +0.149 HD
ATOM      8  N   UNL     1      -0.927   1.877   6.340  0.00  0.00    +0.391 N 
ATOM      9  H   UNL     1      -1.879   1.507   6.236  0.00  0.00    -0.080 HD
ENDROOT
BRANCH   8  10
ATOM     10  C   UNL     1      -0.068   1.299   5.282  0.00  0.00    -0.042 C 
BRANCH  10  14
ATOM     11  C   UNL     1       2.308  -2.608   7.313  0.00  0.00    +0.047 C 
ATOM     12  C   UNL     1       1.186  -2.057   6.470  0.00  0.00    -0.009 A 
ATOM     13  C   UNL     1       1.080  -0.694   6.266  0.00  0.00    +0.008 A 
ATOM     14  C   UNL     1       0.049  -0.187   5.497  0.00  0.00    -0.063 A 
ATOM     15  C   UNL     1      -0.872  -1.043   4.922  0.00  0.00    +0.005 A 
ATOM     16  C   UNL     1      -0.767  -2.406   5.118  0.00  0.00    +0.046 A 
ATOM     17  C   UNL     1       0.264  -2.917   5.894  0.00  0.00    +0.123 A 
BRANCH  17  18
ATOM     18  O   UNL     1       0.369  -4.258   6.088  0.00  0.00    -0.495 OA
ATOM     19  C   UNL     1      -0.616  -5.083   5.464  0.00  0.00    +0.277 C 
ENDBRANCH  17  18
ENDBRANCH  10  14
ENDBRANCH   8  10
BRANCH   6  20
ATOM     20  C   UNL     1      -1.699   3.717   4.925  0.00  0.00    +0.089 C 
BRANCH  20  21
ATOM     21  C   UNL     1      -3.085   3.127   4.949  0.00  0.00    +0.212 C 
ATOM     22  O   UNL     1      -3.415   2.390   5.854  0.00  0.00    -0.276 OA
ATOM     23  N   UNL     1      -3.959   3.417   3.965  0.00  0.00    -0.310 N 
ATOM     24  H   UNL     1      -3.695   4.007   3.241  0.00  0.00    +0.149 HD
BRANCH  23  25
ATOM     25  C   UNL     1      -5.306   2.844   3.989  0.00  0.00    +0.035 C 
ATOM     26  C   UNL     1      -6.026   3.285   5.265  0.00  0.00    +0.029 C 
ATOM     27  C   UNL     1      -7.434   2.686   5.289  0.00  0.00    -0.008 C 
ATOM     28  C   UNL     1      -8.217   3.172   4.068  0.00  0.00    +0.007 C 
ATOM     29  C   UNL     1      -7.497   2.730   2.792  0.00  0.00    -0.008 C 
ATOM     30  C   UNL     1      -6.089   3.329   2.767  0.00  0.00    +0.029 C 
ATOM     31  C   UNL     1      -7.402   1.204   2.763  0.00  0.00    +0.007 C 
ATOM     32  C   UNL     1      -6.619   0.718   3.984  0.00  0.00    -0.008 C 
ATOM     33  C   UNL     1      -7.339   1.159   5.260  0.00  0.00    +0.007 C 
ATOM     34  C   UNL     1      -5.211   1.317   3.959  0.00  0.00    +0.029 C 
ENDBRANCH  23  25
ENDBRANCH  20  21
ENDBRANCH   6  20
TORSDOF 6
