REMARK  Name = ZINC66894731
REMARK  8 active torsions:
REMARK  status: ('A' for Active; 'I' for Inactive)
REMARK    1  A    between atoms: C_1  and  O_2
REMARK    2  A    between atoms: O_2  and  C_3
REMARK    3  A    between atoms: C_8  and  C_9
REMARK    4  A    between atoms: C_9  and  C_10
REMARK    5  A    between atoms: N_15  and  C_17
REMARK    6  A    between atoms: C_17  and  C_18
REMARK    7  A    between atoms: N_20  and  C_21
REMARK    8  A    between atoms: C_22  and  C_26
REMARK                            x       y       z     vdW  Elec       q    Type
REMARK                         _______ _______ _______ _____ _____    ______ ____
ROOT
ATOM      1  C   UNL     1       0.530  -3.003   1.419  0.00  0.00    -0.023 C 
ATOM      2  C   UNL     1      -0.469  -3.844   2.220  0.00  0.00    +0.000 C 
ATOM      3  C   UNL     1       0.089  -4.078   3.627  0.00  0.00    -0.018 C 
ATOM      4  C   UNL     1       1.460  -4.750   3.521  0.00  0.00    -0.078 C 
ATOM      5  N   UNL     1       2.376  -3.885   2.767  0.00  0.00    +0.386 N 
ATOM      6  C   UNL     1       1.885  -3.714   1.394  0.00  0.00    -0.074 C 
ATOM      7  H   UNL     1       2.433  -2.984   3.217  0.00  0.00    -0.081 HD
ENDROOT
BRANCH   1   8
ATOM      8  C   UNL     1       0.018  -2.829  -0.013  0.00  0.00    +0.040 C 
BRANCH   8  14
ATOM      9  C   UNL     1      -1.200  -0.637   0.010  0.00  0.00    +0.123 A 
ATOM     10  C   UNL     1      -2.375   0.101   0.019  0.00  0.00    +0.046 A 
ATOM     11  C   UNL     1      -3.596  -0.545   0.027  0.00  0.00    +0.004 A 
ATOM     12  C   UNL     1      -3.648  -1.927   0.026  0.00  0.00    +0.000 A 
ATOM     13  C   UNL     1      -2.479  -2.665   0.017  0.00  0.00    +0.007 A 
ATOM     14  C   UNL     1      -1.255  -2.023   0.003  0.00  0.00    -0.006 A 
BRANCH   9  16
ATOM     15  C   UNL     1      -0.017   1.425   0.010  0.00  0.00    +0.277 C 
ATOM     16  O   UNL     1       0.002  -0.004   0.002  0.00  0.00    -0.495 OA
ENDBRANCH   9  16
ENDBRANCH   8  14
ENDBRANCH   1   8
BRANCH   5  17
ATOM     17  C   UNL     1       3.710  -4.498   2.735  0.00  0.00    +0.019 C 
BRANCH  17  18
ATOM     18  C   UNL     1       4.272  -4.553   4.132  0.00  0.00    +0.201 C 
ATOM     19  O   UNL     1       3.624  -4.124   5.063  0.00  0.00    -0.278 OA
ATOM     20  N   UNL     1       5.494  -5.079   4.347  0.00  0.00    -0.281 N 
ATOM     21  H   UNL     1       6.012  -5.423   3.602  0.00  0.00    +0.155 HD
BRANCH  20  22
ATOM     22  C   UNL     1       6.011  -5.130   5.633  0.00  0.00    +0.084 A 
ATOM     23  C   UNL     1       7.241  -5.626   6.039  0.00  0.00    +0.065 A 
ATOM     24  C   UNL     1       7.531  -5.556   7.452  0.00  0.00    +0.022 A 
ATOM     25  C   UNL     1       6.570  -5.014   8.223  0.00  0.00    +0.048 A 
ATOM     26  S   UNL     1       5.295  -4.598   7.054  0.00  0.00    -0.081 S 
BRANCH  23  27
ATOM     27  C   UNL     1       8.197  -6.192   5.082  0.00  0.00    +0.244 C 
ATOM     28  O   UNL     1       7.920  -6.236   3.898  0.00  0.00    -0.270 OA
ATOM     29  N   UNL     1       9.383  -6.665   5.515  0.00  0.00    -0.325 N 
ATOM     30  H   UNL     1       9.604  -6.630   6.459  0.00  0.00    +0.145 HD
ATOM     31  H   UNL     1      10.016  -7.039   4.882  0.00  0.00    +0.145 HD
ENDBRANCH  23  27
ENDBRANCH  20  22
ENDBRANCH  17  18
ENDBRANCH   5  17
TORSDOF 7
