REMARK  Name = ZINC36032742
REMARK  12 active torsions:
REMARK  status: ('A' for Active; 'I' for Inactive)
REMARK    1  A    between atoms: C_1  and  C_2
REMARK    2  A    between atoms: C_2  and  C_4
REMARK    3  A    between atoms: C_2  and  N_10
REMARK    4  A    between atoms: C_13  and  C_28
REMARK    5  A    between atoms: N_19  and  C_22
REMARK    6  A    between atoms: C_22  and  N_24
REMARK    7  A    between atoms: N_24  and  C_25
REMARK    8  A    between atoms: C_25  and  C_26
REMARK    9  A    between atoms: C_25  and  C_27
REMARK   10  A    between atoms: C_28  and  C_29
REMARK   11  A    between atoms: C_29  and  C_30
REMARK   12  A    between atoms: C_29  and  C_31
REMARK                            x       y       z     vdW  Elec       q    Type
REMARK                         _______ _______ _______ _____ _____    ______ ____
ROOT
ATOM      1  N   UNL     1      -0.350  -1.363   0.962  0.00  0.00    -0.307 N 
ATOM      2  C   UNL     1       0.529  -2.228   1.509  0.00  0.00    +0.201 C 
ATOM      3  O   UNL     1       1.725  -2.054   1.608  0.00  0.00    -0.277 OA
ATOM      4  C   UNL     1      -0.229  -3.450   1.979  0.00  0.00    +0.019 C 
ATOM      5  N   UNL     1      -1.648  -3.023   2.021  0.00  0.00    +0.401 N 
ATOM      6  C   UNL     1      -1.700  -1.930   1.029  0.00  0.00    +0.007 C 
ATOM      7  C   UNL     1      -2.104  -2.493  -0.332  0.00  0.00    +0.025 C 
ATOM      8  C   UNL     1      -2.121  -1.363  -1.366  0.00  0.00    +0.107 C 
ATOM      9  N   UNL     1      -2.983  -0.281  -0.870  0.00  0.00    -0.313 N 
ATOM     10  C   UNL     1      -2.720   0.278   0.463  0.00  0.00    +0.107 C 
ATOM     11  C   UNL     1      -2.699  -0.867   1.482  0.00  0.00    +0.025 C 
ATOM     12  H   UNL     1      -2.257  -3.781   1.751  0.00  0.00    -0.082 HD
ATOM     13  H   UNL     1      -1.890  -2.678   2.938  0.00  0.00    -0.082 HD
ENDROOT
BRANCH   1  15
ATOM     14  C   UNL     1       0.335   0.916   1.525  0.00  0.00    +0.033 C 
ATOM     15  C   UNL     1      -0.010  -0.056   0.395  0.00  0.00    +0.101 C 
BRANCH  15  16
ATOM     16  C   UNL     1       1.177  -0.201  -0.522  0.00  0.00    -0.027 A 
ATOM     17  C   UNL     1       2.433   0.185  -0.093  0.00  0.00    +0.005 A 
ATOM     18  C   UNL     1       3.522   0.052  -0.935  0.00  0.00    +0.000 A 
ATOM     19  C   UNL     1       3.354  -0.466  -2.206  0.00  0.00    +0.000 A 
ATOM     20  C   UNL     1       2.098  -0.852  -2.634  0.00  0.00    +0.000 A 
ATOM     21  C   UNL     1       1.010  -0.724  -1.791  0.00  0.00    +0.005 A 
ENDBRANCH  15  16
ENDBRANCH   1  15
BRANCH   9  22
ATOM     22  C   UNL     1      -3.996   0.190  -1.624  0.00  0.00    +0.133 C 
ATOM     23  S   UNL     1      -4.767   1.658  -1.201  0.00  0.00    -0.019 S 
BRANCH  22  24
ATOM     24  N   UNL     1      -4.402  -0.496  -2.711  0.00  0.00    -0.324 N 
ATOM     25  H   UNL     1      -3.897  -1.267  -3.015  0.00  0.00    +0.148 HD
BRANCH  24  26
ATOM     26  C   UNL     1      -5.605  -0.077  -3.434  0.00  0.00    +0.066 C 
ATOM     27  C   UNL     1      -5.241   1.016  -4.441  0.00  0.00    +0.027 C 
ATOM     28  C   UNL     1      -6.198  -1.277  -4.176  0.00  0.00    +0.027 C 
ENDBRANCH  24  26
ENDBRANCH  22  24
ENDBRANCH   9  22
BRANCH   4  29
ATOM     29  C   UNL     1       0.245  -3.868   3.373  0.00  0.00    -0.004 C 
BRANCH  29  30
ATOM     30  C   UNL     1      -0.470  -5.155   3.790  0.00  0.00    -0.018 C 
ATOM     31  C   UNL     1      -0.051  -6.296   2.861  0.00  0.00    +0.007 C 
ATOM     32  C   UNL     1      -0.091  -5.504   5.231  0.00  0.00    +0.007 C 
ENDBRANCH  29  30
ENDBRANCH   4  29
TORSDOF 7
