REMARK  Name = ZINC49978621
REMARK  8 active torsions:
REMARK  status: ('A' for Active; 'I' for Inactive)
REMARK    1  A    between atoms: C_1  and  C_2
REMARK    2  A    between atoms: C_2  and  N_3
REMARK    3  A    between atoms: C_5  and  S_9
REMARK    4  A    between atoms: S_9  and  N_12
REMARK    5  A    between atoms: N_12  and  C_13
REMARK    6  A    between atoms: N_12  and  C_14
REMARK    7  A    between atoms: C_17  and  C_21
REMARK    8  A    between atoms: C_19  and  C_20
REMARK                            x       y       z     vdW  Elec       q    Type
REMARK                         _______ _______ _______ _____ _____    ______ ____
ROOT
ATOM      1  S   UNL     1       1.229  -2.582   4.504  0.00  0.00    +0.079 S 
ATOM      2  O   UNL     1       0.418  -2.837   3.366  0.00  0.00    -0.150 OA
ATOM      3  O   UNL     1       1.925  -1.356   4.685  0.00  0.00    -0.150 OA
ENDROOT
BRANCH   1   6
ATOM      4  N   UNL     1      -1.544  -3.174   7.179  0.00  0.00    -0.268 N 
ATOM      5  C   UNL     1      -1.117  -3.117   5.901  0.00  0.00    +0.139 A 
ATOM      6  C   UNL     1       0.195  -2.787   5.916  0.00  0.00    +0.167 A 
ATOM      7  C   UNL     1       0.585  -2.636   7.256  0.00  0.00    +0.165 A 
ATOM      8  N   UNL     1      -0.462  -2.864   8.013  0.00  0.00    -0.154 NA
ATOM      9  N   UNL     1       1.866  -2.296   7.706  0.00  0.00    -0.340 N 
ATOM     10  H   UNL     1       2.554  -2.047   7.069  0.00  0.00    +0.144 HD
ATOM     11  H   UNL     1       2.067  -2.309   8.655  0.00  0.00    +0.144 HD
BRANCH   4  13
ATOM     12  C   UNL     1      -2.856  -4.662   8.610  0.00  0.00    +0.029 C 
ATOM     13  C   UNL     1      -2.904  -3.498   7.619  0.00  0.00    +0.140 C 
ENDBRANCH   4  13
ENDBRANCH   1   6
BRANCH   1  14
ATOM     14  N   UNL     1       2.368  -3.783   4.553  0.00  0.00    -0.206 N 
ATOM     15  C   UNL     1       3.605  -3.590   5.313  0.00  0.00    +0.157 C 
BRANCH  14  16
ATOM     16  C   UNL     1       2.148  -4.981   3.870  0.00  0.00    +0.054 A 
ATOM     17  C   UNL     1       1.593  -6.069   4.532  0.00  0.00    +0.025 A 
ATOM     18  C   UNL     1       1.377  -7.252   3.853  0.00  0.00    +0.005 A 
ATOM     19  C   UNL     1       1.712  -7.355   2.516  0.00  0.00    -0.050 A 
ATOM     20  C   UNL     1       2.266  -6.275   1.853  0.00  0.00    +0.008 A 
ATOM     21  C   UNL     1       2.479  -5.086   2.525  0.00  0.00    -0.028 A 
ATOM     22  C   UNL     1       3.076  -3.907   1.801  0.00  0.00    +0.046 C 
ATOM     23  C   UNL     1       1.476  -8.648   1.778  0.00  0.00    +0.044 C 
ENDBRANCH  14  16
ENDBRANCH   1  14
TORSDOF 4
