REMARK  Name = ZINC20332695
REMARK  12 active torsions:
REMARK  status: ('A' for Active; 'I' for Inactive)
REMARK    1  A    between atoms: C_4  and  C_7
REMARK    2  A    between atoms: C_7  and  C_9
REMARK    3  A    between atoms: C_7  and  C_34
REMARK    4  A    between atoms: C_9  and  C_10
REMARK    5  A    between atoms: C_10  and  N_11
REMARK    6  A    between atoms: N_14  and  C_17
REMARK    7  A    between atoms: C_17  and  C_18
REMARK    8  A    between atoms: C_18  and  C_19
REMARK    9  A    between atoms: C_19  and  C_21
REMARK   10  A    between atoms: C_19  and  C_27
REMARK   11  A    between atoms: C_32  and  O_33
REMARK   12  A    between atoms: C_39  and  O_40
REMARK                            x       y       z     vdW  Elec       q    Type
REMARK                         _______ _______ _______ _____ _____    ______ ____
ROOT
ATOM      1  N   UNL     1       3.283   2.216   0.612  0.00  0.00    +0.381 N 
ATOM      2  C   UNL     1       2.821   2.394  -0.772  0.00  0.00    -0.063 C 
ATOM      3  C   UNL     1       3.154   3.812  -1.240  0.00  0.00    +0.066 C 
ATOM      4  N   UNL     1       4.604   4.030  -1.140  0.00  0.00    -0.306 NA
ATOM      5  C   UNL     1       5.066   3.852   0.243  0.00  0.00    +0.066 C 
ATOM      6  C   UNL     1       4.733   2.434   0.711  0.00  0.00    -0.063 C 
ATOM      7  H   UNL     1       2.783   2.969   1.237  0.00  0.00    -0.082 HD
ENDROOT
BRANCH   1   8
ATOM      8  C   UNL     1       2.914   0.889   1.124  0.00  0.00    -0.078 C 
BRANCH   8   9
ATOM      9  C   UNL     1       1.391   0.792   1.237  0.00  0.00    -0.006 C 
BRANCH   9  10
ATOM     10  C   UNL     1       1.007  -0.589   1.771  0.00  0.00    +0.051 C 
BRANCH  10  14
ATOM     11  C   UNL     1       2.468  -1.034   5.760  0.00  0.00    +0.000 A 
ATOM     12  C   UNL     1       1.708   0.071   5.421  0.00  0.00    +0.000 A 
ATOM     13  C   UNL     1       1.236   0.214   4.130  0.00  0.00    +0.004 A 
ATOM     14  C   UNL     1       1.522  -0.746   3.178  0.00  0.00    -0.040 A 
ATOM     15  C   UNL     1       2.278  -1.853   3.518  0.00  0.00    +0.004 A 
ATOM     16  C   UNL     1       2.754  -1.994   4.808  0.00  0.00    +0.000 A 
ENDBRANCH  10  14
BRANCH  10  17
ATOM     17  C   UNL     1      -0.494  -0.730   1.767  0.00  0.00    +0.001 A 
ATOM     18  C   UNL     1      -1.278   0.221   2.391  0.00  0.00    +0.008 A 
ATOM     19  C   UNL     1      -2.655   0.094   2.387  0.00  0.00    +0.001 A 
ATOM     20  C   UNL     1      -3.250  -0.985   1.759  0.00  0.00    +0.004 A 
ATOM     21  C   UNL     1      -2.470  -1.938   1.134  0.00  0.00    +0.046 A 
ATOM     22  C   UNL     1      -1.088  -1.810   1.132  0.00  0.00    +0.121 A 
BRANCH  22  23
ATOM     23  O   UNL     1      -0.319  -2.743   0.513  0.00  0.00    -0.506 OA
ATOM     24  H   UNL     1      -0.791  -3.600   0.009  0.00  0.00    +0.292 HD
ENDBRANCH  22  23
ENDBRANCH  10  17
ENDBRANCH   9  10
ENDBRANCH   8   9
ENDBRANCH   1   8
BRANCH   4  25
ATOM     25  C   UNL     1       4.973   5.357  -1.652  0.00  0.00    +0.085 C 
BRANCH  25  26
ATOM     26  C   UNL     1       4.702   5.416  -3.157  0.00  0.00    +0.028 C 
BRANCH  26  27
ATOM     27  C   UNL     1       5.086   6.798  -3.690  0.00  0.00    +0.054 C 
BRANCH  27  28
ATOM     28  C   UNL     1       6.573   6.996  -3.545  0.00  0.00    -0.040 A 
ATOM     29  C   UNL     1       7.062   8.141  -2.943  0.00  0.00    +0.004 A 
ATOM     30  C   UNL     1       8.426   8.321  -2.806  0.00  0.00    +0.000 A 
ATOM     31  C   UNL     1       9.301   7.361  -3.279  0.00  0.00    +0.000 A 
ATOM     32  C   UNL     1       8.812   6.218  -3.885  0.00  0.00    +0.000 A 
ATOM     33  C   UNL     1       7.448   6.037  -4.018  0.00  0.00    +0.004 A 
ENDBRANCH  27  28
BRANCH  27  34
ATOM     34  C   UNL     1       4.706   6.899  -5.144  0.00  0.00    +0.001 A 
ATOM     35  C   UNL     1       5.147   5.945  -6.042  0.00  0.00    +0.008 A 
ATOM     36  C   UNL     1       4.797   6.037  -7.377  0.00  0.00    +0.001 A 
ATOM     37  C   UNL     1       4.006   7.082  -7.817  0.00  0.00    +0.004 A 
ATOM     38  C   UNL     1       3.563   8.038  -6.923  0.00  0.00    +0.046 A 
ATOM     39  C   UNL     1       3.908   7.946  -5.582  0.00  0.00    +0.121 A 
BRANCH  39  40
ATOM     40  O   UNL     1       3.469   8.882  -4.701  0.00  0.00    -0.506 OA
ATOM     41  H   UNL     1       2.836   9.711  -5.049  0.00  0.00    +0.292 HD
ENDBRANCH  39  40
ENDBRANCH  27  34
ENDBRANCH  26  27
ENDBRANCH  25  26
ENDBRANCH   4  25
TORSDOF 12
