REMARK  Name = ZINC08789041
REMARK  6 active torsions:
REMARK  status: ('A' for Active; 'I' for Inactive)
REMARK    1  A    between atoms: C_1  and  O_2
REMARK    2  A    between atoms: O_2  and  C_3
REMARK    3  A    between atoms: C_8  and  C_9
REMARK    4  A    between atoms: C_9  and  N_10
REMARK    5  A    between atoms: C_15  and  C_31
REMARK    6  A    between atoms: C_31  and  C_32
REMARK                            x       y       z     vdW  Elec       q    Type
REMARK                         _______ _______ _______ _____ _____    ______ ____
ROOT
ATOM      1  N   UNL     1      -2.093   6.551  -1.293  0.00  0.00    -0.237 N 
ATOM      2  C   UNL     1      -3.307   6.771  -0.774  0.00  0.00    +0.224 C 
ATOM      3  O   UNL     1      -3.747   7.855  -0.456  0.00  0.00    -0.275 OA
ATOM      4  C   UNL     1      -4.058   5.447  -0.652  0.00  0.00    +0.073 C 
ATOM      5  C   UNL     1      -4.238   5.095   0.840  0.00  0.00    -0.049 C 
ATOM      6  C   UNL     1      -2.670   3.559   0.040  0.00  0.00    +0.050 C 
ATOM      7  C   UNL     1      -3.020   4.418  -1.182  0.00  0.00    +0.088 C 
ATOM      8  C   UNL     1      -1.828   5.268  -1.562  0.00  0.00    +0.225 C 
ATOM      9  O   UNL     1      -0.794   4.851  -2.038  0.00  0.00    -0.275 OA
ATOM     10  C   UNL     1      -1.226   3.145   0.028  0.00  0.00    -0.028 A 
ATOM     11  C   UNL     1      -0.039   3.844   0.021  0.00  0.00    +0.004 A 
ATOM     12  C   UNL     1       1.165   3.162   0.008  0.00  0.00    +0.000 A 
ATOM     13  C   UNL     1       1.174   1.779   0.000  0.00  0.00    +0.002 A 
ATOM     14  C   UNL     1      -0.013   1.076   0.008  0.00  0.00    +0.023 A 
ATOM     15  C   UNL     1      -1.229   1.754   0.017  0.00  0.00    +0.036 A 
ATOM     16  N   UNL     1      -2.541   1.274   0.024  0.00  0.00    -0.286 N 
ATOM     17  C   UNL     1      -3.446   2.271   0.031  0.00  0.00    +0.211 C 
ATOM     18  O   UNL     1      -4.654   2.153   0.038  0.00  0.00    -0.277 OA
ATOM     19  H   UNL     1      -2.773   0.332   0.022  0.00  0.00    +0.155 HD
ATOM     20  N   UNL     1      -3.006   4.383   1.188  0.00  0.00    +0.394 N 
ATOM     21  H   UNL     1      -3.159   3.793   2.015  0.00  0.00    -0.083 HD
ATOM     22  H   UNL     1      -2.251   5.052   1.379  0.00  0.00    -0.083 HD
ENDROOT
BRANCH   1  23
ATOM     23  C   UNL     1      -1.133   7.629  -1.546  0.00  0.00    +0.155 C 
BRANCH  23  29
ATOM     24  C   UNL     1      -2.360   9.058  -3.200  0.00  0.00    +0.125 A 
ATOM     25  C   UNL     1      -2.539   9.552  -4.484  0.00  0.00    +0.046 A 
ATOM     26  C   UNL     1      -1.700   9.144  -5.503  0.00  0.00    +0.004 A 
ATOM     27  C   UNL     1      -0.679   8.248  -5.242  0.00  0.00    +0.001 A 
ATOM     28  C   UNL     1      -0.496   7.758  -3.963  0.00  0.00    +0.009 A 
ATOM     29  C   UNL     1      -1.333   8.163  -2.940  0.00  0.00    +0.012 A 
BRANCH  24  31
ATOM     30  C   UNL     1      -4.223  10.378  -2.538  0.00  0.00    +0.277 C 
ATOM     31  O   UNL     1      -3.187   9.454  -2.197  0.00  0.00    -0.495 OA
ENDBRANCH  24  31
ENDBRANCH  23  29
ENDBRANCH   1  23
BRANCH   5  32
ATOM     32  C   UNL     1      -4.403   6.369   1.671  0.00  0.00    +0.080 C 
BRANCH  32  33
ATOM     33  C   UNL     1      -4.699   6.001   3.102  0.00  0.00    +0.209 C 
ATOM     34  O   UNL     1      -4.773   4.834   3.425  0.00  0.00    -0.276 OA
ATOM     35  N   UNL     1      -4.884   6.968   4.022  0.00  0.00    -0.329 N 
ATOM     36  H   UNL     1      -4.826   7.901   3.764  0.00  0.00    +0.145 HD
ATOM     37  H   UNL     1      -5.075   6.731   4.943  0.00  0.00    +0.145 HD
ENDBRANCH  32  33
ENDBRANCH   5  32
TORSDOF 5
