REMARK  Name = ZINC63494562
REMARK  5 active torsions:
REMARK  status: ('A' for Active; 'I' for Inactive)
REMARK    1  A    between atoms: C_7  and  C_10
REMARK    2  A    between atoms: C_10  and  C_11
REMARK    3  A    between atoms: C_11  and  N_12
REMARK    4  A    between atoms: N_12  and  C_13
REMARK    5  A    between atoms: C_25  and  C_28
REMARK                            x       y       z     vdW  Elec       q    Type
REMARK                         _______ _______ _______ _____ _____    ______ ____
ROOT
ATOM      1  C   UNL     1      -0.716  -5.266  -2.832  0.00  0.00    +0.258 C 
ATOM      2  N   UNL     1       0.465  -5.982  -3.312  0.00  0.00    -0.353 N 
ATOM      3  C   UNL     1       0.577  -7.297  -3.302  0.00  0.00    +0.048 A 
ATOM      4  C   UNL     1       1.786  -7.935  -3.655  0.00  0.00    +0.026 A 
ATOM      5  C   UNL     1       1.889  -9.287  -3.546  0.00  0.00    +0.002 A 
ATOM      6  C   UNL     1       0.829 -10.074  -3.102  0.00  0.00    +0.001 A 
ATOM      7  C   UNL     1      -0.378  -9.526  -2.780  0.00  0.00    +0.013 A 
ATOM      8  C   UNL     1      -0.558  -8.146  -2.905  0.00  0.00    +0.035 A 
ATOM      9  C   UNL     1      -1.795  -7.507  -2.706  0.00  0.00    +0.114 C 
ATOM     10  N   UNL     1      -1.889  -6.144  -2.829  0.00  0.00    -0.216 N 
ATOM     11  N   UNL     1      -3.200  -5.796  -2.954  0.00  0.00    -0.212 NA
ATOM     12  C   UNL     1      -3.961  -6.930  -2.380  0.00  0.00    +0.189 C 
ATOM     13  N   UNL     1      -2.989  -8.036  -2.364  0.00  0.00    -0.311 N 
ATOM     14  H   UNL     1      -3.396  -4.940  -2.456  0.00  0.00    +0.147 HD
ATOM     15  H   UNL     1      -3.172  -8.965  -2.149  0.00  0.00    +0.149 HD
ATOM     16  H   UNL     1       1.206  -5.461  -3.659  0.00  0.00    +0.163 HD
ENDROOT
BRANCH  12  17
ATOM     17  C   UNL     1      -4.420  -6.605  -0.982  0.00  0.00    +0.007 A 
ATOM     18  C   UNL     1      -3.496  -6.414   0.034  0.00  0.00    +0.010 A 
ATOM     19  C   UNL     1      -3.964  -6.117   1.305  0.00  0.00    +0.020 A 
ATOM     20  C   UNL     1      -5.327  -6.021   1.515  0.00  0.00    +0.111 A 
ATOM     21  N   UNL     1      -6.177  -6.210   0.525  0.00  0.00    -0.263 NA
ATOM     22  C   UNL     1      -5.768  -6.488  -0.697  0.00  0.00    +0.117 A 
ENDBRANCH  12  17
BRANCH   1  23
ATOM     23  N   UNL     1      -0.468  -4.786  -1.466  0.00  0.00    -0.280 NA
ATOM     24  H   UNL     1      -0.113  -5.527  -0.881  0.00  0.00    +0.125 HD
BRANCH  23  25
ATOM     25  C   UNL     1       0.445  -3.635  -1.470  0.00  0.00    +0.089 C 
BRANCH  25  26
ATOM     26  C   UNL     1       0.678  -3.165  -0.033  0.00  0.00    +0.048 C 
BRANCH  26  33
ATOM     27  C   UNL     1      -0.046   1.367  -0.005  0.00  0.00    +0.001 A 
ATOM     28  C   UNL     1       1.133   2.124  -0.014  0.00  0.00    +0.002 A 
ATOM     29  C   UNL     1       2.360   1.563  -0.029  0.00  0.00    +0.026 A 
ATOM     30  C   UNL     1       2.504   0.148  -0.037  0.00  0.00    +0.043 A 
ATOM     31  N   UNL     1       3.564  -0.622  -0.052  0.00  0.00    -0.380 N 
ATOM     32  C   UNL     1       3.126  -2.022  -0.053  0.00  0.00    +0.144 C 
ATOM     33  C   UNL     1       1.615  -1.984  -0.037  0.00  0.00    -0.040 C 
ATOM     34  C   UNL     1       1.273  -0.675  -0.027  0.00  0.00    -0.001 A 
ATOM     35  C   UNL     1      -0.023   0.014  -0.010  0.00  0.00    +0.010 A 
ATOM     36  H   UNL     1       4.485  -0.317  -0.061  0.00  0.00    +0.160 HD
ENDBRANCH  26  33
ENDBRANCH  25  26
ENDBRANCH  23  25
ENDBRANCH   1  23
TORSDOF 5
