REMARK  Name = ZINC39533419
REMARK  9 active torsions:
REMARK  status: ('A' for Active; 'I' for Inactive)
REMARK    1  A    between atoms: C_1  and  C_2
REMARK    2  A    between atoms: C_2  and  C_3
REMARK    3  A    between atoms: C_2  and  C_4
REMARK    4  A    between atoms: C_4  and  C_5
REMARK    5  A    between atoms: C_8  and  C_11
REMARK    6  A    between atoms: C_11  and  C_13
REMARK    7  A    between atoms: C_11  and  N_16
REMARK    8  A    between atoms: C_13  and  N_14
REMARK    9  A    between atoms: C_20  and  O_23
REMARK                            x       y       z     vdW  Elec       q    Type
REMARK                         _______ _______ _______ _____ _____    ______ ____
ROOT
ATOM      1  C   UNL     1      -2.212   0.935   5.993  0.00  0.00    +0.101 C 
ENDROOT
BRANCH   1   2
ATOM      2  N   UNL     1      -3.626   0.540   5.938  0.00  0.00    -0.295 NA
ATOM      3  C   UNL     1      -4.243   0.964   4.673  0.00  0.00    +0.066 C 
ATOM      4  C   UNL     1      -5.695   0.482   4.630  0.00  0.00    -0.063 C 
ATOM      5  N   UNL     1      -6.432   1.047   5.769  0.00  0.00    +0.398 N 
ATOM      6  C   UNL     1      -5.819   0.595   7.024  0.00  0.00    +0.073 C 
ATOM      7  C   UNL     1      -4.369   1.077   7.087  0.00  0.00    +0.096 C 
ATOM      8  H   UNL     1      -6.401   2.054   5.723  0.00  0.00    -0.082 HD
ATOM      9  H   UNL     1      -7.392   0.739   5.733  0.00  0.00    -0.082 HD
BRANCH   6  10
ATOM     10  O   UNL     1      -6.548   1.131   8.130  0.00  0.00    -0.409 OA
ATOM     11  H   UNL     1      -7.478   0.866   8.155  0.00  0.00    +0.207 HD
ENDBRANCH   6  10
ENDBRANCH   1   2
BRANCH   1  15
ATOM     12  C   UNL     1      -0.099  -0.876   2.753  0.00  0.00    -0.047 A 
ATOM     13  C   UNL     1       0.181   0.428   3.118  0.00  0.00    +0.004 A 
ATOM     14  C   UNL     1      -0.503   1.014   4.166  0.00  0.00    +0.005 A 
ATOM     15  C   UNL     1      -1.467   0.297   4.850  0.00  0.00    -0.029 A 
ATOM     16  C   UNL     1      -1.747  -1.007   4.485  0.00  0.00    +0.005 A 
ATOM     17  C   UNL     1      -1.066  -1.592   3.434  0.00  0.00    +0.004 A 
BRANCH  12  18
ATOM     18  C   UNL     1       0.647  -1.515   1.611  0.00  0.00    +0.038 C 
BRANCH  18  20
ATOM     19  C   UNL     1      -0.094   0.247   0.002  0.00  0.00    +0.007 C 
ATOM     20  C   UNL     1      -0.102  -1.253   0.302  0.00  0.00    -0.013 C 
ATOM     21  C   UNL     1       0.586  -2.005  -0.839  0.00  0.00    +0.007 C 
ENDBRANCH  18  20
ENDBRANCH  12  18
ENDBRANCH   1  15
BRANCH   1  22
ATOM     22  C   UNL     1      -1.605   0.474   7.319  0.00  0.00    +0.117 C 
BRANCH  22  23
ATOM     23  N   UNL     1      -0.215   0.941   7.410  0.00  0.00    -0.254 NA
ATOM     24 BR   UNL     1       0.611   0.273   8.925  0.00  0.00    +0.010 Br
ATOM     25  H   UNL     1      -0.171   1.949   7.389  0.00  0.00    +0.135 HD
ENDBRANCH  22  23
ENDBRANCH   1  22
TORSDOF 7
