REMARK  Name = ZINC63588864
REMARK  10 active torsions:
REMARK  status: ('A' for Active; 'I' for Inactive)
REMARK    1  A    between atoms: C_1  and  C_2
REMARK    2  A    between atoms: C_4  and  C_35
REMARK    3  A    between atoms: C_6  and  N_8
REMARK    4  A    between atoms: N_10  and  C_11
REMARK    5  A    between atoms: C_11  and  C_12
REMARK    6  A    between atoms: C_12  and  C_13
REMARK    7  A    between atoms: N_22  and  C_23
REMARK    8  A    between atoms: C_23  and  C_25
REMARK    9  A    between atoms: C_29  and  N_31
REMARK   10  A    between atoms: C_32  and  C_34
REMARK                            x       y       z     vdW  Elec       q    Type
REMARK                         _______ _______ _______ _____ _____    ______ ____
ROOT
ATOM      1  N   UNL     1      -0.012  -2.807   2.565  0.00  0.00    -0.328 N 
ATOM      2  C   UNL     1      -0.364  -2.128   3.696  0.00  0.00    +0.194 C 
ATOM      3  N   UNL     1      -0.683  -2.813   4.832  0.00  0.00    -0.357 N 
ATOM      4  N   UNL     1      -0.395  -0.804   3.691  0.00  0.00    -0.143 NA
ATOM      5  H   UNL     1      -0.932  -2.331   5.635  0.00  0.00    +0.162 HD
ATOM      6  H   UNL     1      -0.431  -3.657   2.360  0.00  0.00    +0.169 HD
ENDROOT
BRANCH   1  12
ATOM      7  C   UNL     1       3.685   0.334   1.768  0.00  0.00    +0.044 C 
ATOM      8  C   UNL     1       2.756  -0.752   1.289  0.00  0.00    -0.048 A 
ATOM      9  C   UNL     1       2.856  -1.223  -0.007  0.00  0.00    +0.006 A 
ATOM     10  C   UNL     1       2.006  -2.220  -0.451  0.00  0.00    -0.048 A 
ATOM     11  C   UNL     1       1.054  -2.747   0.399  0.00  0.00    +0.029 A 
ATOM     12  C   UNL     1       0.951  -2.275   1.701  0.00  0.00    +0.042 A 
ATOM     13  C   UNL     1       1.810  -1.278   2.146  0.00  0.00    +0.029 A 
ATOM     14  C   UNL     1       2.118  -2.730  -1.865  0.00  0.00    +0.044 C 
ENDBRANCH   1  12
BRANCH   4  15
ATOM     15  C   UNL     1      -0.512  -0.141   2.533  0.00  0.00    +0.270 C 
ATOM     16  O   UNL     1      -0.699  -0.753   1.497  0.00  0.00    -0.268 OA
BRANCH  15  17
ATOM     17  C   UNL     1      -0.415   1.337   2.513  0.00  0.00    +0.041 A 
ATOM     18  C   UNL     1      -0.090   2.033   3.677  0.00  0.00    +0.013 A 
ATOM     19  C   UNL     1       0.000   3.410   3.656  0.00  0.00    +0.003 A 
ATOM     20  C   UNL     1      -0.231   4.104   2.483  0.00  0.00    +0.023 A 
ATOM     21  C   UNL     1      -0.555   3.420   1.318  0.00  0.00    +0.034 A 
ATOM     22  C   UNL     1      -0.643   2.036   1.329  0.00  0.00    +0.036 A 
BRANCH  21  23
ATOM     23  N   UNL     1      -0.789   4.127   0.133  0.00  0.00    -0.286 N 
ATOM     24  C   UNL     1      -1.393   5.331   0.174  0.00  0.00    +0.214 C 
ATOM     25  O   UNL     1      -1.654   5.842   1.243  0.00  0.00    -0.276 OA
ATOM     26  C   UNL     1      -1.744   6.042  -1.107  0.00  0.00    +0.109 C 
ATOM     27  H   UNL     1      -0.516   3.750  -0.718  0.00  0.00    +0.155 HD
ENDBRANCH  21  23
ENDBRANCH  15  17
ENDBRANCH   4  15
BRANCH   3  28
ATOM     28  C   UNL     1      -0.648  -4.278   4.837  0.00  0.00    +0.120 C 
BRANCH  28  29
ATOM     29  C   UNL     1      -1.045  -4.792   6.222  0.00  0.00    +0.054 C 
BRANCH  29  30
ATOM     30  C   UNL     1      -1.010  -6.299   6.228  0.00  0.00    -0.040 C 
ATOM     31  C   UNL     1       0.013  -7.087   6.632  0.00  0.00    -0.001 A 
ATOM     32  C   UNL     1       1.347  -6.788   7.165  0.00  0.00    +0.010 A 
ATOM     33  C   UNL     1       2.169  -7.813   7.487  0.00  0.00    +0.001 A 
ATOM     34  C   UNL     1       1.780  -9.149   7.324  0.00  0.00    +0.002 A 
ATOM     35  C   UNL     1       0.570  -9.502   6.840  0.00  0.00    +0.026 A 
ATOM     36  C   UNL     1      -0.375  -8.506   6.469  0.00  0.00    +0.043 A 
ATOM     37  N   UNL     1      -1.590  -8.592   5.984  0.00  0.00    -0.380 N 
ATOM     38  C   UNL     1      -2.113  -7.236   5.789  0.00  0.00    +0.144 C 
ATOM     39  H   UNL     1      -2.065  -9.416   5.790  0.00  0.00    +0.160 HD
ENDBRANCH  29  30
ENDBRANCH  28  29
ENDBRANCH   3  28
TORSDOF 7
