REMARK  Name = ZINC52757458
REMARK  9 active torsions:
REMARK  status: ('A' for Active; 'I' for Inactive)
REMARK    1  A    between atoms: C_1  and  C_2
REMARK    2  A    between atoms: C_2  and  C_4
REMARK    3  A    between atoms: C_2  and  N_23
REMARK    4  A    between atoms: C_4  and  C_6
REMARK    5  A    between atoms: C_4  and  N_13
REMARK    6  A    between atoms: C_17  and  C_19
REMARK    7  A    between atoms: C_19  and  C_20
REMARK    8  A    between atoms: C_20  and  C_21
REMARK    9  A    between atoms: C_21  and  O_22
REMARK                            x       y       z     vdW  Elec       q    Type
REMARK                         _______ _______ _______ _____ _____    ______ ____
ROOT
ATOM      1  C   UNL     1       1.047  -0.504   1.427  0.00  0.00    +0.072 C 
ENDROOT
BRANCH   1   2
ATOM      2  C   UNL     1       2.274   0.084   0.781  0.00  0.00    -0.031 A 
ATOM      3  C   UNL     1       2.408   1.456   0.672  0.00  0.00    +0.005 A 
ATOM      4  C   UNL     1       3.534   1.997   0.079  0.00  0.00    +0.001 A 
ATOM      5  C   UNL     1       4.527   1.166  -0.404  0.00  0.00    +0.015 A 
ATOM      6  C   UNL     1       4.394  -0.206  -0.295  0.00  0.00    +0.018 A 
ATOM      7  C   UNL     1       3.269  -0.747   0.303  0.00  0.00    +0.020 A 
ATOM      8 BR   UNL     1       5.752  -1.344  -0.957  0.00  0.00    -0.050 Br
ENDBRANCH   1   2
BRANCH   1   9
ATOM      9  N   UNL     1       0.827   0.133   2.732  0.00  0.00    -0.294 NA
ATOM     10  C   UNL     1      -0.598   0.067   3.120  0.00  0.00    +0.085 C 
ATOM     11  C   UNL     1      -0.691  -1.146   4.080  0.00  0.00    +0.017 C 
ATOM     12  C   UNL     1       0.649  -1.035   4.855  0.00  0.00    +0.020 C 
ATOM     13  C   UNL     1       1.630  -0.521   3.781  0.00  0.00    +0.057 C 
BRANCH  13  14
ATOM     14  C   UNL     1       2.598   0.489   4.401  0.00  0.00    +0.021 C 
BRANCH  14  15
ATOM     15  C   UNL     1       3.577   0.980   3.333  0.00  0.00    +0.029 C 
BRANCH  15  16
ATOM     16  C   UNL     1       4.628   1.883   3.980  0.00  0.00    +0.156 C 
BRANCH  16  17
ATOM     17  O   UNL     1       5.542   2.341   2.982  0.00  0.00    -0.395 OA
ATOM     18  H   UNL     1       6.238   2.921   3.322  0.00  0.00    +0.209 HD
ENDBRANCH  16  17
ENDBRANCH  15  16
ENDBRANCH  14  15
ENDBRANCH  13  14
ENDBRANCH   1   9
BRANCH   1  20
ATOM     19  C   UNL     1      -0.450   1.241   0.449  0.00  0.00    -0.012 C 
ATOM     20  C   UNL     1      -0.168  -0.261   0.529  0.00  0.00    -0.056 C 
BRANCH  20  21
ATOM     21  N   UNL     1       0.105  -0.780  -0.818  0.00  0.00    +0.381 N 
ATOM     22  H   UNL     1      -0.696  -0.619  -1.409  0.00  0.00    -0.090 HD
ATOM     23  H   UNL     1       0.909  -0.307  -1.203  0.00  0.00    -0.090 HD
ATOM     24  H   UNL     1       0.291  -1.770  -0.765  0.00  0.00    -0.090 HD
ENDBRANCH  20  21
ENDBRANCH   1  20
TORSDOF 8
