REMARK  Name = ZINC39533343
REMARK  10 active torsions:
REMARK  status: ('A' for Active; 'I' for Inactive)
REMARK    1  A    between atoms: C_1  and  C_2
REMARK    2  A    between atoms: C_2  and  C_3
REMARK    3  A    between atoms: C_2  and  C_4
REMARK    4  A    between atoms: C_4  and  C_5
REMARK    5  A    between atoms: C_8  and  C_11
REMARK    6  A    between atoms: C_11  and  C_13
REMARK    7  A    between atoms: C_11  and  N_16
REMARK    8  A    between atoms: C_13  and  N_14
REMARK    9  A    between atoms: C_20  and  C_23
REMARK   10  A    between atoms: C_28  and  O_29
REMARK                            x       y       z     vdW  Elec       q    Type
REMARK                         _______ _______ _______ _____ _____    ______ ____
ROOT
ATOM      1  N   UNL     1      -3.586   0.468   5.758  0.00  0.00    -0.297 NA
ATOM      2  C   UNL     1      -4.570   1.359   6.391  0.00  0.00    +0.066 C 
ATOM      3  C   UNL     1      -5.982   0.855   6.082  0.00  0.00    -0.066 C 
ATOM      4  N   UNL     1      -6.135  -0.514   6.592  0.00  0.00    +0.385 N 
ATOM      5  C   UNL     1      -5.163  -1.396   5.933  0.00  0.00    -0.023 C 
ATOM      6  C   UNL     1      -3.744  -0.911   6.241  0.00  0.00    +0.074 C 
ATOM      7  H   UNL     1      -5.975  -0.522   7.588  0.00  0.00    -0.085 HD
ATOM      8  H   UNL     1      -7.070  -0.842   6.399  0.00  0.00    -0.085 HD
ENDROOT
BRANCH   5   9
ATOM      9  C   UNL     1      -5.334  -2.803   6.445  0.00  0.00    -0.019 A 
ATOM     10  C   UNL     1      -5.982  -3.029   7.644  0.00  0.00    +0.005 A 
ATOM     11  C   UNL     1      -6.139  -4.320   8.113  0.00  0.00    +0.000 A 
ATOM     12  C   UNL     1      -5.648  -5.388   7.385  0.00  0.00    +0.004 A 
ATOM     13  C   UNL     1      -5.000  -5.167   6.185  0.00  0.00    +0.045 A 
ATOM     14  C   UNL     1      -4.846  -3.873   5.709  0.00  0.00    +0.118 A 
BRANCH  14  15
ATOM     15  O   UNL     1      -4.213  -3.654   4.526  0.00  0.00    -0.507 OA
ATOM     16  H   UNL     1      -3.258  -3.530   4.609  0.00  0.00    +0.292 HD
ENDBRANCH  14  15
ENDBRANCH   5   9
BRANCH   1  17
ATOM     17  C   UNL     1      -2.217   0.952   5.985  0.00  0.00    +0.101 C 
BRANCH  17  21
ATOM     18  C   UNL     1       0.182   0.094   2.556  0.00  0.00    -0.047 A 
ATOM     19  C   UNL     1       0.257   1.336   3.159  0.00  0.00    +0.004 A 
ATOM     20  C   UNL     1      -0.519   1.613   4.269  0.00  0.00    +0.005 A 
ATOM     21  C   UNL     1      -1.372   0.649   4.774  0.00  0.00    -0.029 A 
ATOM     22  C   UNL     1      -1.448  -0.592   4.170  0.00  0.00    +0.005 A 
ATOM     23  C   UNL     1      -0.674  -0.868   3.058  0.00  0.00    +0.004 A 
BRANCH  18  24
ATOM     24  C   UNL     1       1.028  -0.208   1.346  0.00  0.00    +0.038 C 
BRANCH  24  26
ATOM     25  C   UNL     1       0.047   1.692   0.053  0.00  0.00    +0.007 C 
ATOM     26  C   UNL     1       0.263   0.177   0.079  0.00  0.00    -0.013 C 
ATOM     27  C   UNL     1       1.069  -0.244  -1.152  0.00  0.00    +0.007 C 
ENDBRANCH  24  26
ENDBRANCH  18  24
ENDBRANCH  17  21
BRANCH  17  28
ATOM     28  C   UNL     1      -1.625   0.251   7.209  0.00  0.00    +0.115 C 
BRANCH  28  29
ATOM     29  N   UNL     1      -2.483   0.495   8.376  0.00  0.00    -0.259 NA
ATOM     30  I   UNL     1      -1.731  -0.425  10.046  0.00  0.00    +0.018 I 
ATOM     31  H   UNL     1      -2.607   1.484   8.533  0.00  0.00    +0.134 HD
ENDBRANCH  28  29
ENDBRANCH  17  28
ENDBRANCH   1  17
TORSDOF 8
