REMARK  Name = ZINC08995363
REMARK  7 active torsions:
REMARK  status: ('A' for Active; 'I' for Inactive)
REMARK    1  A    between atoms: C_1  and  O_2
REMARK    2  A    between atoms: O_2  and  C_3
REMARK    3  A    between atoms: C_3  and  C_4
REMARK    4  A    between atoms: C_4  and  N_5
REMARK    5  A    between atoms: C_24  and  C_26
REMARK    6  A    between atoms: C_26  and  C_28
REMARK    7  A    between atoms: C_26  and  O_35
REMARK                            x       y       z     vdW  Elec       q    Type
REMARK                         _______ _______ _______ _____ _____    ______ ____
ROOT
ATOM      1  N   UNL     1      -0.080   1.244   0.003  0.00  0.00    -0.240 N 
ATOM      2  C   UNL     1      -0.161  -0.091   0.027  0.00  0.00    +0.224 C 
ATOM      3  O   UNL     1      -1.190  -0.730   0.069  0.00  0.00    -0.275 OA
ATOM      4  C   UNL     1       1.232  -0.680  -0.006  0.00  0.00    +0.076 C 
ATOM      5  C   UNL     1       2.149   0.574  -0.062  0.00  0.00    +0.088 C 
ATOM      6  C   UNL     1       1.168   1.724  -0.044  0.00  0.00    +0.225 C 
ATOM      7  O   UNL     1       1.466   2.899  -0.067  0.00  0.00    -0.275 OA
ATOM      8  C   UNL     1       2.935   0.538   1.253  0.00  0.00    +0.050 C 
ATOM      9  C   UNL     1       2.340   1.457   2.282  0.00  0.00    -0.028 A 
ATOM     10  C   UNL     1       1.101   1.540   2.876  0.00  0.00    +0.004 A 
ATOM     11  C   UNL     1       0.848   2.523   3.817  0.00  0.00    +0.000 A 
ATOM     12  C   UNL     1       1.843   3.421   4.158  0.00  0.00    +0.002 A 
ATOM     13  C   UNL     1       3.086   3.342   3.565  0.00  0.00    +0.023 A 
ATOM     14  C   UNL     1       3.348   2.356   2.616  0.00  0.00    +0.036 A 
ATOM     15  N   UNL     1       4.506   2.077   1.887  0.00  0.00    -0.286 N 
ATOM     16  C   UNL     1       4.346   1.024   1.063  0.00  0.00    +0.211 C 
ATOM     17  O   UNL     1       5.178   0.558   0.314  0.00  0.00    -0.277 OA
ATOM     18  C   UNL     1       1.538  -1.333   1.358  0.00  0.00    -0.024 C 
ATOM     19  H   UNL     1       5.330   2.583   1.966  0.00  0.00    +0.155 HD
ATOM     20  N   UNL     1       2.881  -0.848   1.688  0.00  0.00    +0.396 N 
ATOM     21  H   UNL     1       3.041  -0.908   2.700  0.00  0.00    -0.083 HD
ATOM     22  H   UNL     1       3.590  -1.403   1.195  0.00  0.00    -0.083 HD
ENDROOT
BRANCH   1  23
ATOM     23  C   UNL     1      -1.262   2.110   0.020  0.00  0.00    +0.144 C 
BRANCH  23  24
ATOM     24  C   UNL     1      -1.633   2.494  -1.413  0.00  0.00    +0.179 C 
BRANCH  24  26
ATOM     25  C   UNL     1      -2.305   1.556  -3.514  0.00  0.00    +0.194 C 
ATOM     26  O   UNL     1      -2.042   1.326  -2.129  0.00  0.00    -0.381 OA
ENDBRANCH  24  26
ENDBRANCH  23  24
ENDBRANCH   1  23
BRANCH  18  27
ATOM     27  C   UNL     1       1.510  -2.858   1.237  0.00  0.00    +0.131 C 
BRANCH  27  28
ATOM     28  C   UNL     1       1.812  -3.474   2.579  0.00  0.00    -0.021 A 
ATOM     29  C   UNL     1       0.797  -3.655   3.500  0.00  0.00    +0.007 A 
ATOM     30  C   UNL     1       1.072  -4.226   4.729  0.00  0.00    +0.020 A 
ATOM     31  C   UNL     1       2.365  -4.605   5.041  0.00  0.00    +0.041 A 
ATOM     32  C   UNL     1       3.382  -4.418   4.121  0.00  0.00    +0.020 A 
ATOM     33  C   UNL     1       3.104  -3.853   2.891  0.00  0.00    +0.007 A 
ATOM     34 CL   UNL     1       2.713  -5.314   6.587  0.00  0.00    -0.084 Cl
ENDBRANCH  27  28
BRANCH  27  35
ATOM     35  O   UNL     1       0.216  -3.277   0.801  0.00  0.00    -0.389 OA
ATOM     36  H   UNL     1      -0.502  -3.025   1.398  0.00  0.00    +0.210 HD
ENDBRANCH  27  35
ENDBRANCH  18  27
TORSDOF 6
