REMARK  Name = ZINC09223057
REMARK  8 active torsions:
REMARK  status: ('A' for Active; 'I' for Inactive)
REMARK    1  A    between atoms: C_1  and  C_2
REMARK    2  A    between atoms: C_2  and  O_3
REMARK    3  A    between atoms: O_3  and  C_4
REMARK    4  A    between atoms: C_7  and  C_10
REMARK    5  A    between atoms: C_15  and  C_16
REMARK    6  A    between atoms: C_15  and  N_58
REMARK    7  A    between atoms: N_22  and  C_23
REMARK    8  A    between atoms: C_26  and  C_29
REMARK                            x       y       z     vdW  Elec       q    Type
REMARK                         _______ _______ _______ _____ _____    ______ ____
ROOT
ATOM      1  C   UNL     1       5.150   1.504  -2.593  0.00  0.00    +0.120 A 
ATOM      2  N   UNL     1       5.190   1.171  -3.872  0.00  0.00    -0.202 NA
ATOM      3  C   UNL     1       5.904   1.898  -4.728  0.00  0.00    +0.217 A 
ATOM      4  N   UNL     1       6.578   2.958  -4.296  0.00  0.00    -0.181 NA
ATOM      5  C   UNL     1       6.536   3.289  -3.010  0.00  0.00    +0.224 A 
ATOM      6  N   UNL     1       5.814   2.560  -2.160  0.00  0.00    -0.201 NA
ATOM      7  N   UNL     1       7.235   4.390  -2.555  0.00  0.00    -0.284 N 
ATOM      8  N   UNL     1       5.945   1.551  -6.063  0.00  0.00    -0.327 N 
ATOM      9  H   UNL     1       7.142   4.677  -1.633  0.00  0.00    +0.155 HD
ATOM     10  H   UNL     1       5.452   0.777  -6.378  0.00  0.00    +0.145 HD
ATOM     11  H   UNL     1       6.466   2.081  -6.686  0.00  0.00    +0.145 HD
ENDROOT
BRANCH   7  12
ATOM     12  C   UNL     1       8.076   5.092  -3.425  0.00  0.00    +0.034 A 
ATOM     13  C   UNL     1       8.762   4.416  -4.425  0.00  0.00    +0.023 A 
ATOM     14  C   UNL     1       9.589   5.113  -5.285  0.00  0.00    +0.005 A 
ATOM     15  C   UNL     1       9.741   6.480  -5.144  0.00  0.00    -0.050 A 
ATOM     16  C   UNL     1       9.063   7.155  -4.146  0.00  0.00    +0.005 A 
ATOM     17  C   UNL     1       8.231   6.465  -3.286  0.00  0.00    +0.023 A 
ATOM     18  C   UNL     1      10.648   7.236  -6.081  0.00  0.00    +0.044 C 
ENDBRANCH   7  12
BRANCH   1  19
ATOM     19  C   UNL     1       4.339   0.678  -1.627  0.00  0.00    -0.000 C 
BRANCH  19  24
ATOM     20  C   UNL     1       4.431  -1.195  -0.088  0.00  0.00    -0.037 C 
ATOM     21  C   UNL     1       5.219  -1.147   1.238  0.00  0.00    -0.013 C 
ATOM     22  C   UNL     1       6.657  -0.791   0.776  0.00  0.00    -0.020 C 
ATOM     23  C   UNL     1       6.377   0.168  -0.407  0.00  0.00    -0.077 C 
ATOM     24  N   UNL     1       5.191  -0.406  -1.072  0.00  0.00    +0.389 N 
ATOM     25  H   UNL     1       5.494  -1.020  -1.838  0.00  0.00    -0.080 HD
BRANCH  20  29
ATOM     26  C   UNL     1       0.533   0.463   0.478  0.00  0.00    +0.121 A 
ATOM     27  C   UNL     1       1.652   1.151   0.924  0.00  0.00    +0.046 A 
ATOM     28  C   UNL     1       2.911   0.613   0.739  0.00  0.00    +0.005 A 
ATOM     29  C   UNL     1       3.056  -0.610   0.112  0.00  0.00    -0.061 A 
ATOM     30  C   UNL     1       1.942  -1.298  -0.334  0.00  0.00    +0.005 A 
ATOM     31  C   UNL     1       0.681  -0.764  -0.152  0.00  0.00    +0.046 A 
BRANCH  26  32
ATOM     32  O   UNL     1      -0.706   0.993   0.653  0.00  0.00    -0.492 OA
BRANCH  32  34
ATOM     33  C   UNL     1      -2.247   2.692   1.415  0.00  0.00    +0.048 C 
ATOM     34  C   UNL     1      -0.783   2.260   1.310  0.00  0.00    +0.225 C 
ENDBRANCH  32  34
ENDBRANCH  26  32
ENDBRANCH  20  29
ENDBRANCH  19  24
ENDBRANCH   1  19
TORSDOF 6
