REMARK  Name = ZINC34785748
REMARK  4 active torsions:
REMARK  status: ('A' for Active; 'I' for Inactive)
REMARK    1  A    between atoms: C_2  and  C_3
REMARK    2  A    between atoms: C_3  and  N_4
REMARK    3  A    between atoms: N_12  and  C_13
REMARK    4  A    between atoms: C_14  and  C_21
REMARK                            x       y       z     vdW  Elec       q    Type
REMARK                         _______ _______ _______ _____ _____    ______ ____
ROOT
ATOM      1  N   UNL     1      -1.317  -1.706  -1.121  0.00  0.00    +0.384 N 
ATOM      2  C   UNL     1      -0.255  -2.707  -0.962  0.00  0.00    -0.059 C 
ATOM      3  C   UNL     1      -0.207  -3.601  -2.205  0.00  0.00    +0.091 C 
ATOM      4  N   UNL     1      -1.547  -4.167  -2.425  0.00  0.00    -0.289 N 
ATOM      5  C   UNL     1      -2.695  -3.246  -2.435  0.00  0.00    +0.091 C 
ATOM      6  C   UNL     1      -2.625  -2.369  -1.181  0.00  0.00    -0.059 C 
ATOM      7  C   UNL     1      -1.718  -5.490  -2.612  0.00  0.00    +0.307 C 
ATOM      8  O   UNL     1      -0.752  -6.223  -2.691  0.00  0.00    -0.252 OA
ATOM      9  N   UNL     1      -2.962  -6.002  -2.711  0.00  0.00    -0.263 N 
ATOM     10  H   UNL     1      -3.730  -5.410  -2.723  0.00  0.00    +0.157 HD
ATOM     11  H   UNL     1      -1.163  -1.189  -1.974  0.00  0.00    -0.081 HD
ENDROOT
BRANCH   9  12
ATOM     12  C   UNL     1      -3.142  -7.374  -2.796  0.00  0.00    +0.086 A 
ATOM     13  C   UNL     1      -4.332  -8.069  -2.908  0.00  0.00    +0.068 A 
ATOM     14  C   UNL     1      -4.251  -9.527  -2.981  0.00  0.00    -0.023 A 
ATOM     15  C   UNL     1      -2.997 -10.010  -2.928  0.00  0.00    -0.004 A 
ATOM     16  S   UNL     1      -1.968  -8.571  -2.795  0.00  0.00    -0.077 S 
ATOM     17  C   UNL     1      -2.971 -11.513  -3.002  0.00  0.00    +0.043 C 
ATOM     18  C   UNL     1      -4.419 -11.945  -2.681  0.00  0.00    +0.010 C 
ATOM     19  C   UNL     1      -5.221 -10.700  -3.109  0.00  0.00    +0.037 C 
BRANCH  13  20
ATOM     20  C   UNL     1      -5.621  -7.373  -2.951  0.00  0.00    +0.244 C 
ATOM     21  O   UNL     1      -6.091  -7.028  -4.019  0.00  0.00    -0.270 OA
ATOM     22  N   UNL     1      -6.287  -7.116  -1.807  0.00  0.00    -0.325 N 
ATOM     23  H   UNL     1      -5.912  -7.391  -0.956  0.00  0.00    +0.145 HD
ATOM     24  H   UNL     1      -7.140  -6.656  -1.836  0.00  0.00    +0.145 HD
ENDBRANCH  13  20
ENDBRANCH   9  12
BRANCH   1  25
ATOM     25  C   UNL     1      -1.290  -0.781   0.021  0.00  0.00    -0.052 C 
BRANCH  25  27
ATOM     26  C   UNL     1      -0.014   1.300   0.023  0.00  0.00    +0.002 C 
ATOM     27  C   UNL     1       0.004  -0.010   0.013  0.00  0.00    -0.053 C 
ENDBRANCH  25  27
ENDBRANCH   1  25
TORSDOF 4
