REMARK  Name = ZINC37675761
REMARK  6 active torsions:
REMARK  status: ('A' for Active; 'I' for Inactive)
REMARK    1  A    between atoms: C_1  and  C_2
REMARK    2  A    between atoms: C_2  and  N_3
REMARK    3  A    between atoms: C_7  and  C_8
REMARK    4  A    between atoms: N_10  and  C_11
REMARK    5  A    between atoms: C_12  and  C_17
REMARK    6  A    between atoms: C_13  and  C_16
REMARK                            x       y       z     vdW  Elec       q    Type
REMARK                         _______ _______ _______ _____ _____    ______ ____
ROOT
ATOM      1  C   UNL     1      -1.283  -0.642   2.753  0.00  0.00    +0.265 C 
ATOM      2  O   UNL     1      -1.646  -0.785   3.906  0.00  0.00    -0.268 OA
ATOM      3  N   UNL     1      -2.186  -0.368   1.791  0.00  0.00    -0.273 N 
ATOM      4  H   UNL     1      -1.909  -0.328   0.862  0.00  0.00    +0.156 HD
ENDROOT
BRANCH   1   9
ATOM      5  N   UNL     1       1.150  -1.138   3.266  0.00  0.00    -0.342 N 
ATOM      6  C   UNL     1       2.318  -1.145   2.577  0.00  0.00    +0.106 A 
ATOM      7  C   UNL     1       2.073  -0.782   1.295  0.00  0.00    +0.059 A 
ATOM      8  C   UNL     1       0.701  -0.537   1.174  0.00  0.00    +0.052 A 
ATOM      9  C   UNL     1       0.137  -0.768   2.411  0.00  0.00    +0.106 A 
ATOM     10 CL   UNL     1       3.252  -0.644   0.028  0.00  0.00    -0.082 Cl
BRANCH   5  12
ATOM     11  C   UNL     1       0.491  -2.912   4.815  0.00  0.00    +0.027 C 
ATOM     12  C   UNL     1       0.992  -1.472   4.684  0.00  0.00    +0.118 C 
ENDBRANCH   5  12
ENDBRANCH   1   9
BRANCH   3  13
ATOM     13  C   UNL     1      -3.507  -0.143   2.128  0.00  0.00    +0.106 A 
ATOM     14  C   UNL     1      -4.585   0.148   1.285  0.00  0.00    +0.114 A 
ATOM     15  C   UNL     1      -5.802   0.321   1.949  0.00  0.00    +0.063 A 
ATOM     16  N   UNL     1      -5.801   0.196   3.245  0.00  0.00    -0.213 NA
ATOM     17  S   UNL     1      -4.217  -0.158   3.648  0.00  0.00    +0.028 S 
ATOM     18  C   UNL     1      -7.067   0.640   1.196  0.00  0.00    +0.067 C 
BRANCH  14  19
ATOM     19  C   UNL     1      -4.450   0.262  -0.168  0.00  0.00    +0.391 C 
ATOM     20  O   UNL     1      -3.357   0.101  -0.695  0.00  0.00    -0.240 OA
ATOM     21  O   UNL     1      -5.430   0.519  -0.856  0.00  0.00    -0.240 OA
ENDBRANCH  14  19
ENDBRANCH   3  13
TORSDOF 4
