REMARK  Name = ZINC14125308
REMARK  4 active torsions:
REMARK  status: ('A' for Active; 'I' for Inactive)
REMARK    1  A    between atoms: C_3  and  C_6
REMARK    2  A    between atoms: C_6  and  N_7
REMARK    3  A    between atoms: C_11  and  C_13
REMARK    4  A    between atoms: C_13  and  N_14
REMARK                            x       y       z     vdW  Elec       q    Type
REMARK                         _______ _______ _______ _____ _____    ______ ____
ROOT
ATOM      1  N   UNL     1      -0.487   1.406  -4.765  0.00  0.00    -0.292 N 
ATOM      2  C   UNL     1      -0.940   1.719  -3.535  0.00  0.00    +0.306 C 
ATOM      3  O   UNL     1      -1.937   2.403  -3.410  0.00  0.00    -0.252 OA
ATOM      4  N   UNL     1      -0.288   1.272  -2.443  0.00  0.00    -0.239 N 
ATOM      5  C   UNL     1      -0.742   1.585  -1.213  0.00  0.00    +0.240 C 
ATOM      6  O   UNL     1      -1.736   2.268  -1.089  0.00  0.00    -0.273 OA
ATOM      7  H   UNL     1       0.308   0.860  -4.865  0.00  0.00    +0.151 HD
ATOM      8  H   UNL     1       0.507   0.726  -2.543  0.00  0.00    +0.159 HD
ENDROOT
BRANCH   1   9
ATOM      9  C   UNL     1      -1.196   1.891  -5.952  0.00  0.00    +0.180 C 
BRANCH   9  12
ATOM     10  C   UNL     1       0.146   0.200  -8.939  0.00  0.00    +0.041 A 
ATOM     11  C   UNL     1      -0.740   0.252  -7.838  0.00  0.00    +0.046 A 
ATOM     12  C   UNL     1      -0.490   1.405  -7.192  0.00  0.00    +0.122 A 
ATOM     13  O   UNL     1       0.490   2.053  -7.843  0.00  0.00    -0.466 OA
ATOM     14  C   UNL     1       0.884   1.323  -8.899  0.00  0.00    +0.195 A 
ENDBRANCH   9  12
ENDBRANCH   1   9
BRANCH   5  15
ATOM     15  C   UNL     1      -0.013   1.086   0.008  0.00  0.00    +0.222 C 
BRANCH  15  16
ATOM     16  N   UNL     1      -0.698   1.558   1.213  0.00  0.00    -0.289 N 
ATOM     17  C   UNL     1      -1.684   0.813   1.779  0.00  0.00    +0.203 A 
ATOM     18  N   UNL     1      -2.326   1.176   2.843  0.00  0.00    -0.236 NA
ATOM     19  C   UNL     1      -2.055   2.358   3.487  0.00  0.00    +0.085 A 
ATOM     20  C   UNL     1      -2.659   2.884   4.638  0.00  0.00    +0.036 A 
ATOM     21  C   UNL     1      -2.257   4.074   5.132  0.00  0.00    +0.048 A 
ATOM     22  S   UNL     1      -0.971   4.559   3.994  0.00  0.00    -0.090 S 
ATOM     23  C   UNL     1      -1.039   3.148   2.922  0.00  0.00    +0.102 A 
ATOM     24  C   UNL     1      -0.353   2.740   1.778  0.00  0.00    +0.269 A 
ATOM     25  O   UNL     1       0.531   3.430   1.298  0.00  0.00    -0.266 OA
ENDBRANCH  15  16
ENDBRANCH   5  15
TORSDOF 4
