REMARK  Name = ZINC54354053
REMARK  11 active torsions:
REMARK  status: ('A' for Active; 'I' for Inactive)
REMARK    1  A    between atoms: C_1  and  C_2
REMARK    2  A    between atoms: C_6  and  C_23
REMARK    3  A    between atoms: C_7  and  N_8
REMARK    4  A    between atoms: N_11  and  C_12
REMARK    5  A    between atoms: C_12  and  C_13
REMARK    6  A    between atoms: C_13  and  N_14
REMARK    7  A    between atoms: N_14  and  C_15
REMARK    8  A    between atoms: N_14  and  C_16
REMARK    9  A    between atoms: C_16  and  C_17
REMARK   10  A    between atoms: C_23  and  C_24
REMARK   11  A    between atoms: C_23  and  C_25
REMARK                            x       y       z     vdW  Elec       q    Type
REMARK                         _______ _______ _______ _____ _____    ______ ____
ROOT
ATOM      1  N   UNL     1       0.203   0.079   2.355  0.00  0.00    -0.269 N 
ATOM      2  C   UNL     1      -0.217   1.359   2.386  0.00  0.00    +0.304 C 
ATOM      3  O   UNL     1      -0.759   1.845   1.412  0.00  0.00    -0.253 OA
ATOM      4  N   UNL     1      -0.037   2.101   3.497  0.00  0.00    -0.301 N 
ATOM      5  H   UNL     1       0.567  -0.332   3.155  0.00  0.00    +0.156 HD
ATOM      6  H   UNL     1       0.395   1.713   4.274  0.00  0.00    +0.150 HD
ENDROOT
BRANCH   1  13
ATOM      7  C   UNL     1      -2.382  -0.618   1.393  0.00  0.00    +0.045 C 
ATOM      8  C   UNL     1      -1.126  -1.019   0.663  0.00  0.00    -0.029 A 
ATOM      9  C   UNL     1      -1.209  -1.741  -0.512  0.00  0.00    +0.005 A 
ATOM     10  C   UNL     1      -0.057  -2.109  -1.182  0.00  0.00    +0.001 A 
ATOM     11  C   UNL     1       1.182  -1.756  -0.678  0.00  0.00    +0.006 A 
ATOM     12  C   UNL     1       1.272  -1.034   0.496  0.00  0.00    -0.023 A 
ATOM     13  C   UNL     1       0.116  -0.657   1.168  0.00  0.00    +0.041 A 
BRANCH  12  14
ATOM     14  C   UNL     1       2.622  -0.650   1.044  0.00  0.00    +0.015 C 
ATOM     15  C   UNL     1       3.436  -1.915   1.325  0.00  0.00    +0.012 C 
ATOM     16  C   UNL     1       3.360   0.215   0.021  0.00  0.00    +0.012 C 
ENDBRANCH  12  14
ENDBRANCH   1  13
BRANCH   4  17
ATOM     17  C   UNL     1      -0.494   3.492   3.531  0.00  0.00    +0.087 C 
BRANCH  17  18
ATOM     18  C   UNL     1      -0.171   4.102   4.896  0.00  0.00    -0.060 C 
BRANCH  18  19
ATOM     19  N   UNL     1      -0.629   5.497   4.930  0.00  0.00    +0.382 N 
ATOM     20  C   UNL     1      -2.094   5.534   4.825  0.00  0.00    -0.096 C 
ATOM     21  H   UNL     1      -0.224   6.003   4.157  0.00  0.00    -0.082 HD
BRANCH  19  22
ATOM     22  C   UNL     1      -0.213   6.119   6.195  0.00  0.00    -0.043 C 
BRANCH  22  23
ATOM     23  C   UNL     1      -0.575   7.581   6.178  0.00  0.00    -0.064 A 
ATOM     24  C   UNL     1       0.323   8.510   5.688  0.00  0.00    +0.002 A 
ATOM     25  C   UNL     1      -0.009   9.852   5.673  0.00  0.00    +0.000 A 
ATOM     26  C   UNL     1      -1.239  10.265   6.148  0.00  0.00    +0.000 A 
ATOM     27  C   UNL     1      -2.138   9.336   6.638  0.00  0.00    +0.000 A 
ATOM     28  C   UNL     1      -1.808   7.994   6.649  0.00  0.00    +0.002 A 
ENDBRANCH  22  23
ENDBRANCH  19  22
ENDBRANCH  18  19
ENDBRANCH  17  18
ENDBRANCH   4  17
TORSDOF 7
