REMARK  Name = ZINC46583261
REMARK  9 active torsions:
REMARK  status: ('A' for Active; 'I' for Inactive)
REMARK    1  A    between atoms: C_1  and  C_2
REMARK    2  A    between atoms: C_2  and  C_4
REMARK    3  A    between atoms: C_2  and  N_11
REMARK    4  A    between atoms: N_11  and  C_12
REMARK    5  A    between atoms: N_11  and  C_13
REMARK    6  A    between atoms: C_13  and  C_14
REMARK    7  A    between atoms: N_16  and  C_17
REMARK    8  A    between atoms: C_21  and  S_23
REMARK    9  A    between atoms: S_23  and  N_26
REMARK                            x       y       z     vdW  Elec       q    Type
REMARK                         _______ _______ _______ _____ _____    ______ ____
ROOT
ATOM      1  C   UNL     1       1.519  -2.432  -2.390  0.00  0.00    +0.201 C 
ATOM      2  O   UNL     1       2.022  -1.632  -3.150  0.00  0.00    -0.278 OA
ATOM      3  N   UNL     1       1.677  -3.753  -2.599  0.00  0.00    -0.287 N 
ATOM      4  H   UNL     1       1.332  -4.391  -1.955  0.00  0.00    +0.155 HD
ENDROOT
BRANCH   3   5
ATOM      5  C   UNL     1       2.340  -4.205  -3.746  0.00  0.00    +0.035 A 
ATOM      6  C   UNL     1       1.930  -5.376  -4.371  0.00  0.00    +0.023 A 
ATOM      7  C   UNL     1       2.587  -5.819  -5.502  0.00  0.00    +0.004 A 
ATOM      8  C   UNL     1       3.652  -5.100  -6.012  0.00  0.00    +0.028 A 
ATOM      9  C   UNL     1       4.063  -3.934  -5.392  0.00  0.00    +0.107 A 
ATOM     10  C   UNL     1       3.406  -3.482  -4.264  0.00  0.00    +0.051 A 
BRANCH   9  11
ATOM     11  S   UNL     1       5.420  -3.021  -6.046  0.00  0.00    +0.056 S 
ATOM     12  O   UNL     1       5.954  -2.261  -4.970  0.00  0.00    -0.153 OA
ATOM     13  O   UNL     1       6.206  -3.940  -6.793  0.00  0.00    -0.153 OA
BRANCH  11  14
ATOM     14  N   UNL     1       4.802  -1.935  -7.132  0.00  0.00    -0.204 NA
ATOM     15  H   UNL     1       3.846  -1.902  -7.295  0.00  0.00    +0.144 HD
ATOM     16  H   UNL     1       5.396  -1.331  -7.606  0.00  0.00    +0.144 HD
ENDBRANCH  11  14
ENDBRANCH   9  11
ENDBRANCH   3   5
BRANCH   1  17
ATOM     17  C   UNL     1       0.715  -1.947  -1.211  0.00  0.00    +0.019 C 
BRANCH  17  18
ATOM     18  N   UNL     1       0.692  -0.478  -1.205  0.00  0.00    +0.388 N 
ATOM     19  C   UNL     1      -0.028   0.005  -2.390  0.00  0.00    -0.095 C 
ATOM     20  H   UNL     1       1.638  -0.127  -1.219  0.00  0.00    -0.081 HD
BRANCH  18  22
ATOM     21  C   UNL     1      -0.013   1.526   0.014  0.00  0.00    -0.008 C 
ATOM     22  C   UNL     1       0.012  -0.004   0.008  0.00  0.00    -0.041 C 
BRANCH  22  23
ATOM     23  C   UNL     1       0.750  -0.500   1.225  0.00  0.00    -0.061 A 
ATOM     24  C   UNL     1       2.132  -0.507   1.238  0.00  0.00    +0.003 A 
ATOM     25  C   UNL     1       2.810  -0.962   2.354  0.00  0.00    +0.020 A 
ATOM     26  C   UNL     1       2.105  -1.409   3.457  0.00  0.00    +0.041 A 
ATOM     27  C   UNL     1       0.722  -1.402   3.442  0.00  0.00    +0.020 A 
ATOM     28  C   UNL     1       0.045  -0.942   2.328  0.00  0.00    +0.003 A 
ATOM     29 CL   UNL     1       2.956  -1.981   4.858  0.00  0.00    -0.084 Cl
ENDBRANCH  22  23
ENDBRANCH  18  22
ENDBRANCH  17  18
ENDBRANCH   1  17
TORSDOF 7
