REMARK  Name = ZINC63624933
REMARK  6 active torsions:
REMARK  status: ('A' for Active; 'I' for Inactive)
REMARK    1  A    between atoms: C_1  and  C_2
REMARK    2  A    between atoms: C_2  and  C_3
REMARK    3  A    between atoms: C_2  and  C_4
REMARK    4  A    between atoms: C_7  and  S_10
REMARK    5  A    between atoms: S_10  and  N_13
REMARK    6  A    between atoms: C_26  and  C_28
REMARK                            x       y       z     vdW  Elec       q    Type
REMARK                         _______ _______ _______ _____ _____    ______ ____
ROOT
ATOM      1  N   UNL     1      -6.594  -1.027  -0.734  0.00  0.00    -0.167 NA
ATOM      2  C   UNL     1      -7.218   0.029   0.070  0.00  0.00    +0.114 C 
ATOM      3  C   UNL     1      -6.778   1.405  -0.462  0.00  0.00    +0.050 C 
ATOM      4  C   UNL     1      -6.904   1.349  -1.964  0.00  0.00    -0.035 C 
ATOM      5  C   UNL     1      -7.518   2.152  -2.824  0.00  0.00    -0.001 A 
ATOM      6  C   UNL     1      -8.203   3.442  -2.642  0.00  0.00    +0.010 A 
ATOM      7  C   UNL     1      -8.749   3.994  -3.758  0.00  0.00    +0.001 A 
ATOM      8  C   UNL     1      -8.683   3.398  -5.022  0.00  0.00    +0.002 A 
ATOM      9  C   UNL     1      -8.067   2.217  -5.282  0.00  0.00    +0.026 A 
ATOM     10  C   UNL     1      -7.447   1.546  -4.188  0.00  0.00    +0.043 A 
ATOM     11  N   UNL     1      -6.778   0.431  -4.156  0.00  0.00    -0.376 N 
ATOM     12  C   UNL     1      -6.292   0.225  -2.791  0.00  0.00    +0.129 C 
ATOM     13  C   UNL     1      -6.800  -1.084  -2.190  0.00  0.00    +0.136 C 
ATOM     14  H   UNL     1      -6.627  -0.162  -4.908  0.00  0.00    +0.160 HD
ENDROOT
BRANCH  13  15
ATOM     15  C   UNL     1      -8.268  -1.243  -2.491  0.00  0.00    -0.026 A 
ATOM     16  C   UNL     1      -8.707  -2.321  -3.238  0.00  0.00    +0.007 A 
ATOM     17  C   UNL     1     -10.053  -2.468  -3.515  0.00  0.00    +0.020 A 
ATOM     18  C   UNL     1     -10.962  -1.536  -3.045  0.00  0.00    +0.041 A 
ATOM     19  C   UNL     1     -10.522  -0.457  -2.298  0.00  0.00    +0.020 A 
ATOM     20  C   UNL     1      -9.176  -0.315  -2.017  0.00  0.00    +0.007 A 
ATOM     21 CL   UNL     1     -12.652  -1.719  -3.393  0.00  0.00    -0.084 Cl
ENDBRANCH  13  15
BRANCH   1  22
ATOM     22  S   UNL     1      -5.642  -2.164   0.004  0.00  0.00    +0.061 S 
ATOM     23  O   UNL     1      -5.643  -3.305  -0.843  0.00  0.00    -0.153 OA
ATOM     24  O   UNL     1      -6.056  -2.221   1.361  0.00  0.00    -0.153 OA
BRANCH  22  28
ATOM     25  C   UNL     1      -1.407  -0.565   0.011  0.00  0.00    -0.045 A 
ATOM     26  C   UNL     1      -2.253  -0.287   1.069  0.00  0.00    +0.006 A 
ATOM     27  C   UNL     1      -3.546  -0.775   1.066  0.00  0.00    +0.029 A 
ATOM     28  C   UNL     1      -3.994  -1.541   0.006  0.00  0.00    +0.106 A 
ATOM     29  C   UNL     1      -3.149  -1.817  -1.052  0.00  0.00    +0.029 A 
ATOM     30  C   UNL     1      -1.857  -1.326  -1.052  0.00  0.00    +0.006 A 
BRANCH  25  32
ATOM     31  C   UNL     1      -0.029   1.496   0.077  0.00  0.00    +0.012 C 
ATOM     32  C   UNL     1       0.003  -0.033   0.014  0.00  0.00    +0.013 C 
ATOM     33  C   UNL     1       0.751  -0.578   1.232  0.00  0.00    +0.012 C 
ENDBRANCH  25  32
ENDBRANCH  22  28
ENDBRANCH   1  22
TORSDOF 4
