REMARK  Name = ZINC08719069
REMARK  4 active torsions:
REMARK  status: ('A' for Active; 'I' for Inactive)
REMARK    1  A    between atoms: C_8  and  C_23
REMARK    2  A    between atoms: C_11  and  C_12
REMARK    3  A    between atoms: C_11  and  N_42
REMARK    4  A    between atoms: N_14  and  C_15
REMARK                            x       y       z     vdW  Elec       q    Type
REMARK                         _______ _______ _______ _____ _____    ______ ____
ROOT
ATOM      1  C   UNL     1       1.880   1.435  -0.561  0.00  0.00    +0.000 A 
ATOM      2  C   UNL     1       0.637   1.925  -0.206  0.00  0.00    +0.000 A 
ATOM      3  C   UNL     1      -0.405   1.050   0.029  0.00  0.00    +0.002 A 
ATOM      4  C   UNL     1      -0.212  -0.318  -0.090  0.00  0.00    -0.061 A 
ATOM      5  C   UNL     1       1.027  -0.806  -0.446  0.00  0.00    -0.047 A 
ATOM      6  C   UNL     1       2.073   0.074  -0.680  0.00  0.00    +0.004 A 
ATOM      7  C   UNL     1       1.283  -2.284  -0.594  0.00  0.00    +0.029 C 
ATOM      8  C   UNL     1       0.171  -3.077   0.093  0.00  0.00    +0.024 C 
ATOM      9  C   UNL     1      -1.378  -1.232   0.182  0.00  0.00    -0.041 C 
ATOM     10  N   UNL     1      -1.123  -2.561  -0.400  0.00  0.00    +0.396 N 
ATOM     11  H   UNL     1      -1.084  -2.477  -1.422  0.00  0.00    -0.080 HD
ENDROOT
BRANCH   8  12
ATOM     12  C   UNL     1       0.295  -4.538  -0.257  0.00  0.00    +0.197 C 
ATOM     13  O   UNL     1      -0.186  -4.957  -1.289  0.00  0.00    -0.278 OA
ATOM     14  N   UNL     1       0.941  -5.378   0.575  0.00  0.00    -0.331 N 
ATOM     15  H   UNL     1       1.326  -5.043   1.400  0.00  0.00    +0.145 HD
ATOM     16  H   UNL     1       1.021  -6.318   0.350  0.00  0.00    +0.145 HD
ENDBRANCH   8  12
BRANCH  10  17
ATOM     17  C   UNL     1      -2.213  -3.492  -0.035  0.00  0.00    +0.020 C 
BRANCH  17  18
ATOM     18  C   UNL     1      -3.453  -3.119  -0.806  0.00  0.00    +0.201 C 
ATOM     19  O   UNL     1      -3.433  -2.173  -1.565  0.00  0.00    -0.278 OA
ATOM     20  N   UNL     1      -4.584  -3.836  -0.652  0.00  0.00    -0.285 N 
ATOM     21  H   UNL     1      -4.623  -4.544   0.010  0.00  0.00    +0.155 HD
BRANCH  20  22
ATOM     22  C   UNL     1      -5.703  -3.559  -1.448  0.00  0.00    +0.069 A 
ATOM     23  C   UNL     1      -5.554  -2.862  -2.639  0.00  0.00    +0.027 A 
ATOM     24  C   UNL     1      -6.658  -2.595  -3.425  0.00  0.00    +0.017 A 
ATOM     25  C   UNL     1      -7.914  -3.010  -3.021  0.00  0.00    +0.021 A 
ATOM     26  C   UNL     1      -8.069  -3.700  -1.831  0.00  0.00    +0.055 A 
ATOM     27  C   UNL     1      -6.966  -3.975  -1.043  0.00  0.00    +0.146 A 
ATOM     28  F   UNL     1      -7.117  -4.648   0.119  0.00  0.00    -0.204 F 
ATOM     29 BR   UNL     1      -9.423  -2.636  -4.097  0.00  0.00    -0.050 Br
ENDBRANCH  20  22
ENDBRANCH  17  18
ENDBRANCH  10  17
TORSDOF 4
