REMARK  Name = ZINC53941279
REMARK  9 active torsions:
REMARK  status: ('A' for Active; 'I' for Inactive)
REMARK    1  A    between atoms: C_6  and  C_7
REMARK    2  A    between atoms: C_7  and  C_9
REMARK    3  A    between atoms: C_7  and  N_21
REMARK    4  A    between atoms: C_9  and  C_10
REMARK    5  A    between atoms: C_10  and  N_11
REMARK    6  A    between atoms: N_11  and  C_12
REMARK    7  A    between atoms: N_11  and  C_15
REMARK    8  A    between atoms: C_12  and  C_13
REMARK    9  A    between atoms: C_13  and  O_14
REMARK                            x       y       z     vdW  Elec       q    Type
REMARK                         _______ _______ _______ _____ _____    ______ ____
ROOT
ATOM      1  C   UNL     1      -2.817  -1.955   1.411  0.00  0.00    -0.077 C 
ENDROOT
BRANCH   1   2
ATOM      2  N   UNL     1      -3.332  -2.390   2.716  0.00  0.00    +0.383 N 
ATOM      3  H   UNL     1      -3.400  -1.594   3.333  0.00  0.00    -0.081 HD
BRANCH   2   4
ATOM      4  C   UNL     1      -4.662  -2.989   2.542  0.00  0.00    -0.068 C 
ATOM      5  C   UNL     1      -5.199  -3.442   3.901  0.00  0.00    -0.015 C 
ATOM      6  C   UNL     1      -6.584  -4.066   3.719  0.00  0.00    -0.002 C 
ATOM      7  C   UNL     1      -7.535  -3.031   3.115  0.00  0.00    -0.000 C 
ATOM      8  C   UNL     1      -6.998  -2.578   1.756  0.00  0.00    -0.002 C 
ATOM      9  C   UNL     1      -5.613  -1.954   1.937  0.00  0.00    -0.015 C 
ENDBRANCH   2   4
BRANCH   2  10
ATOM     10  C   UNL     1      -2.419  -3.384   3.296  0.00  0.00    -0.050 C 
BRANCH  10  11
ATOM     11  C   UNL     1      -1.069  -2.726   3.588  0.00  0.00    +0.137 C 
BRANCH  11  12
ATOM     12  O   UNL     1      -1.237  -1.715   4.584  0.00  0.00    -0.397 OA
ATOM     13  H   UNL     1      -0.419  -1.256   4.820  0.00  0.00    +0.209 HD
ENDBRANCH  11  12
ENDBRANCH  10  11
ENDBRANCH   2  10
ENDBRANCH   1   2
BRANCH   1  14
ATOM     14  C   UNL     1      -2.732  -3.157   0.469  0.00  0.00    +0.005 C 
BRANCH  14  15
ATOM     15  C   UNL     1      -2.195  -2.704  -0.890  0.00  0.00    +0.079 C 
BRANCH  15  21
ATOM     16  C   UNL     1      -0.733  -4.445  -1.938  0.00  0.00    +0.006 A 
ATOM     17  C   UNL     1      -0.550  -5.547  -2.752  0.00  0.00    +0.015 A 
ATOM     18  C   UNL     1      -1.631  -6.110  -3.406  0.00  0.00    +0.018 A 
ATOM     19  C   UNL     1      -2.895  -5.570  -3.246  0.00  0.00    +0.015 A 
ATOM     20  C   UNL     1      -3.076  -4.468  -2.432  0.00  0.00    +0.006 A 
ATOM     21  C   UNL     1      -1.996  -3.906  -1.778  0.00  0.00    -0.031 A 
ATOM     22 BR   UNL     1      -1.382  -7.618  -4.521  0.00  0.00    -0.050 Br
ENDBRANCH  15  21
BRANCH  15  23
ATOM     23  N   UNL     1      -3.156  -1.787  -1.516  0.00  0.00    -0.324 NA
ATOM     24  H   UNL     1      -4.048  -2.237  -1.655  0.00  0.00    +0.119 HD
ATOM     25  H   UNL     1      -3.258  -0.943  -0.972  0.00  0.00    +0.119 HD
ENDBRANCH  15  23
ENDBRANCH  14  15
ENDBRANCH   1  14
TORSDOF 9
