REMARK  Name = ZINC04226546
REMARK  8 active torsions:
REMARK  status: ('A' for Active; 'I' for Inactive)
REMARK    1  A    between atoms: C_1  and  C_2
REMARK    2  A    between atoms: C_4  and  N_13
REMARK    3  A    between atoms: C_8  and  C_11
REMARK    4  A    between atoms: N_13  and  C_14
REMARK    5  A    between atoms: C_16  and  C_21
REMARK    6  A    between atoms: C_16  and  C_22
REMARK    7  A    between atoms: C_17  and  C_19
REMARK    8  A    between atoms: C_17  and  C_20
REMARK                            x       y       z     vdW  Elec       q    Type
REMARK                         _______ _______ _______ _____ _____    ______ ____
ROOT
ATOM      1  C   UNL     1       4.800   1.054  -0.037  0.00  0.00    +0.063 C 
ATOM      2  C   UNL     1       3.506   1.826  -0.021  0.00  0.00    +0.015 A 
ATOM      3  C   UNL     1       3.547   3.214  -0.015  0.00  0.00    +0.044 A 
ATOM      4  C   UNL     1       2.365   3.936   0.000  0.00  0.00    +0.038 A 
ATOM      5  C   UNL     1       1.146   3.214   0.008  0.00  0.00    +0.019 A 
ATOM      6  C   UNL     1      -0.090   3.877   0.023  0.00  0.00    +0.012 A 
ATOM      7  C   UNL     1      -1.245   3.162   0.031  0.00  0.00    +0.016 A 
ATOM      8  C   UNL     1      -1.219   1.757   0.017  0.00  0.00    +0.065 A 
ATOM      9  C   UNL     1      -0.013   1.076   0.008  0.00  0.00    +0.041 A 
ATOM     10  C   UNL     1       1.191   1.799   0.000  0.00  0.00    +0.049 A 
ATOM     11  N   UNL     1       2.373   1.087  -0.014  0.00  0.00    -0.358 N 
ATOM     12  H   UNL     1       2.391   0.061  -0.018  0.00  0.00    +0.166 HD
ENDROOT
BRANCH   8  13
ATOM     13  C   UNL     1      -2.488   1.000   0.019  0.00  0.00    +0.387 C 
ATOM     14  O   UNL     1      -2.470  -0.215   0.013  0.00  0.00    -0.241 OA
ATOM     15  O   UNL     1      -3.664   1.657   0.028  0.00  0.00    -0.241 OA
ENDBRANCH   8  13
BRANCH   4  16
ATOM     16  N   UNL     1       2.374   5.323   0.007  0.00  0.00    -0.341 N 
ATOM     17  H   UNL     1       1.537   5.813   0.018  0.00  0.00    +0.146 HD
BRANCH  16  18
ATOM     18  C   UNL     1       3.650   6.049  -0.001  0.00  0.00    +0.068 C 
ATOM     19  C   UNL     1       4.155   6.196   1.435  0.00  0.00    +0.009 C 
ATOM     20  C   UNL     1       5.472   6.967   1.458  0.00  0.00    -0.072 C 
ATOM     21  C   UNL     1       4.740   8.231  -0.585  0.00  0.00    -0.072 C 
ATOM     22  C   UNL     1       3.432   7.444  -0.585  0.00  0.00    +0.009 C 
ATOM     23  C   UNL     1       5.646   7.721  -1.711  0.00  0.00    -0.010 C 
ATOM     24  C   UNL     1       4.397   9.703  -0.906  0.00  0.00    -0.010 C 
ATOM     25  C   UNL     1       6.607   6.057   0.972  0.00  0.00    -0.010 C 
ATOM     26  C   UNL     1       5.774   7.328   2.929  0.00  0.00    -0.010 C 
ATOM     27  N   UNL     1       5.456   8.258   0.719  0.00  0.00    +0.386 N 
ATOM     28  H   UNL     1       6.428   8.536   0.542  0.00  0.00    -0.084 HD
ATOM     29  H   UNL     1       5.003   8.960   1.316  0.00  0.00    -0.084 HD
ENDBRANCH  16  18
ENDBRANCH   4  16
TORSDOF 3
