REMARK  Name = ZINC66321128
REMARK  13 active torsions:
REMARK  status: ('A' for Active; 'I' for Inactive)
REMARK    1  A    between atoms: C_1  and  C_2
REMARK    2  A    between atoms: C_2  and  C_3
REMARK    3  A    between atoms: C_3  and  C_4
REMARK    4  A    between atoms: C_4  and  N_5
REMARK    5  A    between atoms: N_8  and  C_9
REMARK    6  A    between atoms: C_9  and  C_15
REMARK    7  A    between atoms: N_17  and  C_18
REMARK    8  A    between atoms: C_18  and  C_19
REMARK    9  A    between atoms: C_19  and  C_20
REMARK   10  A    between atoms: C_20  and  N_21
REMARK   11  A    between atoms: N_21  and  C_22
REMARK   12  A    between atoms: N_21  and  C_23
REMARK   13  A    between atoms: C_23  and  C_24
REMARK                            x       y       z     vdW  Elec       q    Type
REMARK                         _______ _______ _______ _____ _____    ______ ____
ROOT
ATOM      1  C   UNL     1       2.852  -3.310  -4.337  0.00  0.00    +0.112 C 
ATOM      2  C   UNL     1       1.692  -4.000  -5.058  0.00  0.00    +0.035 C 
ATOM      3  C   UNL     1       1.048  -3.020  -6.041  0.00  0.00    +0.003 C 
ATOM      4  C   UNL     1       2.090  -2.569  -7.067  0.00  0.00    +0.000 C 
ATOM      5  C   UNL     1       3.250  -1.879  -6.346  0.00  0.00    +0.003 C 
ATOM      6  C   UNL     1       3.894  -2.858  -5.362  0.00  0.00    +0.035 C 
ENDROOT
BRANCH   1  10
ATOM      7  N   UNL     1       1.103  -1.249  -1.846  0.00  0.00    -0.299 N 
ATOM      8  C   UNL     1       1.488  -2.311  -2.581  0.00  0.00    +0.300 C 
ATOM      9  O   UNL     1       1.060  -3.418  -2.321  0.00  0.00    -0.253 OA
ATOM     10  N   UNL     1       2.348  -2.144  -3.606  0.00  0.00    -0.285 N 
ATOM     11  H   UNL     1       1.445  -0.365  -2.053  0.00  0.00    +0.150 HD
ATOM     12  H   UNL     1       2.634  -1.252  -3.860  0.00  0.00    +0.151 HD
BRANCH   7  13
ATOM     13  C   UNL     1       0.169  -1.430  -0.732  0.00  0.00    +0.106 C 
BRANCH  13  14
ATOM     14  C   UNL     1      -0.101  -0.079  -0.068  0.00  0.00    +0.018 C 
BRANCH  14  16
ATOM     15  C   UNL     1      -1.347   1.084   1.759  0.00  0.00    +0.004 C 
ATOM     16  C   UNL     1      -1.077  -0.268   1.095  0.00  0.00    -0.002 C 
ENDBRANCH  14  16
ENDBRANCH  13  14
ENDBRANCH   7  13
ENDBRANCH   1  10
BRANCH   1  17
ATOM     17  C   UNL     1       3.486  -4.274  -3.368  0.00  0.00    +0.237 C 
ATOM     18  O   UNL     1       3.330  -5.468  -3.511  0.00  0.00    -0.273 OA
ATOM     19  N   UNL     1       4.226  -3.810  -2.342  0.00  0.00    -0.314 N 
ATOM     20  H   UNL     1       4.408  -2.860  -2.266  0.00  0.00    +0.149 HD
BRANCH  19  21
ATOM     21  C   UNL     1       4.756  -4.740  -1.341  0.00  0.00    +0.102 C 
BRANCH  21  22
ATOM     22  C   UNL     1       5.555  -3.961  -0.294  0.00  0.00    +0.000 C 
BRANCH  22  23
ATOM     23  C   UNL     1       6.108  -4.932   0.751  0.00  0.00    -0.077 C 
BRANCH  23  24
ATOM     24  N   UNL     1       6.875  -4.184   1.757  0.00  0.00    +0.384 N 
ATOM     25  C   UNL     1       8.055  -3.580   1.124  0.00  0.00    -0.096 C 
ATOM     26  H   UNL     1       6.295  -3.458   2.150  0.00  0.00    -0.082 HD
BRANCH  24  27
ATOM     27  C   UNL     1       7.305  -5.098   2.824  0.00  0.00    +0.036 C 
BRANCH  27  28
ATOM     28  C   UNL     1       7.941  -4.293   3.959  0.00  0.00    +0.376 C 
ATOM     29  F   UNL     1       7.077  -3.262   4.341  0.00  0.00    -0.173 F 
ATOM     30  F   UNL     1       8.176  -5.134   5.052  0.00  0.00    -0.173 F 
ATOM     31  F   UNL     1       9.153  -3.748   3.521  0.00  0.00    -0.173 F 
ENDBRANCH  27  28
ENDBRANCH  24  27
ENDBRANCH  23  24
ENDBRANCH  22  23
ENDBRANCH  21  22
ENDBRANCH  19  21
ENDBRANCH   1  17
TORSDOF 11
