REMARK  Name = ZINC63654903
REMARK  8 active torsions:
REMARK  status: ('A' for Active; 'I' for Inactive)
REMARK    1  A    between atoms: C_1  and  O_2
REMARK    2  A    between atoms: O_2  and  C_3
REMARK    3  A    between atoms: C_6  and  C_9
REMARK    4  A    between atoms: C_11  and  S_19
REMARK    5  A    between atoms: S_19  and  C_20
REMARK    6  A    between atoms: C_20  and  C_21
REMARK    7  A    between atoms: C_21  and  N_22
REMARK    8  A    between atoms: C_23  and  C_25
REMARK                            x       y       z     vdW  Elec       q    Type
REMARK                         _______ _______ _______ _____ _____    ______ ____
ROOT
ATOM      1  C   UNL     1      -5.738  -3.398  -4.049  0.00  0.00    +0.093 C 
ENDROOT
BRANCH   1   2
ATOM      2  S   UNL     1      -5.499  -2.188  -2.719  0.00  0.00    -0.125 S 
BRANCH   2   4
ATOM      3  C   UNL     1      -4.872  -2.639   0.016  0.00  0.00    +0.147 C 
ATOM      4  C   UNL     1      -5.241  -3.120  -1.370  0.00  0.00    +0.021 C 
ATOM      5  C   UNL     1      -5.321  -4.506  -1.278  0.00  0.00    +0.010 A 
ATOM      6  C   UNL     1      -5.623  -5.507  -2.226  0.00  0.00    +0.011 A 
ATOM      7  C   UNL     1      -5.628  -6.812  -1.850  0.00  0.00    +0.001 A 
ATOM      8  C   UNL     1      -5.340  -7.195  -0.539  0.00  0.00    +0.002 A 
ATOM      9  C   UNL     1      -5.042  -6.286   0.423  0.00  0.00    +0.026 A 
ATOM     10  C   UNL     1      -5.017  -4.905   0.104  0.00  0.00    +0.044 A 
ATOM     11  N   UNL     1      -4.761  -3.841   0.847  0.00  0.00    -0.373 N 
ATOM     12  H   UNL     1      -4.535  -3.854   1.790  0.00  0.00    +0.161 HD
BRANCH   3  16
ATOM     13  C   UNL     1      -1.132  -0.573  -0.091  0.00  0.00    +0.120 A 
ATOM     14  C   UNL     1      -2.320   0.142  -0.050  0.00  0.00    +0.046 A 
ATOM     15  C   UNL     1      -3.528  -0.528  -0.015  0.00  0.00    +0.009 A 
ATOM     16  C   UNL     1      -3.553  -1.910  -0.022  0.00  0.00    -0.020 A 
ATOM     17  C   UNL     1      -2.370  -2.625  -0.063  0.00  0.00    +0.009 A 
ATOM     18  C   UNL     1      -1.161  -1.960  -0.103  0.00  0.00    +0.046 A 
BRANCH  13  20
ATOM     19  C   UNL     1       0.010   1.512  -0.110  0.00  0.00    +0.277 C 
ATOM     20  O   UNL     1       0.057   0.084  -0.125  0.00  0.00    -0.495 OA
ENDBRANCH  13  20
ENDBRANCH   3  16
ENDBRANCH   2   4
ENDBRANCH   1   2
BRANCH   1  21
ATOM     21  C   UNL     1      -5.840  -2.668  -5.390  0.00  0.00    +0.115 C 
BRANCH  21  22
ATOM     22  N   UNL     1      -6.033  -3.645  -6.464  0.00  0.00    -0.314 N 
ATOM     23  C   UNL     1      -6.150  -3.229  -7.741  0.00  0.00    +0.221 C 
ATOM     24  O   UNL     1      -6.003  -2.057  -8.012  0.00  0.00    -0.275 OA
ATOM     25  H   UNL     1      -6.077  -4.592  -6.257  0.00  0.00    +0.149 HD
BRANCH  23  26
ATOM     26  C   UNL     1      -6.463  -4.222  -8.831  0.00  0.00    +0.119 C 
ATOM     27  C   UNL     1      -7.958  -4.404  -8.933  0.00  0.00    +0.007 A 
ATOM     28  C   UNL     1      -8.697  -4.501  -7.766  0.00  0.00    +0.008 A 
ATOM     29  C   UNL     1     -10.067  -4.669  -7.821  0.00  0.00    +0.001 A 
ATOM     30  C   UNL     1     -10.707  -4.741  -9.045  0.00  0.00    +0.004 A 
ATOM     31  C   UNL     1      -9.975  -4.644 -10.211  0.00  0.00    +0.046 A 
ATOM     32  C   UNL     1      -8.595  -4.475 -10.160  0.00  0.00    +0.125 A 
ATOM     33  O   UNL     1      -7.912  -4.380 -11.333  0.00  0.00    -0.484 OA
ATOM     34  C   UNL     1      -6.500  -4.588 -11.282  0.00  0.00    +0.204 C 
ATOM     35  C   UNL     1      -5.929  -3.700 -10.166  0.00  0.00    +0.073 C 
ATOM     36  C   UNL     1      -4.426  -3.772 -10.195  0.00  0.00    -0.018 C 
ATOM     37  C   UNL     1      -3.796  -3.852 -11.365  0.00  0.00    -0.004 C 
ATOM     38  C   UNL     1      -4.575  -3.856 -12.615  0.00  0.00    -0.001 C 
ATOM     39  C   UNL     1      -5.863  -4.217 -12.594  0.00  0.00    +0.017 C 
ENDBRANCH  23  26
ENDBRANCH  21  22
ENDBRANCH   1  21
TORSDOF 7
