REMARK  Name = ZINC03043978
REMARK  9 active torsions:
REMARK  status: ('A' for Active; 'I' for Inactive)
REMARK    1  A    between atoms: C_1  and  C_2
REMARK    2  A    between atoms: C_5  and  C_8
REMARK    3  A    between atoms: C_8  and  N_9
REMARK    4  A    between atoms: N_17  and  N_18
REMARK    5  A    between atoms: N_18  and  C_19
REMARK    6  A    between atoms: C_19  and  N_21
REMARK    7  A    between atoms: N_21  and  C_22
REMARK    8  A    between atoms: C_25  and  C_29
REMARK    9  A    between atoms: C_26  and  C_28
REMARK                            x       y       z     vdW  Elec       q    Type
REMARK                         _______ _______ _______ _____ _____    ______ ____
ROOT
ATOM      1  N   UNL     1       1.308  -5.029   0.056  0.00  0.00    -0.261 N 
ATOM      2  C   UNL     1       2.121  -4.812  -1.052  0.00  0.00    +0.046 A 
ATOM      3  C   UNL     1       1.827  -4.408  -2.349  0.00  0.00    +0.025 A 
ATOM      4  C   UNL     1       2.838  -4.266  -3.277  0.00  0.00    +0.017 A 
ATOM      5  C   UNL     1       4.155  -4.524  -2.931  0.00  0.00    +0.019 A 
ATOM      6  C   UNL     1       4.466  -4.926  -1.646  0.00  0.00    +0.027 A 
ATOM      7  C   UNL     1       3.453  -5.071  -0.705  0.00  0.00    +0.029 A 
ATOM      8  C   UNL     1       3.443  -5.475   0.720  0.00  0.00    +0.153 C 
ATOM      9  N   UNL     1       4.472  -5.810   1.463  0.00  0.00    -0.175 NA
ATOM     10  C   UNL     1       2.026  -5.413   1.125  0.00  0.00    +0.272 C 
ATOM     11  O   UNL     1       1.584  -5.667   2.230  0.00  0.00    -0.268 OA
ATOM     12 BR   UNL     1       5.527  -4.324  -4.217  0.00  0.00    -0.050 Br
ENDROOT
BRANCH   9  13
ATOM     13  N   UNL     1       4.281  -6.168   2.804  0.00  0.00    -0.217 N 
ATOM     14  H   UNL     1       3.388  -6.169   3.183  0.00  0.00    +0.176 HD
BRANCH  13  15
ATOM     15  C   UNL     1       5.337  -6.513   3.566  0.00  0.00    +0.154 C 
ATOM     16  S   UNL     1       5.104  -6.950   5.205  0.00  0.00    -0.017 S 
BRANCH  15  17
ATOM     17  N   UNL     1       6.578  -6.512   3.039  0.00  0.00    -0.296 N 
ATOM     18  H   UNL     1       6.704  -6.324   2.096  0.00  0.00    +0.154 HD
BRANCH  17  19
ATOM     19  C   UNL     1       7.683  -6.783   3.852  0.00  0.00    +0.033 A 
ATOM     20  C   UNL     1       7.649  -7.849   4.742  0.00  0.00    +0.023 A 
ATOM     21  C   UNL     1       8.742  -8.113   5.543  0.00  0.00    +0.005 A 
ATOM     22  C   UNL     1       9.870  -7.317   5.460  0.00  0.00    -0.047 A 
ATOM     23  C   UNL     1       9.908  -6.256   4.575  0.00  0.00    -0.046 A 
ATOM     24  C   UNL     1       8.820  -5.990   3.767  0.00  0.00    +0.027 A 
ATOM     25  C   UNL     1      11.139  -5.391   4.489  0.00  0.00    +0.044 C 
ATOM     26  C   UNL     1      11.061  -7.608   6.337  0.00  0.00    +0.044 C 
ENDBRANCH  17  19
ENDBRANCH  15  17
ENDBRANCH  13  15
ENDBRANCH   9  13
BRANCH   1  27
ATOM     27  C   UNL     1      -0.147  -4.854   0.058  0.00  0.00    +0.149 C 
BRANCH  27  32
ATOM     28  C   UNL     1      -1.435   0.587   1.516  0.00  0.00    +0.044 C 
ATOM     29  C   UNL     1      -1.099  -0.832   1.136  0.00  0.00    -0.050 A 
ATOM     30  C   UNL     1      -0.907  -1.165  -0.192  0.00  0.00    +0.003 A 
ATOM     31  C   UNL     1      -0.599  -2.466  -0.541  0.00  0.00    +0.005 A 
ATOM     32  C   UNL     1      -0.482  -3.435   0.438  0.00  0.00    -0.030 A 
ATOM     33  C   UNL     1      -0.672  -3.102   1.766  0.00  0.00    +0.005 A 
ATOM     34  C   UNL     1      -0.976  -1.799   2.115  0.00  0.00    +0.003 A 
ENDBRANCH  27  32
ENDBRANCH   1  27
TORSDOF 6
