REMARK  Name = ZINC66978448
REMARK  9 active torsions:
REMARK  status: ('A' for Active; 'I' for Inactive)
REMARK    1  A    between atoms: C_1  and  O_2
REMARK    2  A    between atoms: O_2  and  C_3
REMARK    3  A    between atoms: C_3  and  C_4
REMARK    4  A    between atoms: C_4  and  N_5
REMARK    5  A    between atoms: C_8  and  C_11
REMARK    6  A    between atoms: C_11  and  N_12
REMARK    7  A    between atoms: N_15  and  C_16
REMARK    8  A    between atoms: C_16  and  C_17
REMARK    9  A    between atoms: C_17  and  O_27
REMARK                            x       y       z     vdW  Elec       q    Type
REMARK                         _______ _______ _______ _____ _____    ______ ____
ROOT
ATOM      1  N   UNL     1       0.484  -6.073   4.380  0.00  0.00    -0.299 N 
ATOM      2  C   UNL     1       1.532  -6.492   5.116  0.00  0.00    +0.300 C 
ATOM      3  O   UNL     1       2.658  -6.430   4.661  0.00  0.00    -0.253 OA
ATOM      4  N   UNL     1       1.333  -6.978   6.357  0.00  0.00    -0.296 N 
ATOM      5  H   UNL     1      -0.414  -6.122   4.743  0.00  0.00    +0.150 HD
ATOM      6  H   UNL     1       0.435  -7.027   6.720  0.00  0.00    +0.150 HD
ENDROOT
BRANCH   1   7
ATOM      7  C   UNL     1       0.701  -5.544   3.031  0.00  0.00    +0.107 C 
BRANCH   7  11
ATOM      8  N   UNL     1      -0.887  -3.224   0.952  0.00  0.00    +0.381 N 
ATOM      9  C   UNL     1      -1.867  -3.085   2.060  0.00  0.00    -0.078 C 
ATOM     10  C   UNL     1      -1.249  -3.948   3.189  0.00  0.00    -0.016 C 
ATOM     11  C   UNL     1      -0.643  -5.143   2.418  0.00  0.00    -0.012 C 
ATOM     12  C   UNL     1      -0.446  -4.635   0.978  0.00  0.00    -0.074 C 
ATOM     13  H   UNL     1      -0.101  -2.611   1.102  0.00  0.00    -0.082 HD
BRANCH   8  14
ATOM     14  C   UNL     1      -1.530  -2.918  -0.333  0.00  0.00    -0.050 C 
BRANCH  14  15
ATOM     15  C   UNL     1      -1.868  -1.427  -0.393  0.00  0.00    +0.141 C 
BRANCH  15  17
ATOM     16  C   UNL     1      -0.864   0.749  -0.437  0.00  0.00    +0.193 C 
ATOM     17  O   UNL     1      -0.660  -0.664  -0.384  0.00  0.00    -0.385 OA
ENDBRANCH  15  17
ENDBRANCH  14  15
ENDBRANCH   8  14
ENDBRANCH   7  11
ENDBRANCH   1   7
BRANCH   4  18
ATOM     18  C   UNL     1       2.473  -7.433   7.157  0.00  0.00    +0.145 C 
BRANCH  18  19
ATOM     19  C   UNL     1       1.993  -7.811   8.560  0.00  0.00    +0.107 C 
ATOM     20  C   UNL     1       1.290  -6.611   9.191  0.00  0.00    +0.041 C 
ATOM     21  C   UNL     1       1.012  -6.933  10.664  0.00  0.00    +0.008 C 
ATOM     22  C   UNL     1       2.344  -6.954  11.412  0.00  0.00    +0.035 C 
ATOM     23  C   UNL     1       3.334  -7.840  10.704  0.00  0.00    -0.041 A 
ATOM     24  C   UNL     1       3.175  -8.231   9.393  0.00  0.00    -0.011 A 
ATOM     25  C   UNL     1       4.130  -9.044   8.797  0.00  0.00    +0.007 A 
ATOM     26  C   UNL     1       5.234  -9.467   9.509  0.00  0.00    +0.000 A 
ATOM     27  C   UNL     1       5.392  -9.079  10.826  0.00  0.00    +0.000 A 
ATOM     28  C   UNL     1       4.445  -8.269  11.419  0.00  0.00    +0.004 A 
BRANCH  19  29
ATOM     29  O   UNL     1       1.072  -8.899   8.466  0.00  0.00    -0.382 OA
ATOM     30  H   UNL     1       1.446  -9.697   8.066  0.00  0.00    +0.211 HD
ENDBRANCH  19  29
ENDBRANCH  18  19
ENDBRANCH   4  18
TORSDOF 8
