REMARK  Name = ZINC00918725
REMARK  4 active torsions:
REMARK  status: ('A' for Active; 'I' for Inactive)
REMARK    1  A    between atoms: C_5  and  N_7
REMARK    2  A    between atoms: C_8  and  C_10
REMARK    3  A    between atoms: C_15  and  C_26
REMARK    4  A    between atoms: C_18  and  C_21
REMARK                            x       y       z     vdW  Elec       q    Type
REMARK                         _______ _______ _______ _____ _____    ______ ____
ROOT
ATOM      1  C   UNL     1       0.118  -4.245   0.189  0.00  0.00    +0.149 A 
ATOM      2  C   UNL     1      -1.007  -5.094   0.302  0.00  0.00    +0.078 A 
ATOM      3  C   UNL     1      -0.555  -6.362   0.370  0.00  0.00    +0.119 A 
ATOM      4  N   UNL     1       0.809  -6.332   0.300  0.00  0.00    -0.238 N 
ATOM      5  N   UNL     1       1.204  -5.000   0.185  0.00  0.00    -0.164 NA
ATOM      6  C   UNL     1       1.651  -7.531   0.339  0.00  0.00    +0.215 C 
ATOM      7  C   UNL     1       0.794  -8.751  -0.018  0.00  0.00    +0.066 C 
ATOM      8  C   UNL     1      -0.485  -8.756   0.827  0.00  0.00    +0.140 C 
ATOM      9  N   UNL     1      -1.274  -7.554   0.491  0.00  0.00    -0.319 N 
ATOM     10  H   UNL     1      -2.235  -7.590   0.362  0.00  0.00    +0.148 HD
ENDROOT
BRANCH   8  11
ATOM     11  C   UNL     1      -1.287  -9.995   0.523  0.00  0.00    +0.125 A 
ATOM     12  C   UNL     1      -1.324 -11.111   1.272  0.00  0.00    +0.046 A 
ATOM     13  C   UNL     1      -2.197 -12.013   0.621  0.00  0.00    +0.041 A 
ATOM     14  C   UNL     1      -2.641 -11.393  -0.488  0.00  0.00    +0.195 A 
ATOM     15  O   UNL     1      -2.091 -10.169  -0.539  0.00  0.00    -0.466 OA
ENDBRANCH   8  11
BRANCH   1  17
ATOM     16  N   UNL     1       1.237  -2.079  -0.022  0.00  0.00    -0.279 N 
ATOM     17  C   UNL     1       0.086  -2.772   0.087  0.00  0.00    +0.268 C 
ATOM     18  O   UNL     1      -0.978  -2.185   0.102  0.00  0.00    -0.268 OA
ATOM     19  H   UNL     1       2.082  -2.550  -0.100  0.00  0.00    +0.155 HD
BRANCH  16  24
ATOM     20  C   UNL     1       0.136   1.378  -0.616  0.00  0.00    +0.002 A 
ATOM     21  C   UNL     1       1.168   2.087  -0.029  0.00  0.00    +0.001 A 
ATOM     22  C   UNL     1       2.224   1.416   0.560  0.00  0.00    +0.017 A 
ATOM     23  C   UNL     1       2.250   0.034   0.564  0.00  0.00    +0.039 A 
ATOM     24  C   UNL     1       1.214  -0.681  -0.024  0.00  0.00    +0.048 A 
ATOM     25  C   UNL     1       0.155  -0.003  -0.615  0.00  0.00    +0.024 A 
ATOM     26 BR   UNL     1       3.695  -0.883   1.369  0.00  0.00    -0.048 Br
ENDBRANCH  16  24
ENDBRANCH   1  17
BRANCH   6  27
ATOM     27  C   UNL     1       2.791  -7.389  -0.671  0.00  0.00    +0.412 C 
ATOM     28  F   UNL     1       3.563  -6.268  -0.349  0.00  0.00    -0.168 F 
ATOM     29  F   UNL     1       3.594  -8.534  -0.633  0.00  0.00    -0.168 F 
ATOM     30  F   UNL     1       2.259  -7.235  -1.956  0.00  0.00    -0.168 F 
ENDBRANCH   6  27
TORSDOF 4
