REMARK  Name = ZINC64176271
REMARK  10 active torsions:
REMARK  status: ('A' for Active; 'I' for Inactive)
REMARK    1  A    between atoms: C_1  and  C_2
REMARK    2  A    between atoms: C_2  and  C_4
REMARK    3  A    between atoms: C_2  and  N_13
REMARK    4  A    between atoms: C_14  and  C_16
REMARK    5  A    between atoms: C_16  and  C_18
REMARK    6  A    between atoms: C_16  and  N_28
REMARK    7  A    between atoms: C_18  and  C_19
REMARK    8  A    between atoms: C_29  and  O_31
REMARK    9  A    between atoms: O_31  and  C_32
REMARK   10  A    between atoms: C_32  and  C_33
REMARK                            x       y       z     vdW  Elec       q    Type
REMARK                         _______ _______ _______ _____ _____    ______ ____
ROOT
ATOM      1  C   UNL     1       2.783  -1.099   2.395  0.00  0.00    +0.166 C 
ENDROOT
BRANCH   1   3
ATOM      2  N   UNL     1       0.711  -0.489   1.189  0.00  0.00    -0.307 N 
ATOM      3  C   UNL     1       2.054  -0.600   1.174  0.00  0.00    +0.234 C 
ATOM      4  O   UNL     1       2.676  -0.297   0.177  0.00  0.00    -0.274 OA
ATOM      5  H   UNL     1       0.213  -0.731   1.986  0.00  0.00    +0.149 HD
BRANCH   2   7
ATOM      6  C   UNL     1      -0.019   1.526   0.010  0.00  0.00    +0.033 C 
ATOM      7  C   UNL     1       0.002  -0.004   0.002  0.00  0.00    +0.100 C 
BRANCH   7   8
ATOM      8  C   UNL     1      -1.412  -0.526   0.013  0.00  0.00    -0.024 A 
ATOM      9  C   UNL     1      -2.122  -0.570   1.198  0.00  0.00    +0.009 A 
ATOM     10  C   UNL     1      -3.419  -1.047   1.213  0.00  0.00    +0.050 A 
ATOM     11  C   UNL     1      -4.011  -1.483   0.039  0.00  0.00    +0.166 A 
ATOM     12  C   UNL     1      -3.296  -1.438  -1.156  0.00  0.00    +0.167 A 
ATOM     13  C   UNL     1      -1.998  -0.953  -1.164  0.00  0.00    +0.055 A 
ATOM     14  O   UNL     1      -4.090  -1.917  -2.158  0.00  0.00    -0.453 OA
ATOM     15  C   UNL     1      -5.150  -2.634  -1.499  0.00  0.00    +0.466 C 
ATOM     16  O   UNL     1      -5.253  -1.990  -0.215  0.00  0.00    -0.453 OA
ENDBRANCH   7   8
ENDBRANCH   2   7
ENDBRANCH   1   3
BRANCH   1  17
ATOM     17  N   UNL     1       4.223  -1.127   2.126  0.00  0.00    -0.270 N 
ATOM     18  C   UNL     1       5.020  -1.968   2.815  0.00  0.00    +0.401 C 
ATOM     19  O   UNL     1       4.545  -2.702   3.658  0.00  0.00    -0.226 OA
ATOM     20  H   UNL     1       4.602  -0.541   1.453  0.00  0.00    +0.153 HD
BRANCH  18  21
ATOM     21  O   UNL     1       6.343  -1.994   2.568  0.00  0.00    -0.446 OA
BRANCH  21  22
ATOM     22  C   UNL     1       7.128  -2.909   3.335  0.00  0.00    +0.269 C 
BRANCH  22  23
ATOM     23  C   UNL     1       8.574  -2.798   2.924  0.00  0.00    -0.010 A 
ATOM     24  C   UNL     1       9.064  -3.587   1.900  0.00  0.00    +0.007 A 
ATOM     25  C   UNL     1      10.390  -3.485   1.523  0.00  0.00    +0.000 A 
ATOM     26  C   UNL     1      11.226  -2.594   2.169  0.00  0.00    +0.000 A 
ATOM     27  C   UNL     1      10.736  -1.804   3.193  0.00  0.00    +0.000 A 
ATOM     28  C   UNL     1       9.409  -1.903   3.567  0.00  0.00    +0.007 A 
ENDBRANCH  22  23
ENDBRANCH  21  22
ENDBRANCH  18  21
ENDBRANCH   1  17
BRANCH   1  29
ATOM     29  C   UNL     1       2.502  -0.165   3.574  0.00  0.00    +0.065 C 
BRANCH  29  30
ATOM     30  C   UNL     1       3.129  -0.730   4.822  0.00  0.00    -0.039 C 
ATOM     31  C   UNL     1       4.340  -0.417   5.337  0.00  0.00    -0.001 A 
ATOM     32  C   UNL     1       5.396   0.506   4.904  0.00  0.00    +0.010 A 
ATOM     33  C   UNL     1       6.525   0.605   5.642  0.00  0.00    +0.001 A 
ATOM     34  C   UNL     1       6.711  -0.151   6.808  0.00  0.00    +0.002 A 
ATOM     35  C   UNL     1       5.787  -1.020   7.269  0.00  0.00    +0.026 A 
ATOM     36  C   UNL     1       4.561  -1.203   6.571  0.00  0.00    +0.043 A 
ATOM     37  N   UNL     1       3.527  -1.972   6.811  0.00  0.00    -0.380 N 
ATOM     38  C   UNL     1       2.529  -1.756   5.757  0.00  0.00    +0.144 C 
ATOM     39  H   UNL     1       3.435  -2.580   7.561  0.00  0.00    +0.160 HD
ENDBRANCH  29  30
ENDBRANCH   1  29
TORSDOF 9
