REMARK  Name = ZINC38547743
REMARK  9 active torsions:
REMARK  status: ('A' for Active; 'I' for Inactive)
REMARK    1  A    between atoms: C_1  and  C_2
REMARK    2  A    between atoms: C_2  and  C_3
REMARK    3  A    between atoms: C_5  and  C_16
REMARK    4  A    between atoms: C_6  and  N_8
REMARK    5  A    between atoms: C_9  and  C_11
REMARK    6  A    between atoms: C_16  and  C_18
REMARK    7  A    between atoms: C_16  and  N_26
REMARK    8  A    between atoms: C_23  and  O_24
REMARK    9  A    between atoms: O_24  and  C_25
REMARK                            x       y       z     vdW  Elec       q    Type
REMARK                         _______ _______ _______ _____ _____    ______ ____
ROOT
ATOM      1  C   UNL     1       3.972  -1.477  -2.929  0.00  0.00    +0.138 C 
ENDROOT
BRANCH   1   2
ATOM      2  N   UNL     1       4.660  -0.571  -2.006  0.00  0.00    -0.319 N 
ATOM      3  C   UNL     1       5.912  -0.063  -2.333  0.00  0.00    +0.097 A 
ATOM      4  C   UNL     1       6.504  -0.416  -3.542  0.00  0.00    +0.041 A 
ATOM      5  C   UNL     1       7.750   0.096  -3.855  0.00  0.00    +0.005 A 
ATOM      6  C   UNL     1       8.364   0.947  -2.946  0.00  0.00    +0.018 A 
ATOM      7  C   UNL     1       7.719   1.255  -1.765  0.00  0.00    +0.084 A 
ATOM      8  N   UNL     1       6.528   0.756  -1.495  0.00  0.00    -0.350 N 
ATOM      9  H   UNL     1       4.241  -0.324  -1.166  0.00  0.00    +0.148 HD
ATOM     10  H   UNL     1       6.095   0.991  -0.659  0.00  0.00    +0.166 HD
ENDBRANCH   1   2
BRANCH   1  11
ATOM     11  C   UNL     1       4.391  -2.896  -2.644  0.00  0.00    +0.019 A 
ATOM     12  C   UNL     1       4.831  -3.248  -1.382  0.00  0.00    +0.009 A 
ATOM     13  C   UNL     1       5.216  -4.549  -1.120  0.00  0.00    +0.001 A 
ATOM     14  C   UNL     1       5.162  -5.503  -2.120  0.00  0.00    +0.004 A 
ATOM     15  C   UNL     1       4.722  -5.157  -3.383  0.00  0.00    +0.046 A 
ATOM     16  C   UNL     1       4.330  -3.853  -3.647  0.00  0.00    +0.125 A 
BRANCH  16  17
ATOM     17  O   UNL     1       3.892  -3.511  -4.887  0.00  0.00    -0.495 OA
ATOM     18  C   UNL     1       3.755  -4.567  -5.840  0.00  0.00    +0.277 C 
ENDBRANCH  16  17
ENDBRANCH   1  11
BRANCH   1  21
ATOM     19  C   UNL     1       0.434  -2.160  -1.902  0.00  0.00    -0.008 A 
ATOM     20  C   UNL     1       1.772  -2.308  -2.049  0.00  0.00    +0.019 A 
ATOM     21  C   UNL     1       2.482  -1.347  -2.744  0.00  0.00    +0.006 A 
ATOM     22  C   UNL     1       1.811  -0.279  -3.259  0.00  0.00    +0.078 A 
ATOM     23  S   UNL     1       0.131  -0.627  -2.766  0.00  0.00    -0.078 S 
BRANCH  22  24
ATOM     24  N   UNL     1       2.307   0.804  -3.988  0.00  0.00    -0.273 N 
ATOM     25  C   UNL     1       1.490   1.824  -4.319  0.00  0.00    +0.284 C 
ATOM     26  O   UNL     1       0.343   1.842  -3.913  0.00  0.00    -0.266 OA
ATOM     27  H   UNL     1       3.239   0.822  -4.256  0.00  0.00    +0.156 HD
BRANCH  25  28
ATOM     28  C   UNL     1       1.984   2.913  -5.168  0.00  0.00    +0.189 A 
ATOM     29  C   UNL     1       1.243   3.953  -5.652  0.00  0.00    +0.054 A 
ATOM     30  C   UNL     1       2.114   4.750  -6.411  0.00  0.00    +0.042 A 
ATOM     31  C   UNL     1       3.333   4.169  -6.358  0.00  0.00    +0.196 A 
ATOM     32  O   UNL     1       3.252   3.065  -5.604  0.00  0.00    -0.458 OA
ENDBRANCH  25  28
ENDBRANCH  22  24
BRANCH  19  34
ATOM     33  C   UNL     1      -0.669  -2.633   0.268  0.00  0.00    +0.009 C 
ATOM     34  C   UNL     1      -0.548  -3.060  -1.196  0.00  0.00    +0.039 C 
ENDBRANCH  19  34
ENDBRANCH   1  21
TORSDOF 7
