REMARK  Name = ZINC18122176
REMARK  8 active torsions:
REMARK  status: ('A' for Active; 'I' for Inactive)
REMARK    1  A    between atoms: C_1  and  C_2
REMARK    2  A    between atoms: C_2  and  N_22
REMARK    3  A    between atoms: C_4  and  C_18
REMARK    4  A    between atoms: N_22  and  C_23
REMARK    5  A    between atoms: C_25  and  C_31
REMARK    6  A    between atoms: C_25  and  C_32
REMARK    7  A    between atoms: C_27  and  C_29
REMARK    8  A    between atoms: C_27  and  C_30
REMARK                            x       y       z     vdW  Elec       q    Type
REMARK                         _______ _______ _______ _____ _____    ______ ____
ROOT
ATOM      1  C   UNL     1      -0.458   1.689   0.054  0.00  0.00    +0.061 C 
ATOM      2  C   UNL     1      -0.331   0.187   0.035  0.00  0.00    +0.015 C 
ATOM      3  C   UNL     1      -0.272  -0.517   1.226  0.00  0.00    +0.087 C 
ATOM      4  C   UNL     1      -0.143  -1.972   1.401  0.00  0.00    +0.176 C 
ATOM      5  N   UNL     1      -0.126  -2.213   2.676  0.00  0.00    -0.165 NA
ATOM      6  N   UNL     1      -0.232  -1.036   3.416  0.00  0.00    -0.131 N 
ATOM      7  C   UNL     1      -0.318   0.026   2.589  0.00  0.00    +0.276 C 
ATOM      8  O   UNL     1      -0.417   1.198   2.909  0.00  0.00    -0.268 OA
ATOM      9  C   UNL     1      -0.243  -0.967   4.802  0.00  0.00    +0.189 A 
ATOM     10  N   UNL     1      -0.345   0.091   5.573  0.00  0.00    -0.223 NA
ATOM     11  C   UNL     1      -0.341   0.010   6.921  0.00  0.00    +0.080 A 
ATOM     12  C   UNL     1      -0.444   1.063   7.859  0.00  0.00    +0.029 A 
ATOM     13  C   UNL     1      -0.422   0.806   9.205  0.00  0.00    +0.002 A 
ATOM     14  C   UNL     1      -0.301  -0.486   9.694  0.00  0.00    +0.001 A 
ATOM     15  C   UNL     1      -0.199  -1.541   8.806  0.00  0.00    +0.017 A 
ATOM     16  C   UNL     1      -0.219  -1.293   7.456  0.00  0.00    +0.041 A 
ATOM     17  S   UNL     1      -0.128  -2.296   5.992  0.00  0.00    -0.050 S 
ENDROOT
BRANCH   4  18
ATOM     18  C   UNL     1      -0.050  -2.996   0.299  0.00  0.00    +0.437 C 
ATOM     19  F   UNL     1       0.062  -4.273   0.859  0.00  0.00    -0.164 F 
ATOM     20  F   UNL     1      -1.201  -2.934  -0.494  0.00  0.00    -0.164 F 
ATOM     21  F   UNL     1       1.075  -2.732  -0.489  0.00  0.00    -0.164 F 
ENDBRANCH   4  18
BRANCH   2  22
ATOM     22  N   UNL     1      -0.275  -0.470  -1.141  0.00  0.00    -0.344 N 
ATOM     23  H   UNL     1      -0.193  -1.437  -1.152  0.00  0.00    +0.146 HD
BRANCH  22  24
ATOM     24  C   UNL     1      -0.337   0.277  -2.403  0.00  0.00    +0.068 C 
ATOM     25  C   UNL     1      -1.802   0.481  -2.794  0.00  0.00    +0.009 C 
ATOM     26  C   UNL     1      -1.884   1.247  -4.114  0.00  0.00    -0.072 C 
ATOM     27  N   UNL     1      -1.109   0.608  -5.168  0.00  0.00    +0.386 N 
ATOM     28  C   UNL     1       0.243   0.180  -4.846  0.00  0.00    -0.072 C 
ATOM     29  C   UNL     1       0.344  -0.536  -3.504  0.00  0.00    +0.009 C 
ATOM     30  C   UNL     1       1.233   1.347  -4.892  0.00  0.00    -0.010 C 
ATOM     31  C   UNL     1       0.682  -0.827  -5.937  0.00  0.00    -0.010 C 
ATOM     32  C   UNL     1      -1.478   2.706  -3.905  0.00  0.00    -0.010 C 
ATOM     33  C   UNL     1      -3.365   1.242  -4.556  0.00  0.00    -0.010 C 
ATOM     34  H   UNL     1      -1.633  -0.204  -5.503  0.00  0.00    -0.084 HD
ATOM     35  H   UNL     1      -1.064   1.247  -5.965  0.00  0.00    -0.084 HD
ENDBRANCH  22  24
ENDBRANCH   2  22
TORSDOF 3
