REMARK  Name = ZINC23229946
REMARK  8 active torsions:
REMARK  status: ('A' for Active; 'I' for Inactive)
REMARK    1  A    between atoms: C_6  and  O_7
REMARK    2  A    between atoms: O_7  and  C_8
REMARK    3  A    between atoms: C_8  and  C_9
REMARK    4  A    between atoms: C_9  and  N_10
REMARK    5  A    between atoms: N_13  and  C_16
REMARK    6  A    between atoms: C_16  and  C_17
REMARK    7  A    between atoms: N_19  and  C_20
REMARK    8  A    between atoms: C_21  and  C_29
REMARK                            x       y       z     vdW  Elec       q    Type
REMARK                         _______ _______ _______ _____ _____    ______ ____
ROOT
ATOM      1  C   UNL     1      -1.034   7.227   4.350  0.00  0.00    +0.019 C 
ENDROOT
BRANCH   1   5
ATOM      2  N   UNL     1       2.106   5.968   1.820  0.00  0.00    -0.303 NA
ATOM      3  C   UNL     1       0.789   5.339   1.648  0.00  0.00    +0.066 C 
ATOM      4  C   UNL     1      -0.042   5.546   2.917  0.00  0.00    -0.063 C 
ATOM      5  N   UNL     1      -0.179   6.985   3.181  0.00  0.00    +0.387 N 
ATOM      6  C   UNL     1       1.138   7.614   3.352  0.00  0.00    -0.063 C 
ATOM      7  C   UNL     1       1.968   7.407   2.083  0.00  0.00    +0.066 C 
ATOM      8  H   UNL     1      -0.664   7.445   2.307  0.00  0.00    -0.081 HD
BRANCH   2   9
ATOM      9  C   UNL     1       2.961   5.726   0.650  0.00  0.00    +0.125 C 
BRANCH   9  10
ATOM     10  C   UNL     1       4.424   5.958   1.032  0.00  0.00    +0.244 C 
BRANCH  10  11
ATOM     11  O   UNL     1       4.822   4.989   2.004  0.00  0.00    -0.491 OA
BRANCH  11  17
ATOM     12  C   UNL     1       6.556   4.145   3.398  0.00  0.00    +0.047 A 
ATOM     13  C   UNL     1       7.858   4.213   3.853  0.00  0.00    +0.023 A 
ATOM     14  C   UNL     1       8.711   5.189   3.367  0.00  0.00    +0.041 A 
ATOM     15  C   UNL     1       8.261   6.097   2.426  0.00  0.00    +0.023 A 
ATOM     16  C   UNL     1       6.960   6.032   1.968  0.00  0.00    +0.047 A 
ATOM     17  C   UNL     1       6.103   5.055   2.454  0.00  0.00    +0.121 A 
ATOM     18 CL   UNL     1      10.348   5.273   3.940  0.00  0.00    -0.084 Cl
ENDBRANCH  11  17
ENDBRANCH  10  11
ENDBRANCH   9  10
ENDBRANCH   2   9
ENDBRANCH   1   5
BRANCH   1  19
ATOM     19  C   UNL     1      -1.341   8.699   4.453  0.00  0.00    +0.201 C 
ATOM     20  O   UNL     1      -0.989   9.454   3.571  0.00  0.00    -0.278 OA
ATOM     21  N   UNL     1      -2.005   9.176   5.524  0.00  0.00    -0.281 N 
ATOM     22  H   UNL     1      -2.324   8.491   6.323  0.00  0.00    +0.155 HD
BRANCH  21  23
ATOM     23  C   UNL     1      -2.287  10.530   5.618  0.00  0.00    +0.084 A 
ATOM     24  C   UNL     1      -2.958  11.203   6.630  0.00  0.00    +0.068 A 
ATOM     25  C   UNL     1      -3.119  12.640   6.489  0.00  0.00    -0.023 A 
ATOM     26  C   UNL     1      -2.596  13.169   5.361  0.00  0.00    -0.004 A 
ATOM     27  S   UNL     1      -1.892  11.793   4.499  0.00  0.00    -0.077 S 
ATOM     28  C   UNL     1      -2.615  14.608   4.946  0.00  0.00    +0.043 C 
ATOM     29  C   UNL     1      -3.646  15.348   5.810  0.00  0.00    +0.005 C 
ATOM     30  C   UNL     1      -3.418  14.974   7.278  0.00  0.00    +0.005 C 
ATOM     31  C   UNL     1      -3.825  13.519   7.514  0.00  0.00    +0.037 C 
BRANCH  24  32
ATOM     32  C   UNL     1      -3.482  10.490   7.799  0.00  0.00    +0.244 C 
ATOM     33  O   UNL     1      -2.787  10.350   8.788  0.00  0.00    -0.270 OA
ATOM     34  N   UNL     1      -4.734   9.991   7.779  0.00  0.00    -0.325 N 
ATOM     35  H   UNL     1      -5.127   9.457   8.656  0.00  0.00    +0.145 HD
ATOM     36  H   UNL     1      -5.362  10.118   6.885  0.00  0.00    +0.145 HD
ENDBRANCH  24  32
ENDBRANCH  21  23
ENDBRANCH   1  19
TORSDOF 8
