REMARK  Name = ZINC37719857
REMARK  9 active torsions:
REMARK  status: ('A' for Active; 'I' for Inactive)
REMARK    1  A    between atoms: C_1  and  C_2
REMARK    2  A    between atoms: C_2  and  O_3
REMARK    3  A    between atoms: O_3  and  C_4
REMARK    4  A    between atoms: C_6  and  C_16
REMARK    5  A    between atoms: C_9  and  O_10
REMARK    6  A    between atoms: O_10  and  C_11
REMARK    7  A    between atoms: C_11  and  C_12
REMARK    8  A    between atoms: C_16  and  C_17
REMARK    9  A    between atoms: C_17  and  N_18
REMARK                            x       y       z     vdW  Elec       q    Type
REMARK                         _______ _______ _______ _____ _____    ______ ____
ROOT
ATOM      1  C   UNL     1       0.802  -1.825   1.306  0.00  0.00    +0.163 A 
ATOM      2  C   UNL     1       0.260  -2.673   0.352  0.00  0.00    +0.053 A 
ATOM      3  C   UNL     1       0.371  -4.043   0.502  0.00  0.00    -0.044 A 
ATOM      4  C   UNL     1       1.022  -4.571   1.602  0.00  0.00    +0.022 A 
ATOM      5  C   UNL     1       1.565  -3.730   2.557  0.00  0.00    +0.063 A 
ATOM      6  C   UNL     1       1.462  -2.356   2.409  0.00  0.00    +0.176 A 
ATOM      7 BR   UNL     1       2.453  -4.456   4.061  0.00  0.00    -0.046 Br
ENDROOT
BRANCH   1   8
ATOM      8  O   UNL     1       0.693  -0.477   1.160  0.00  0.00    -0.489 OA
BRANCH   8  10
ATOM      9  C   UNL     1      -0.019   1.526   0.010  0.00  0.00    +0.048 C 
ATOM     10  C   UNL     1       0.002  -0.004   0.002  0.00  0.00    +0.226 C 
ENDBRANCH   8  10
ENDBRANCH   1   8
BRANCH   6  11
ATOM     11  O   UNL     1       2.000  -1.528   3.345  0.00  0.00    -0.482 OA
BRANCH  11  12
ATOM     12  C   UNL     1       1.161  -1.151   4.438  0.00  0.00    +0.271 C 
BRANCH  12  13
ATOM     13  C   UNL     1       1.922  -0.238   5.365  0.00  0.00    +0.025 C 
ATOM     14  C   UNL     1       1.539   1.006   5.519  0.00  0.00    +0.023 C 
ATOM     15 BR   UNL     1       3.428  -0.889   6.305  0.00  0.00    -0.052 Br
ENDBRANCH  12  13
ENDBRANCH  11  12
ENDBRANCH   6  11
BRANCH   3  16
ATOM     16  C   UNL     1      -0.219  -4.963  -0.535  0.00  0.00    +0.016 C 
BRANCH  16  17
ATOM     17  C   UNL     1       0.827  -5.253  -1.614  0.00  0.00    -0.082 C 
BRANCH  17  18
ATOM     18  N   UNL     1       0.252  -6.149  -2.625  0.00  0.00    +0.378 N 
ATOM     19  H   UNL     1       0.941  -6.341  -3.336  0.00  0.00    -0.090 HD
ATOM     20  H   UNL     1      -0.029  -7.014  -2.187  0.00  0.00    -0.090 HD
ATOM     21  H   UNL     1      -0.553  -5.709  -3.046  0.00  0.00    -0.090 HD
ENDBRANCH  17  18
ENDBRANCH  16  17
ENDBRANCH   3  16
TORSDOF 8
