REMARK  Name = ZINC13387866
REMARK  7 active torsions:
REMARK  status: ('A' for Active; 'I' for Inactive)
REMARK    1  A    between atoms: C_1  and  C_2
REMARK    2  A    between atoms: C_2  and  C_4
REMARK    3  A    between atoms: C_2  and  O_35
REMARK    4  A    between atoms: C_7  and  N_10
REMARK    5  A    between atoms: C_11  and  C_13
REMARK    6  A    between atoms: C_19  and  C_28
REMARK    7  A    between atoms: C_22  and  C_24
REMARK                            x       y       z     vdW  Elec       q    Type
REMARK                         _______ _______ _______ _____ _____    ______ ____
ROOT
ATOM      1  C   UNL     1       2.768  -2.605   6.926  0.00  0.00    +0.091 C 
ATOM      2  C   UNL     1       2.207  -3.074   8.097  0.00  0.00    +0.104 C 
ATOM      3  N   UNL     1       3.193  -3.316   8.998  0.00  0.00    -0.269 N 
ATOM      4  N   UNL     1       4.427  -2.995   8.447  0.00  0.00    -0.226 N 
ATOM      5  C   UNL     1       4.219  -2.569   7.143  0.00  0.00    +0.126 C 
ATOM      6  N   UNL     1       5.179  -2.215   6.338  0.00  0.00    -0.364 N 
ATOM      7  C   UNL     1       6.569  -2.308   6.801  0.00  0.00    +0.113 C 
ATOM      8  C   UNL     1       6.650  -2.054   8.307  0.00  0.00    +0.062 C 
ATOM      9  C   UNL     1       5.761  -3.055   9.055  0.00  0.00    +0.201 C 
ATOM     10  H   UNL     1       3.055  -3.662   9.894  0.00  0.00    +0.170 HD
ATOM     11  H   UNL     1       4.978  -1.895   5.444  0.00  0.00    +0.161 HD
ENDROOT
BRANCH   7  12
ATOM     12  C   UNL     1       7.102  -3.685   6.500  0.00  0.00    -0.025 A 
ATOM     13  C   UNL     1       6.293  -4.792   6.674  0.00  0.00    +0.008 A 
ATOM     14  C   UNL     1       6.781  -6.056   6.398  0.00  0.00    +0.038 A 
ATOM     15  C   UNL     1       8.081  -6.212   5.948  0.00  0.00    +0.123 A 
ATOM     16  C   UNL     1       8.890  -5.102   5.775  0.00  0.00    +0.038 A 
ATOM     17  C   UNL     1       8.399  -3.840   6.046  0.00  0.00    +0.008 A 
ATOM     18  F   UNL     1       8.559  -7.446   5.678  0.00  0.00    -0.205 F 
ENDBRANCH   7  12
BRANCH   1  20
ATOM     19  N   UNL     1       2.743  -1.957   4.576  0.00  0.00    -0.281 N 
ATOM     20  C   UNL     1       2.054  -2.224   5.703  0.00  0.00    +0.253 C 
ATOM     21  O   UNL     1       0.839  -2.149   5.706  0.00  0.00    -0.270 OA
ATOM     22  H   UNL     1       3.696  -2.136   4.536  0.00  0.00    +0.155 HD
BRANCH  19  26
ATOM     23  C   UNL     1       0.784  -0.361   1.264  0.00  0.00    -0.019 A 
ATOM     24  C   UNL     1       2.088   0.008   1.538  0.00  0.00    +0.008 A 
ATOM     25  C   UNL     1       2.741  -0.519   2.636  0.00  0.00    +0.023 A 
ATOM     26  C   UNL     1       2.085  -1.421   3.464  0.00  0.00    +0.034 A 
ATOM     27  C   UNL     1       0.775  -1.789   3.187  0.00  0.00    +0.023 A 
ATOM     28  C   UNL     1       0.127  -1.254   2.091  0.00  0.00    +0.008 A 
BRANCH  23  30
ATOM     29  C   UNL     1      -0.426   1.623   0.399  0.00  0.00    +0.043 C 
ATOM     30  C   UNL     1       0.075   0.216   0.066  0.00  0.00    +0.141 C 
BRANCH  30  31
ATOM     31  O   UNL     1       0.981   0.282  -1.037  0.00  0.00    -0.387 OA
ATOM     32  H   UNL     1       1.760   0.831  -0.874  0.00  0.00    +0.210 HD
ENDBRANCH  30  31
ENDBRANCH  23  30
ENDBRANCH  19  26
ENDBRANCH   1  20
BRANCH   9  33
ATOM     33  C   UNL     1       5.676  -2.687  10.537  0.00  0.00    +0.410 C 
ATOM     34  F   UNL     1       4.829  -3.587  11.194  0.00  0.00    -0.169 F 
ATOM     35  F   UNL     1       6.952  -2.747  11.107  0.00  0.00    -0.169 F 
ATOM     36  F   UNL     1       5.168  -1.390  10.667  0.00  0.00    -0.169 F 
ENDBRANCH   9  33
TORSDOF 6
