REMARK  Name = ZINC15673709
REMARK  12 active torsions:
REMARK  status: ('A' for Active; 'I' for Inactive)
REMARK    1  A    between atoms: C_1  and  C_2
REMARK    2  A    between atoms: C_2  and  C_3
REMARK    3  A    between atoms: C_2  and  C_4
REMARK    4  A    between atoms: C_2  and  C_5
REMARK    5  A    between atoms: C_8  and  C_11
REMARK    6  A    between atoms: C_13  and  C_16
REMARK    7  A    between atoms: C_16  and  C_17
REMARK    8  A    between atoms: C_22  and  C_24
REMARK    9  A    between atoms: C_24  and  C_25
REMARK   10  A    between atoms: N_27  and  C_28
REMARK   11  A    between atoms: N_27  and  C_29
REMARK   12  A    between atoms: C_29  and  C_30
REMARK                            x       y       z     vdW  Elec       q    Type
REMARK                         _______ _______ _______ _____ _____    ______ ____
ROOT
ATOM      1  C   UNL     1      -6.651   5.233   1.272  0.00  0.00    -0.019 C 
ATOM      2  C   UNL     1      -6.271   6.703   1.085  0.00  0.00    -0.079 C 
ATOM      3  C   UNL     1      -8.356   7.157  -0.063  0.00  0.00    -0.082 C 
ATOM      4  C   UNL     1      -8.799   5.699   0.089  0.00  0.00    -0.015 C 
ATOM      5  C   UNL     1      -8.175   5.111   1.359  0.00  0.00    -0.002 C 
ATOM      6  N   UNL     1      -6.885   7.223  -0.151  0.00  0.00    +0.379 N 
ATOM      7  H   UNL     1      -6.569   6.660  -0.949  0.00  0.00    -0.086 HD
ATOM      8  H   UNL     1      -6.598   8.200  -0.287  0.00  0.00    -0.086 HD
ENDROOT
BRANCH   1   9
ATOM      9  C   UNL     1      -6.141   4.418   0.081  0.00  0.00    +0.061 C 
BRANCH   9  12
ATOM     10  C   UNL     1      -2.522   3.870   0.045  0.00  0.00    +0.167 A 
ATOM     11  C   UNL     1      -3.776   3.321   0.048  0.00  0.00    +0.076 A 
ATOM     12  C   UNL     1      -4.634   4.440   0.067  0.00  0.00    +0.084 A 
ATOM     13  N   UNL     1      -3.870   5.495   0.065  0.00  0.00    -0.083 NA
ATOM     14  O   UNL     1      -2.697   5.203   0.052  0.00  0.00    -0.354 OA
BRANCH  10  18
ATOM     15  C   UNL     1       1.177   1.782   0.000  0.00  0.00    -0.042 A 
ATOM     16  C   UNL     1      -0.013   1.076   0.008  0.00  0.00    +0.005 A 
ATOM     17  C   UNL     1      -1.217   1.748   0.017  0.00  0.00    +0.012 A 
ATOM     18  C   UNL     1      -1.234   3.143   0.030  0.00  0.00    +0.020 A 
ATOM     19  C   UNL     1      -0.031   3.850   0.022  0.00  0.00    +0.012 A 
ATOM     20  C   UNL     1       1.167   3.166   0.007  0.00  0.00    +0.005 A 
BRANCH  15  22
ATOM     21  C   UNL     1       2.567   0.170  -1.271  0.00  0.00    +0.015 C 
ATOM     22  C   UNL     1       2.489   1.042  -0.016  0.00  0.00    -0.013 C 
ATOM     23  C   UNL     1       3.642   2.047  -0.022  0.00  0.00    +0.015 C 
ATOM     24  C   UNL     1       2.591   0.156   1.228  0.00  0.00    +0.015 C 
ENDBRANCH  15  22
ENDBRANCH  10  18
ENDBRANCH   9  12
ENDBRANCH   1   9
BRANCH   5  25
ATOM     25  C   UNL     1      -8.564   3.636   1.484  0.00  0.00    +0.099 C 
BRANCH  25  26
ATOM     26  C   UNL     1     -10.052   3.525   1.693  0.00  0.00    +0.216 C 
ATOM     27  O   UNL     1     -10.735   4.527   1.737  0.00  0.00    -0.276 OA
ATOM     28  N   UNL     1     -10.625   2.313   1.831  0.00  0.00    -0.300 N 
ATOM     29  C   UNL     1      -9.800   1.103   1.778  0.00  0.00    +0.132 C 
BRANCH  28  30
ATOM     30  C   UNL     1     -12.072   2.205   2.034  0.00  0.00    +0.142 C 
BRANCH  30  31
ATOM     31  C   UNL     1     -12.759   2.098   0.697  0.00  0.00    -0.030 A 
ATOM     32  C   UNL     1     -13.176   3.242   0.041  0.00  0.00    +0.005 A 
ATOM     33  C   UNL     1     -13.803   3.144  -1.187  0.00  0.00    +0.000 A 
ATOM     34  C   UNL     1     -14.022   1.903  -1.754  0.00  0.00    +0.000 A 
ATOM     35  C   UNL     1     -13.611   0.759  -1.096  0.00  0.00    +0.000 A 
ATOM     36  C   UNL     1     -12.980   0.857   0.130  0.00  0.00    +0.005 A 
ENDBRANCH  30  31
ENDBRANCH  28  30
ENDBRANCH  25  26
ENDBRANCH   5  25
TORSDOF 8
