REMARK  Name = ZINC36954842
REMARK  8 active torsions:
REMARK  status: ('A' for Active; 'I' for Inactive)
REMARK    1  A    between atoms: C_1  and  C_2
REMARK    2  A    between atoms: C_6  and  C_7
REMARK    3  A    between atoms: C_7  and  N_8
REMARK    4  A    between atoms: N_8  and  C_9
REMARK    5  A    between atoms: C_9  and  C_11
REMARK    6  A    between atoms: C_9  and  C_12
REMARK    7  A    between atoms: C_15  and  S_18
REMARK    8  A    between atoms: S_18  and  N_21
REMARK                            x       y       z     vdW  Elec       q    Type
REMARK                         _______ _______ _______ _____ _____    ______ ____
ROOT
ATOM      1  C   UNL     1      -1.346   0.478   4.433  0.00  0.00    -0.044 C 
ATOM      2  C   UNL     1      -0.754   1.889   4.455  0.00  0.00    -0.009 C 
ENDROOT
BRANCH   1   3
ATOM      3  C   UNL     1      -2.757   0.517   4.961  0.00  0.00    -0.062 A 
ATOM      4  C   UNL     1      -3.792   0.921   4.139  0.00  0.00    +0.004 A 
ATOM      5  C   UNL     1      -5.086   0.956   4.623  0.00  0.00    +0.029 A 
ATOM      6  C   UNL     1      -5.345   0.587   5.930  0.00  0.00    +0.105 A 
ATOM      7  C   UNL     1      -4.310   0.182   6.752  0.00  0.00    +0.029 A 
ATOM      8  C   UNL     1      -3.017   0.143   6.266  0.00  0.00    +0.004 A 
BRANCH   6   9
ATOM      9  S   UNL     1      -6.995   0.633   6.548  0.00  0.00    +0.056 S 
ATOM     10  O   UNL     1      -6.896   0.762   7.959  0.00  0.00    -0.153 OA
ATOM     11  O   UNL     1      -7.703   1.567   5.745  0.00  0.00    -0.153 OA
BRANCH   9  12
ATOM     12  N   UNL     1      -7.669  -0.851   6.254  0.00  0.00    -0.204 NA
ATOM     13  H   UNL     1      -8.352  -1.199   6.848  0.00  0.00    +0.144 HD
ATOM     14  H   UNL     1      -7.382  -1.371   5.487  0.00  0.00    +0.144 HD
ENDBRANCH   9  12
ENDBRANCH   6   9
ENDBRANCH   1   3
BRANCH   1  15
ATOM     15  N   UNL     1      -1.353  -0.028   3.054  0.00  0.00    +0.386 N 
ATOM     16  H   UNL     1      -1.843   0.623   2.459  0.00  0.00    -0.085 HD
ATOM     17  H   UNL     1      -1.817  -0.923   3.027  0.00  0.00    -0.085 HD
BRANCH  15  18
ATOM     18  C   UNL     1       0.030  -0.179   2.581  0.00  0.00    -0.038 C 
BRANCH  18  24
ATOM     19  C   UNL     1      -0.018   1.503   0.010  0.00  0.00    +0.044 C 
ATOM     20  C   UNL     1       0.002  -0.004   0.002  0.00  0.00    -0.042 A 
ATOM     21  C   UNL     1       0.006  -0.699  -1.193  0.00  0.00    +0.011 A 
ATOM     22  C   UNL     1       0.024  -2.054  -1.165  0.00  0.00    +0.045 A 
ATOM     23  S   UNL     1       0.037  -2.387   0.589  0.00  0.00    -0.103 S 
ATOM     24  C   UNL     1       0.023  -0.698   1.166  0.00  0.00    -0.024 A 
ENDBRANCH  18  24
ENDBRANCH  15  18
ENDBRANCH   1  15
TORSDOF 6
