REMARK  Name = ZINC40757954
REMARK  5 active torsions:
REMARK  status: ('A' for Active; 'I' for Inactive)
REMARK    1  A    between atoms: C_1  and  N_2
REMARK    2  A    between atoms: N_2  and  C_3
REMARK    3  A    between atoms: C_10  and  N_27
REMARK    4  A    between atoms: C_11  and  N_15
REMARK    5  A    between atoms: C_19  and  C_22
REMARK                            x       y       z     vdW  Elec       q    Type
REMARK                         _______ _______ _______ _____ _____    ______ ____
ROOT
ATOM      1  C   UNL     1       1.268   0.385   0.636  0.00  0.00    +0.137 C 
ATOM      2  N   UNL     1       0.004   0.003   0.000  0.00  0.00    -0.288 N 
ATOM      3  C   UNL     1       0.010  -0.597  -1.254  0.00  0.00    +0.128 A 
ATOM      4  C   UNL     1       0.056   0.181  -2.413  0.00  0.00    +0.104 A 
ATOM      5  C   UNL     1       0.060  -0.472  -3.646  0.00  0.00    +0.150 A 
ATOM      6  N   UNL     1       0.021  -1.802  -3.671  0.00  0.00    -0.221 NA
ATOM      7  C   UNL     1      -0.022  -2.500  -2.553  0.00  0.00    +0.200 A 
ATOM      8  N   UNL     1      -0.023  -1.922  -1.369  0.00  0.00    -0.333 N 
ATOM      9  H   UNL     1      -0.052  -2.471  -0.570  0.00  0.00    +0.168 HD
ENDROOT
BRANCH   5  10
ATOM     10  N   UNL     1       0.105   0.255  -4.831  0.00  0.00    -0.282 N 
ATOM     11  C   UNL     1       0.109  -0.408  -6.054  0.00  0.00    +0.142 A 
ATOM     12  C   UNL     1       0.160   0.326  -7.237  0.00  0.00    +0.081 A 
ATOM     13  C   UNL     1       0.164  -0.346  -8.446  0.00  0.00    +0.037 A 
ATOM     14  C   UNL     1       0.117  -1.734  -8.433  0.00  0.00    +0.074 A 
ATOM     15  C   UNL     1       0.068  -2.398  -7.223  0.00  0.00    +0.125 A 
ATOM     16  N   UNL     1       0.070  -1.731  -6.084  0.00  0.00    -0.238 NA
ATOM     17 CL   UNL     1       0.217   2.061  -7.194  0.00  0.00    -0.080 Cl
ATOM     18  H   UNL     1       0.134   1.224  -4.804  0.00  0.00    +0.155 HD
BRANCH  14  19
ATOM     19  C   UNL     1       0.118  -2.509  -9.726  0.00  0.00    +0.419 C 
ATOM     20  F   UNL     1       1.437  -2.793 -10.097  0.00  0.00    -0.166 F 
ATOM     21  F   UNL     1      -0.586  -3.705  -9.553  0.00  0.00    -0.166 F 
ATOM     22  F   UNL     1      -0.494  -1.747 -10.726  0.00  0.00    -0.166 F 
ENDBRANCH  14  19
ENDBRANCH   5  10
BRANCH   2  23
ATOM     23  C   UNL     1      -1.208   0.243   0.654  0.00  0.00    +0.035 A 
ATOM     24  C   UNL     1      -2.398  -0.213   0.104  0.00  0.00    +0.023 A 
ATOM     25  C   UNL     1      -3.594   0.025   0.753  0.00  0.00    +0.002 A 
ATOM     26  C   UNL     1      -3.606   0.718   1.950  0.00  0.00    +0.000 A 
ATOM     27  C   UNL     1      -2.423   1.174   2.500  0.00  0.00    +0.002 A 
ATOM     28  C   UNL     1      -1.223   0.933   1.860  0.00  0.00    +0.023 A 
ENDBRANCH   2  23
BRANCH   4  29
ATOM     29  N   UNL     1       0.097   1.583  -2.339  0.00  0.00    -0.353 N 
ATOM     30  H   UNL     1       0.019   2.026  -1.479  0.00  0.00    +0.143 HD
ATOM     31  H   UNL     1       0.202   2.108  -3.147  0.00  0.00    +0.143 HD
ENDBRANCH   4  29
TORSDOF 4
