REMARK  Name = ZINC05949483
REMARK  15 active torsions:
REMARK  status: ('A' for Active; 'I' for Inactive)
REMARK    1  A    between atoms: C_1  and  C_2
REMARK    2  A    between atoms: C_2  and  O_3
REMARK    3  A    between atoms: O_3  and  C_4
REMARK    4  A    between atoms: C_9  and  C_10
REMARK    5  A    between atoms: C_10  and  N_11
REMARK    6  A    between atoms: N_11  and  C_12
REMARK    7  A    between atoms: N_11  and  C_21
REMARK    8  A    between atoms: C_14  and  C_19
REMARK    9  A    between atoms: C_14  and  C_20
REMARK   10  A    between atoms: C_15  and  C_17
REMARK   11  A    between atoms: C_15  and  C_18
REMARK   12  A    between atoms: C_21  and  N_23
REMARK   13  A    between atoms: N_23  and  C_24
REMARK   14  A    between atoms: C_26  and  C_31
REMARK   15  A    between atoms: C_29  and  C_30
REMARK                            x       y       z     vdW  Elec       q    Type
REMARK                         _______ _______ _______ _____ _____    ______ ____
ROOT
ATOM      1  N   UNL     1       0.665  -1.731  -5.226  0.00  0.00    -0.305 N 
ENDROOT
BRANCH   1   2
ATOM      2  C   UNL     1       0.639  -1.194  -3.859  0.00  0.00    +0.073 C 
ATOM      3  C   UNL     1       1.960  -1.523  -3.164  0.00  0.00    +0.009 C 
ATOM      4  C   UNL     1       1.954  -0.994  -1.732  0.00  0.00    -0.072 C 
ATOM      5  C   UNL     1      -0.533  -1.332  -1.646  0.00  0.00    -0.072 C 
ATOM      6  C   UNL     1      -0.497  -1.855  -3.080  0.00  0.00    +0.009 C 
ATOM      7  C   UNL     1      -1.124   0.083  -1.631  0.00  0.00    -0.010 C 
ATOM      8  C   UNL     1      -1.496  -2.238  -0.845  0.00  0.00    -0.010 C 
ATOM      9  C   UNL     1       2.144   0.527  -1.747  0.00  0.00    -0.010 C 
ATOM     10  C   UNL     1       3.175  -1.601  -1.006  0.00  0.00    -0.010 C 
ATOM     11  N   UNL     1       0.767  -1.387  -0.925  0.00  0.00    +0.386 N 
ATOM     12  H   UNL     1       0.709  -0.756  -0.117  0.00  0.00    -0.084 HD
ATOM     13  H   UNL     1       0.909  -2.349  -0.599  0.00  0.00    -0.084 HD
ENDBRANCH   1   2
BRANCH   1  14
ATOM     14  C   UNL     1       0.980  -3.024  -5.436  0.00  0.00    +0.138 C 
ATOM     15  S   UNL     1       1.151  -3.615  -7.034  0.00  0.00    -0.018 S 
BRANCH  14  16
ATOM     16  N   UNL     1       1.160  -3.853  -4.388  0.00  0.00    -0.297 N 
ATOM     17  H   UNL     1       1.036  -3.525  -3.484  0.00  0.00    +0.154 HD
BRANCH  16  18
ATOM     18  C   UNL     1       1.525  -5.186  -4.605  0.00  0.00    +0.036 A 
ATOM     19  C   UNL     1       0.910  -5.921  -5.610  0.00  0.00    +0.027 A 
ATOM     20  C   UNL     1       1.268  -7.239  -5.818  0.00  0.00    -0.049 A 
ATOM     21  C   UNL     1       2.243  -7.824  -5.030  0.00  0.00    +0.004 A 
ATOM     22  C   UNL     1       2.861  -7.093  -4.033  0.00  0.00    +0.005 A 
ATOM     23  C   UNL     1       2.507  -5.775  -3.820  0.00  0.00    -0.029 A 
ATOM     24  C   UNL     1       3.181  -4.979  -2.732  0.00  0.00    +0.045 C 
ATOM     25  C   UNL     1       0.597  -8.039  -6.904  0.00  0.00    +0.044 C 
ENDBRANCH  16  18
ENDBRANCH  14  16
ENDBRANCH   1  14
BRANCH   1  26
ATOM     26  C   UNL     1       0.348  -0.860  -6.361  0.00  0.00    +0.145 C 
BRANCH  26  32
ATOM     27  C   UNL     1      -1.769  -0.066  -7.445  0.00  0.00    +0.125 A 
ATOM     28  C   UNL     1      -3.091  -0.260  -7.820  0.00  0.00    +0.046 A 
ATOM     29  C   UNL     1      -3.729  -1.444  -7.508  0.00  0.00    +0.004 A 
ATOM     30  C   UNL     1      -3.051  -2.438  -6.826  0.00  0.00    +0.001 A 
ATOM     31  C   UNL     1      -1.733  -2.249  -6.455  0.00  0.00    +0.009 A 
ATOM     32  C   UNL     1      -1.089  -1.066  -6.765  0.00  0.00    +0.011 A 
BRANCH  27  33
ATOM     33  O   UNL     1      -1.140   1.101  -7.746  0.00  0.00    -0.492 OA
BRANCH  33  35
ATOM     34  C   UNL     1      -0.933   3.197  -8.931  0.00  0.00    +0.048 C 
ATOM     35  C   UNL     1      -1.851   2.027  -8.570  0.00  0.00    +0.225 C 
ENDBRANCH  33  35
ENDBRANCH  27  33
ENDBRANCH  26  32
ENDBRANCH   1  26
TORSDOF 8
