REMARK  Name = ZINC38665181
REMARK  10 active torsions:
REMARK  status: ('A' for Active; 'I' for Inactive)
REMARK    1  A    between atoms: C_6  and  N_10
REMARK    2  A    between atoms: N_11  and  C_12
REMARK    3  A    between atoms: C_14  and  O_32
REMARK    4  A    between atoms: C_16  and  O_31
REMARK    5  A    between atoms: C_18  and  C_21
REMARK    6  A    between atoms: C_21  and  O_22
REMARK    7  A    between atoms: O_22  and  P_23
REMARK    8  A    between atoms: P_23  and  C_25
REMARK    9  A    between atoms: C_25  and  P_26
REMARK   10  A    between atoms: P_26  and  O_29
REMARK                            x       y       z     vdW  Elec       q    Type
REMARK                         _______ _______ _______ _____ _____    ______ ____
ROOT
ATOM      1  C   UNL     1      -1.159  -0.898   0.008  0.00  0.00    +0.240 C 
ATOM      2  C   UNL     1      -1.967  -0.721   1.318  0.00  0.00    +0.193 C 
ATOM      3  C   UNL     1      -3.374  -1.195   0.862  0.00  0.00    +0.178 C 
ATOM      4  C   UNL     1      -3.420  -0.722  -0.607  0.00  0.00    +0.178 C 
ATOM      5  O   UNL     1      -2.067  -0.543  -1.047  0.00  0.00    -0.348 OA
ENDROOT
BRANCH   1  15
ATOM      6  C   UNL     1      -0.018   1.466   0.010  0.00  0.00    +0.253 C 
ATOM      7  N   UNL     1       1.382   1.904  -0.001  0.00  0.00    -0.256 NA
ATOM      8  C   UNL     1       2.143   0.864  -0.014  0.00  0.00    +0.164 C 
ATOM      9  C   UNL     1       1.316  -0.370  -0.013  0.00  0.00    +0.159 C 
ATOM     10  N   UNL     1       1.935  -1.532  -0.024  0.00  0.00    -0.198 NA
ATOM     11  C   UNL     1       3.266  -1.617  -0.037  0.00  0.00    +0.226 C 
ATOM     12  N   UNL     1       4.083  -0.579  -0.039  0.00  0.00    -0.141 NA
ATOM     13  C   UNL     1       3.624   0.678  -0.030  0.00  0.00    +0.291 C 
ATOM     14  O   UNL     1       4.383   1.631  -0.032  0.00  0.00    -0.266 OA
ATOM     15  N   UNL     1       0.002  -0.004   0.002  0.00  0.00    -0.266 N 
BRANCH  11  16
ATOM     16  N   UNL     1       3.825  -2.868  -0.048  0.00  0.00    -0.234 NA
ATOM     17  H   UNL     1       4.790  -2.969  -0.058  0.00  0.00    +0.173 HD
ENDBRANCH  11  16
ENDBRANCH   1  15
BRANCH   3  18
ATOM     18  O   UNL     1      -3.483  -2.617   0.946  0.00  0.00    -0.386 OA
ATOM     19  H   UNL     1      -3.374  -2.968   1.840  0.00  0.00    +0.210 HD
ENDBRANCH   3  18
BRANCH   2  20
ATOM     20  O   UNL     1      -1.453  -1.556   2.357  0.00  0.00    -0.385 OA
ATOM     21  H   UNL     1      -1.929  -1.478   3.196  0.00  0.00    +0.210 HD
ENDBRANCH   2  20
BRANCH   4  22
ATOM     22  C   UNL     1      -4.111  -1.778  -1.471  0.00  0.00    +0.204 C 
BRANCH  22  23
ATOM     23  O   UNL     1      -4.253  -1.283  -2.804  0.00  0.00    -0.303 OA
BRANCH  23  24
ATOM     24  P   UNL     1      -4.941  -2.134  -3.986  0.00  0.00    +0.372 P 
ATOM     25  O   UNL     1      -6.355  -2.574  -3.549  0.00  0.00    -0.256 OA
ATOM     26  O   UNL     1      -4.083  -3.382  -4.288  0.00  0.00    -0.140 OA
BRANCH  24  27
ATOM     27  C   UNL     1      -5.062  -1.103  -5.485  0.00  0.00    +0.258 C 
BRANCH  27  28
ATOM     28  P   UNL     1      -5.840  -2.066  -6.823  0.00  0.00    +0.369 P 
ATOM     29  O   UNL     1      -4.982  -3.314  -7.125  0.00  0.00    -0.256 OA
ATOM     30  O   UNL     1      -7.254  -2.506  -6.386  0.00  0.00    -0.140 OA
BRANCH  28  31
ATOM     31  O   UNL     1      -5.947  -1.155  -8.147  0.00  0.00    -0.322 OA
ATOM     32  H   UNL     1      -6.352  -1.604  -8.902  0.00  0.00    +0.220 HD
ENDBRANCH  28  31
ENDBRANCH  27  28
ENDBRANCH  24  27
ENDBRANCH  23  24
ENDBRANCH  22  23
ENDBRANCH   4  22
TORSDOF 10
