REMARK  Name = ZINC04156741
REMARK  12 active torsions:
REMARK  status: ('A' for Active; 'I' for Inactive)
REMARK    1  A    between atoms: C_1  and  O_2
REMARK    2  A    between atoms: O_2  and  C_3
REMARK    3  A    between atoms: C_5  and  C_21
REMARK    4  A    between atoms: C_8  and  O_9
REMARK    5  A    between atoms: O_9  and  C_10
REMARK    6  A    between atoms: C_22  and  C_23
REMARK    7  A    between atoms: C_22  and  C_25
REMARK    8  A    between atoms: C_26  and  C_34
REMARK    9  A    between atoms: C_27  and  N_33
REMARK   10  A    between atoms: N_28  and  C_30
REMARK   11  A    between atoms: C_30  and  C_31
REMARK   12  A    between atoms: C_31  and  O_32
REMARK                            x       y       z     vdW  Elec       q    Type
REMARK                         _______ _______ _______ _____ _____    ______ ____
ROOT
ATOM      1  C   UNL     1       4.805   1.313   0.252  0.00  0.00    +0.163 A 
ATOM      2  C   UNL     1       3.631   2.035   0.176  0.00  0.00    +0.057 A 
ATOM      3  C   UNL     1       2.405   1.364   0.084  0.00  0.00    -0.020 A 
ATOM      4  C   UNL     1       2.377  -0.037   0.074  0.00  0.00    +0.012 A 
ATOM      5  C   UNL     1       3.554  -0.749   0.145  0.00  0.00    +0.050 A 
ATOM      6  C   UNL     1       4.769  -0.082   0.236  0.00  0.00    +0.170 A 
ENDROOT
BRANCH   1   8
ATOM      7  C   UNL     1       5.959   3.389   0.353  0.00  0.00    +0.277 C 
ATOM      8  O   UNL     1       5.997   1.961   0.342  0.00  0.00    -0.491 OA
ENDBRANCH   1   8
BRANCH   3   9
ATOM      9  C   UNL     1       1.153   2.125   0.003  0.00  0.00    +0.029 C 
ATOM     10  C   UNL     1       0.084   1.609  -0.666  0.00  0.00    +0.081 C 
BRANCH  10  11
ATOM     11  C   UNL     1      -1.220   2.307  -0.627  0.00  0.00    +0.122 A 
ATOM     12  C   UNL     1      -2.454   1.887  -1.301  0.00  0.00    +0.119 A 
ATOM     13  C   UNL     1      -3.416   2.840  -0.981  0.00  0.00    +0.133 A 
ATOM     14  N   UNL     1      -2.829   3.763  -0.194  0.00  0.00    -0.247 N 
ATOM     15  N   UNL     1      -1.489   3.423   0.012  0.00  0.00    -0.167 NA
BRANCH  13  16
ATOM     16  N   UNL     1      -4.733   2.842  -1.399  0.00  0.00    -0.342 N 
ATOM     17  H   UNL     1      -5.328   3.558  -1.124  0.00  0.00    +0.144 HD
ATOM     18  H   UNL     1      -5.063   2.129  -1.968  0.00  0.00    +0.144 HD
ENDBRANCH  13  16
BRANCH  12  19
ATOM     19  C   UNL     1      -2.634   0.727  -2.122  0.00  0.00    +0.105 C 
ATOM     20  N   UNL     1      -2.776  -0.194  -2.772  0.00  0.00    -0.191 NA
ENDBRANCH  12  19
BRANCH  14  21
ATOM     21  C   UNL     1      -3.494   4.944   0.363  0.00  0.00    +0.173 C 
BRANCH  21  22
ATOM     22  C   UNL     1      -3.354   6.115  -0.612  0.00  0.00    +0.179 C 
BRANCH  22  23
ATOM     23  O   UNL     1      -4.003   7.266  -0.069  0.00  0.00    -0.393 OA
ATOM     24  H   UNL     1      -3.954   8.049  -0.635  0.00  0.00    +0.209 HD
ENDBRANCH  22  23
ENDBRANCH  21  22
ENDBRANCH  14  21
ENDBRANCH  10  11
BRANCH  10  25
ATOM     25  C   UNL     1       0.224   0.395  -1.412  0.00  0.00    +0.101 C 
ATOM     26  N   UNL     1       0.336  -0.569  -2.004  0.00  0.00    -0.191 NA
ENDBRANCH  10  25
ENDBRANCH   3   9
BRANCH   6  27
ATOM     27  O   UNL     1       5.926  -0.789   0.310  0.00  0.00    -0.446 OA
BRANCH  27  28
ATOM     28  C   UNL     1       5.846  -2.147   0.292  0.00  0.00    +0.204 A 
ATOM     29  C   UNL     1       5.727  -2.852   1.482  0.00  0.00    +0.206 A 
ATOM     30  C   UNL     1       5.640  -4.235   1.461  0.00  0.00    +0.200 A 
ATOM     31  C   UNL     1       5.684  -4.914   0.254  0.00  0.00    +0.199 A 
ATOM     32  C   UNL     1       5.809  -4.211  -0.934  0.00  0.00    +0.200 A 
ATOM     33  C   UNL     1       5.890  -2.829  -0.917  0.00  0.00    +0.206 A 
ATOM     34  F   UNL     1       6.011  -2.144  -2.075  0.00  0.00    -0.198 F 
ATOM     35  F   UNL     1       5.851  -4.875  -2.110  0.00  0.00    -0.199 F 
ATOM     36  F   UNL     1       5.604  -6.263   0.235  0.00  0.00    -0.199 F 
ATOM     37  F   UNL     1       5.519  -4.921   2.618  0.00  0.00    -0.199 F 
ATOM     38  F   UNL     1       5.691  -2.191   2.659  0.00  0.00    -0.198 F 
ENDBRANCH  27  28
ENDBRANCH   6  27
TORSDOF 11
