REMARK  Name = ZINC04884100
REMARK  9 active torsions:
REMARK  status: ('A' for Active; 'I' for Inactive)
REMARK    1  A    between atoms: C_1  and  C_2
REMARK    2  A    between atoms: C_2  and  O_3
REMARK    3  A    between atoms: O_3  and  C_4
REMARK    4  A    between atoms: C_4  and  C_6
REMARK    5  A    between atoms: C_6  and  C_26
REMARK    6  A    between atoms: C_11  and  C_13
REMARK    7  A    between atoms: C_18  and  C_19
REMARK    8  A    between atoms: N_22  and  C_25
REMARK    9  A    between atoms: C_26  and  O_27
REMARK                            x       y       z     vdW  Elec       q    Type
REMARK                         _______ _______ _______ _____ _____    ______ ____
ROOT
ATOM      1  C   UNL     1      -1.329   1.940   0.019  0.00  0.00    +0.067 C 
ATOM      2  C   UNL     1      -2.413   1.113  -0.704  0.00  0.00    +0.088 C 
ATOM      3  C   UNL     1      -3.276   2.160  -1.458  0.00  0.00    +0.077 C 
ATOM      4  C   UNL     1      -2.631   3.521  -1.121  0.00  0.00    -0.026 C 
ATOM      5  C   UNL     1      -3.024   1.837  -2.914  0.00  0.00    +0.224 C 
ATOM      6  O   UNL     1      -3.512   2.423  -3.856  0.00  0.00    -0.275 OA
ATOM      7  N   UNL     1      -2.178   0.804  -2.999  0.00  0.00    -0.245 N 
ATOM      8  C   UNL     1      -1.772   0.319  -1.820  0.00  0.00    +0.225 C 
ATOM      9  O   UNL     1      -1.010  -0.611  -1.669  0.00  0.00    -0.275 OA
ATOM     10  C   UNL     1      -1.734   0.248  -4.279  0.00  0.00    +0.141 C 
ATOM     11  N   UNL     1      -1.256   3.177  -0.759  0.00  0.00    +0.397 N 
ATOM     12  H   UNL     1      -0.693   3.031  -1.605  0.00  0.00    -0.083 HD
ATOM     13  H   UNL     1      -0.840   3.926  -0.195  0.00  0.00    -0.083 HD
ENDROOT
BRANCH   4  14
ATOM     14  C   UNL     1      -2.674   4.433  -2.319  0.00  0.00    -0.058 A 
ATOM     15  C   UNL     1      -1.583   4.516  -3.164  0.00  0.00    +0.002 A 
ATOM     16  C   UNL     1      -1.623   5.349  -4.266  0.00  0.00    +0.000 A 
ATOM     17  C   UNL     1      -2.751   6.108  -4.518  0.00  0.00    +0.000 A 
ATOM     18  C   UNL     1      -3.840   6.029  -3.670  0.00  0.00    +0.003 A 
ATOM     19  C   UNL     1      -3.801   5.192  -2.571  0.00  0.00    -0.049 A 
ATOM     20  C   UNL     1      -4.989   5.107  -1.647  0.00  0.00    +0.044 C 
ENDBRANCH   4  14
BRANCH   1  21
ATOM     21  C   UNL     1      -0.014   1.204   0.009  0.00  0.00    +0.299 C 
ATOM     22  O   UNL     1       0.286   0.490   0.936  0.00  0.00    -0.252 OA
BRANCH  21  23
ATOM     23  O   UNL     1       0.821   1.338  -1.033  0.00  0.00    -0.466 OA
BRANCH  23  25
ATOM     24  C   UNL     1       2.883   0.871  -2.243  0.00  0.00    +0.048 C 
ATOM     25  C   UNL     1       2.068   0.595  -0.978  0.00  0.00    +0.228 C 
ENDBRANCH  23  25
ENDBRANCH  21  23
ENDBRANCH   1  21
BRANCH   1  26
ATOM     26  C   UNL     1      -1.759   2.242   1.456  0.00  0.00    +0.155 C 
BRANCH  26  27
ATOM     27  O   UNL     1      -0.818   3.133   2.057  0.00  0.00    -0.396 OA
ATOM     28  H   UNL     1      -1.027   3.369   2.971  0.00  0.00    +0.209 HD
ENDBRANCH  26  27
ENDBRANCH   1  26
TORSDOF 6
