REMARK  Name = ZINC38705024
REMARK  15 active torsions:
REMARK  status: ('A' for Active; 'I' for Inactive)
REMARK    1  A    between atoms: C_1  and  C_2
REMARK    2  A    between atoms: C_4  and  C_41
REMARK    3  A    between atoms: C_5  and  C_9
REMARK    4  A    between atoms: C_6  and  O_8
REMARK    5  A    between atoms: N_17  and  C_29
REMARK    6  A    between atoms: C_18  and  C_20
REMARK    7  A    between atoms: C_23  and  O_28
REMARK    8  A    between atoms: C_24  and  O_26
REMARK    9  A    between atoms: O_26  and  C_27
REMARK   10  A    between atoms: C_29  and  C_30
REMARK   11  A    between atoms: C_30  and  C_31
REMARK   12  A    between atoms: C_34  and  O_39
REMARK   13  A    between atoms: C_35  and  O_37
REMARK   14  A    between atoms: O_37  and  C_38
REMARK   15  A    between atoms: O_39  and  C_40
REMARK                            x       y       z     vdW  Elec       q    Type
REMARK                         _______ _______ _______ _____ _____    ______ ____
ROOT
ATOM      1  C   UNL     1       0.105  -4.354  -0.125  0.00  0.00    +0.102 A 
ATOM      2  C   UNL     1       0.199  -5.155   1.019  0.00  0.00    +0.035 A 
ATOM      3  C   UNL     1       0.168  -6.460   0.568  0.00  0.00    +0.126 A 
ATOM      4  N   UNL     1       0.060  -6.390  -0.792  0.00  0.00    -0.272 N 
ATOM      5  H   UNL     1       0.015  -7.154  -1.388  0.00  0.00    +0.189 HD
ATOM      6  N   UNL     1       0.020  -5.160  -1.165  0.00  0.00    -0.173 NA
ATOM      7  C   UNL     1       0.263  -7.356   1.726  0.00  0.00    +0.265 C 
ATOM      8  O   UNL     1       0.263  -8.571   1.666  0.00  0.00    -0.268 OA
ATOM      9  N   UNL     1       0.351  -6.644   2.863  0.00  0.00    -0.285 N 
ATOM     10  C   UNL     1       0.319  -5.217   2.517  0.00  0.00    +0.141 C 
ENDROOT
BRANCH   1  15
ATOM     11  C   UNL     1       0.074   1.407  -0.267  0.00  0.00    +0.044 C 
ATOM     12  C   UNL     1       0.080  -0.100  -0.228  0.00  0.00    -0.047 A 
ATOM     13  C   UNL     1       0.939  -0.807  -1.051  0.00  0.00    +0.007 A 
ATOM     14  C   UNL     1       0.951  -2.187  -1.021  0.00  0.00    -0.037 A 
ATOM     15  C   UNL     1       0.096  -2.870  -0.160  0.00  0.00    +0.047 A 
ATOM     16  C   UNL     1      -0.770  -2.154   0.670  0.00  0.00    +0.127 A 
ATOM     17  C   UNL     1      -0.768  -0.768   0.634  0.00  0.00    +0.049 A 
ATOM     18  C   UNL     1       1.888  -2.952  -1.919  0.00  0.00    +0.044 C 
BRANCH  16  19
ATOM     19  O   UNL     1      -1.607  -2.812   1.512  0.00  0.00    -0.506 OA
ATOM     20  H   UNL     1      -1.264  -2.912   2.411  0.00  0.00    +0.292 HD
ENDBRANCH  16  19
ENDBRANCH   1  15
BRANCH  10  21
ATOM     21  C   UNL     1       1.591  -4.545   2.964  0.00  0.00    -0.019 A 
ATOM     22  C   UNL     1       2.812  -5.138   2.705  0.00  0.00    +0.009 A 
ATOM     23  C   UNL     1       3.983  -4.526   3.113  0.00  0.00    +0.049 A 
ATOM     24  C   UNL     1       3.933  -3.314   3.783  0.00  0.00    +0.158 A 
ATOM     25  C   UNL     1       2.704  -2.716   4.043  0.00  0.00    +0.162 A 
ATOM     26  C   UNL     1       1.535  -3.333   3.627  0.00  0.00    +0.055 A 
BRANCH  25  27
ATOM     27  O   UNL     1       2.650  -1.527   4.700  0.00  0.00    -0.491 OA
ATOM     28  C   UNL     1       1.354  -0.972   4.933  0.00  0.00    +0.277 C 
ENDBRANCH  25  27
BRANCH  24  29
ATOM     29  O   UNL     1       5.083  -2.710   4.186  0.00  0.00    -0.503 OA
ATOM     30  H   UNL     1       5.461  -2.107   3.530  0.00  0.00    +0.292 HD
ENDBRANCH  24  29
ENDBRANCH  10  21
BRANCH   9  31
ATOM     31  C   UNL     1       0.459  -7.196   4.216  0.00  0.00    +0.114 C 
BRANCH  31  32
ATOM     32  C   UNL     1       1.935  -7.383   4.574  0.00  0.00    +0.054 C 
BRANCH  32  33
ATOM     33  C   UNL     1       2.046  -7.952   5.965  0.00  0.00    -0.042 A 
ATOM     34  C   UNL     1       2.122  -7.102   7.053  0.00  0.00    +0.007 A 
ATOM     35  C   UNL     1       2.225  -7.618   8.332  0.00  0.00    +0.049 A 
ATOM     36  C   UNL     1       2.250  -8.990   8.524  0.00  0.00    +0.161 A 
ATOM     37  C   UNL     1       2.172  -9.845   7.429  0.00  0.00    +0.162 A 
ATOM     38  C   UNL     1       2.065  -9.321   6.151  0.00  0.00    +0.053 A 
BRANCH  37  39
ATOM     39  O   UNL     1       2.196 -11.193   7.614  0.00  0.00    -0.491 OA
ATOM     40  C   UNL     1       2.113 -12.009   6.444  0.00  0.00    +0.277 C 
ENDBRANCH  37  39
BRANCH  36  41
ATOM     41  O   UNL     1       2.351  -9.500   9.781  0.00  0.00    -0.491 OA
ATOM     42  C   UNL     1       2.427  -8.562  10.857  0.00  0.00    +0.277 C 
ENDBRANCH  36  41
ENDBRANCH  32  33
ENDBRANCH  31  32
ENDBRANCH   9  31
TORSDOF 10
