REMARK  Name = ZINC00091451
REMARK  4 active torsions:
REMARK  status: ('A' for Active; 'I' for Inactive)
REMARK    1  A    between atoms: C_5  and  C_7
REMARK    2  A    between atoms: C_10  and  C_21
REMARK    3  A    between atoms: C_16  and  N_20
REMARK    4  A    between atoms: C_17  and  C_18
REMARK                            x       y       z     vdW  Elec       q    Type
REMARK                         _______ _______ _______ _____ _____    ______ ____
ROOT
ATOM      1  C   UNL     1       1.228  -2.186  -0.022  0.00  0.00    +0.104 C 
ATOM      2  C   UNL     1       0.501  -2.697  -1.239  0.00  0.00    +0.056 A 
ATOM      3  C   UNL     1       0.896  -2.674  -2.580  0.00  0.00    +0.118 A 
ATOM      4  N   UNL     1      -0.063  -3.233  -3.295  0.00  0.00    -0.169 NA
ATOM      5  N   UNL     1      -1.092  -3.626  -2.425  0.00  0.00    -0.246 N 
ATOM      6  H   UNL     1      -1.919  -4.062  -2.680  0.00  0.00    +0.192 HD
ATOM      7  C   UNL     1      -0.727  -3.289  -1.170  0.00  0.00    +0.223 A 
ATOM      8  O   UNL     1      -1.389  -3.468   0.001  0.00  0.00    -0.423 OA
ATOM      9  C   UNL     1      -0.695  -3.296   1.144  0.00  0.00    +0.200 C 
ATOM     10  C   UNL     1       0.524  -2.712   1.204  0.00  0.00    +0.098 C 
ENDROOT
BRANCH   1  15
ATOM     11  C   UNL     1      -0.017   1.378   0.010  0.00  0.00    +0.000 A 
ATOM     12  C   UNL     1       1.171   2.087   0.002  0.00  0.00    +0.003 A 
ATOM     13  C   UNL     1       2.377   1.414  -0.013  0.00  0.00    +0.038 A 
ATOM     14  C   UNL     1       2.397   0.029  -0.021  0.00  0.00    +0.127 A 
ATOM     15  C   UNL     1       1.208  -0.679  -0.013  0.00  0.00    +0.001 A 
ATOM     16  C   UNL     1       0.002  -0.004   0.002  0.00  0.00    +0.007 A 
ATOM     17  F   UNL     1       3.577  -0.630  -0.036  0.00  0.00    -0.205 F 
ENDBRANCH   1  15
BRANCH   3  18
ATOM     18  C   UNL     1       2.167  -2.120  -3.106  0.00  0.00    +0.091 A 
ATOM     19  C   UNL     1       2.678  -2.591  -4.314  0.00  0.00    +0.030 A 
ATOM     20  C   UNL     1       3.865  -2.064  -4.793  0.00  0.00    +0.004 A 
ATOM     21  C   UNL     1       4.503  -1.083  -4.046  0.00  0.00    +0.020 A 
ATOM     22  C   UNL     1       3.940  -0.663  -2.856  0.00  0.00    +0.111 A 
ATOM     23  N   UNL     1       2.805  -1.177  -2.426  0.00  0.00    -0.253 NA
ENDBRANCH   3  18
BRANCH   9  24
ATOM     24  N   UNL     1      -1.257  -3.738   2.315  0.00  0.00    -0.328 N 
ATOM     25  H   UNL     1      -2.130  -4.161   2.304  0.00  0.00    +0.145 HD
ATOM     26  H   UNL     1      -0.782  -3.628   3.154  0.00  0.00    +0.145 HD
ENDBRANCH   9  24
BRANCH  10  27
ATOM     27  C   UNL     1       1.169  -2.588   2.477  0.00  0.00    +0.101 C 
ATOM     28  N   UNL     1       1.681  -2.489   3.486  0.00  0.00    -0.191 NA
ENDBRANCH  10  27
TORSDOF 4
