REMARK  Name = ZINC36170436
REMARK  7 active torsions:
REMARK  status: ('A' for Active; 'I' for Inactive)
REMARK    1  A    between atoms: C_1  and  C_2
REMARK    2  A    between atoms: C_2  and  C_3
REMARK    3  A    between atoms: C_2  and  N_4
REMARK    4  A    between atoms: N_7  and  C_10
REMARK    5  A    between atoms: C_10  and  C_11
REMARK    6  A    between atoms: N_13  and  C_14
REMARK    7  A    between atoms: C_17  and  N_21
REMARK                            x       y       z     vdW  Elec       q    Type
REMARK                         _______ _______ _______ _____ _____    ______ ____
ROOT
ATOM      1  C   UNL     1      -4.996  -3.930  -1.177  0.00  0.00    +0.201 C 
ATOM      2  O   UNL     1      -3.955  -4.535  -1.318  0.00  0.00    -0.278 OA
ATOM      3  N   UNL     1      -6.167  -4.598  -1.151  0.00  0.00    -0.286 N 
ATOM      4  H   UNL     1      -6.991  -4.125  -0.958  0.00  0.00    +0.155 HD
ENDROOT
BRANCH   3   5
ATOM      5  C   UNL     1      -6.192  -5.977  -1.403  0.00  0.00    +0.048 A 
ATOM      6  C   UNL     1      -5.185  -6.563  -2.159  0.00  0.00    +0.026 A 
ATOM      7  C   UNL     1      -5.210  -7.921  -2.407  0.00  0.00    +0.024 A 
ATOM      8  C   UNL     1      -6.242  -8.701  -1.902  0.00  0.00    +0.026 A 
ATOM      9  C   UNL     1      -7.250  -8.115  -1.147  0.00  0.00    +0.039 A 
ATOM     10  C   UNL     1      -7.222  -6.757  -0.893  0.00  0.00    +0.041 A 
ATOM     11 BR   UNL     1      -8.589  -5.960   0.142  0.00  0.00    -0.048 Br
BRANCH   8  12
ATOM     12  N   UNL     1      -6.268 -10.076  -2.155  0.00  0.00    -0.358 N 
ATOM     13  H   UNL     1      -5.564 -10.486  -2.683  0.00  0.00    +0.142 HD
ATOM     14  H   UNL     1      -6.989 -10.621  -1.802  0.00  0.00    +0.142 HD
ENDBRANCH   8  12
ENDBRANCH   3   5
BRANCH   1  15
ATOM     15  C   UNL     1      -4.982  -2.430  -1.029  0.00  0.00    +0.019 C 
BRANCH  15  19
ATOM     16  N   UNL     1      -1.381  -0.500  -0.011  0.00  0.00    -0.303 NA
ATOM     17  C   UNL     1      -2.148   0.028  -1.148  0.00  0.00    +0.066 C 
ATOM     18  C   UNL     1      -3.590  -0.477  -1.066  0.00  0.00    -0.063 C 
ATOM     19  N   UNL     1      -3.596  -1.946  -1.090  0.00  0.00    +0.387 N 
ATOM     20  C   UNL     1      -2.847  -2.459   0.065  0.00  0.00    -0.063 C 
ATOM     21  C   UNL     1      -1.399  -1.970  -0.008  0.00  0.00    +0.066 C 
ATOM     22  H   UNL     1      -3.164  -2.270  -1.942  0.00  0.00    -0.081 HD
BRANCH  16  24
ATOM     23  C   UNL     1      -0.025   1.539  -0.027  0.00  0.00    +0.024 C 
ATOM     24  C   UNL     1      -0.003   0.009  -0.023  0.00  0.00    +0.050 C 
ATOM     25  C   UNL     1       0.735  -0.487   1.221  0.00  0.00    +0.024 C 
ENDBRANCH  16  24
ENDBRANCH  15  19
ENDBRANCH   1  15
TORSDOF 5
