REMARK  Name = ZINC09441998
REMARK  6 active torsions:
REMARK  status: ('A' for Active; 'I' for Inactive)
REMARK    1  A    between atoms: C_4  and  C_7
REMARK    2  A    between atoms: C_7  and  C_9
REMARK    3  A    between atoms: C_7  and  N_64
REMARK    4  A    between atoms: N_11  and  C_12
REMARK    5  A    between atoms: C_16  and  S_18
REMARK    6  A    between atoms: S_18  and  N_21
REMARK                            x       y       z     vdW  Elec       q    Type
REMARK                         _______ _______ _______ _____ _____    ______ ____
ROOT
ATOM      1  C   UNL     1       0.989  -0.670  -0.284  0.00  0.00    +0.208 C 
ATOM      2  O   UNL     1       1.952   0.067  -0.319  0.00  0.00    -0.277 OA
ATOM      3  N   UNL     1      -0.255  -0.153  -0.288  0.00  0.00    -0.287 N 
ATOM      4  H   UNL     1      -1.023  -0.736  -0.184  0.00  0.00    +0.155 HD
ENDROOT
BRANCH   3   5
ATOM      5  C   UNL     1      -0.440   1.226  -0.443  0.00  0.00    +0.035 A 
ATOM      6  C   UNL     1      -1.535   1.706  -1.149  0.00  0.00    +0.023 A 
ATOM      7  C   UNL     1      -1.715   3.067  -1.300  0.00  0.00    +0.004 A 
ATOM      8  C   UNL     1      -0.805   3.951  -0.749  0.00  0.00    +0.028 A 
ATOM      9  C   UNL     1       0.287   3.476  -0.046  0.00  0.00    +0.107 A 
ATOM     10  C   UNL     1       0.469   2.116   0.113  0.00  0.00    +0.051 A 
BRANCH   9  11
ATOM     11  S   UNL     1       1.443   4.607   0.654  0.00  0.00    +0.061 S 
ATOM     12  O   UNL     1       2.667   3.900   0.795  0.00  0.00    -0.153 OA
ATOM     13  O   UNL     1       1.339   5.809  -0.096  0.00  0.00    -0.153 OA
BRANCH  11  14
ATOM     14  N   UNL     1       0.919   4.957   2.186  0.00  0.00    -0.172 NA
ATOM     15  C   UNL     1       0.011   6.088   2.435  0.00  0.00    +0.137 C 
ATOM     16  C   UNL     1      -1.171   5.578   3.275  0.00  0.00    +0.177 C 
ATOM     17  O   UNL     1      -0.669   4.900   4.429  0.00  0.00    -0.377 OA
ATOM     18  C   UNL     1       0.108   3.737   4.133  0.00  0.00    +0.177 C 
ATOM     19  C   UNL     1       1.352   4.150   3.337  0.00  0.00    +0.137 C 
ENDBRANCH  11  14
ENDBRANCH   9  11
ENDBRANCH   3   5
BRANCH   1  20
ATOM     20  C   UNL     1       1.185  -2.163  -0.236  0.00  0.00    +0.051 C 
BRANCH  20  30
ATOM     21  C   UNL     1       3.287  -1.897   0.940  0.00  0.00    -0.072 C 
ATOM     22  C   UNL     1       4.667  -2.541   1.079  0.00  0.00    +0.017 C 
ATOM     23  C   UNL     1       5.403  -2.469  -0.234  0.00  0.00    -0.048 A 
ATOM     24  C   UNL     1       6.775  -2.667  -0.234  0.00  0.00    +0.004 A 
ATOM     25  C   UNL     1       7.487  -2.614  -1.416  0.00  0.00    +0.000 A 
ATOM     26  C   UNL     1       6.828  -2.361  -2.605  0.00  0.00    +0.000 A 
ATOM     27  C   UNL     1       5.463  -2.163  -2.605  0.00  0.00    +0.002 A 
ATOM     28  C   UNL     1       4.746  -2.214  -1.418  0.00  0.00    -0.061 A 
ATOM     29  C   UNL     1       3.259  -1.982  -1.468  0.00  0.00    -0.041 C 
ATOM     30  N   UNL     1       2.628  -2.493  -0.240  0.00  0.00    +0.393 N 
ATOM     31  H   UNL     1       2.738  -3.514  -0.205  0.00  0.00    -0.080 HD
ENDBRANCH  20  30
BRANCH  20  35
ATOM     32  C   UNL     1      -0.664  -3.951  -3.647  0.00  0.00    +0.000 A 
ATOM     33  C   UNL     1      -0.004  -2.744  -3.772  0.00  0.00    +0.000 A 
ATOM     34  C   UNL     1       0.595  -2.165  -2.669  0.00  0.00    +0.002 A 
ATOM     35  C   UNL     1       0.532  -2.794  -1.439  0.00  0.00    -0.052 A 
ATOM     36  C   UNL     1      -0.123  -4.005  -1.315  0.00  0.00    +0.002 A 
ATOM     37  C   UNL     1      -0.725  -4.581  -2.418  0.00  0.00    +0.000 A 
ENDBRANCH  20  35
ENDBRANCH   1  20
TORSDOF 6
