REMARK  Name = ZINC39689765
REMARK  7 active torsions:
REMARK  status: ('A' for Active; 'I' for Inactive)
REMARK    1  A    between atoms: C_1  and  N_2
REMARK    2  A    between atoms: C_5  and  C_8
REMARK    3  A    between atoms: C_8  and  N_9
REMARK    4  A    between atoms: C_10  and  C_12
REMARK    5  A    between atoms: C_23  and  C_25
REMARK    6  A    between atoms: C_29  and  O_30
REMARK    7  A    between atoms: O_30  and  C_31
REMARK                            x       y       z     vdW  Elec       q    Type
REMARK                         _______ _______ _______ _____ _____    ______ ____
ROOT
ATOM      1  C   UNL     1       4.147  -5.770   1.320  0.00  0.00    +0.100 C 
ATOM      2  C   UNL     1       3.063  -6.789   1.738  0.00  0.00    +0.121 C 
ATOM      3  N   UNL     1       3.820  -8.003   2.126  0.00  0.00    -0.296 N 
ATOM      4  C   UNL     1       5.008  -7.482   2.844  0.00  0.00    +0.115 C 
ATOM      5  C   UNL     1       5.422  -6.228   2.049  0.00  0.00    -0.004 C 
ATOM      6  C   UNL     1       5.907  -5.138   2.999  0.00  0.00    -0.010 C 
ATOM      7  C   UNL     1       7.208  -5.592   3.668  0.00  0.00    -0.082 C 
ATOM      8  N   UNL     1       8.221  -5.861   2.641  0.00  0.00    +0.379 N 
ATOM      9  C   UNL     1       7.787  -6.974   1.788  0.00  0.00    -0.082 C 
ATOM     10  C   UNL     1       6.511  -6.578   1.039  0.00  0.00    -0.010 C 
ATOM     11  C   UNL     1       3.501  -9.289   1.881  0.00  0.00    +0.251 C 
ATOM     12  O   UNL     1       2.537  -9.555   1.189  0.00  0.00    -0.270 OA
ATOM     13  H   UNL     1       8.351  -5.036   2.075  0.00  0.00    -0.086 HD
ATOM     14  H   UNL     1       9.094  -6.101   3.086  0.00  0.00    -0.086 HD
ENDROOT
BRANCH  11  15
ATOM     15  C   UNL     1       4.319 -10.371   2.450  0.00  0.00    +0.087 A 
ATOM     16  C   UNL     1       4.905 -10.255   3.692  0.00  0.00    +0.063 A 
ATOM     17  S   UNL     1       5.717 -11.708   3.903  0.00  0.00    -0.081 S 
ATOM     18  C   UNL     1       5.315 -12.517   2.370  0.00  0.00    +0.120 A 
ATOM     19  C   UNL     1       4.540 -11.608   1.737  0.00  0.00    +0.158 A 
ATOM     20 CL   UNL     1       5.795 -14.093   1.824  0.00  0.00    -0.072 Cl
BRANCH  19  21
ATOM     21  O   UNL     1       4.008 -11.840   0.505  0.00  0.00    -0.492 OA
ATOM     22  C   UNL     1       4.792 -11.452  -0.624  0.00  0.00    +0.277 C 
ENDBRANCH  19  21
ENDBRANCH  11  15
BRANCH   1  24
ATOM     23  N   UNL     1       4.314  -3.307   1.166  0.00  0.00    -0.315 N 
ATOM     24  C   UNL     1       3.760  -4.382   1.761  0.00  0.00    +0.218 C 
ATOM     25  O   UNL     1       2.951  -4.232   2.652  0.00  0.00    -0.275 OA
ATOM     26  H   UNL     1       4.961  -3.427   0.453  0.00  0.00    +0.149 HD
BRANCH  23  27
ATOM     27  C   UNL     1       3.937  -1.958   1.595  0.00  0.00    +0.105 C 
BRANCH  27  32
ATOM     28  C   UNL     1       5.572   2.565   1.542  0.00  0.00    -0.096 C 
ATOM     29  N   UNL     1       5.514   1.311   0.779  0.00  0.00    +0.378 N 
ATOM     30  C   UNL     1       6.691   0.471   1.088  0.00  0.00    -0.079 C 
ATOM     31  C   UNL     1       6.218  -0.995   1.070  0.00  0.00    -0.016 C 
ATOM     32  C   UNL     1       4.704  -0.926   0.765  0.00  0.00    -0.012 C 
ATOM     33  C   UNL     1       4.329   0.515   1.192  0.00  0.00    -0.074 C 
ATOM     34  H   UNL     1       5.475   1.506  -0.210  0.00  0.00    -0.082 HD
ENDBRANCH  27  32
ENDBRANCH  23  27
ENDBRANCH   1  24
TORSDOF 5
