REMARK  Name = ZINC39631439
REMARK  12 active torsions:
REMARK  status: ('A' for Active; 'I' for Inactive)
REMARK    1  A    between atoms: C_1  and  C_2
REMARK    2  A    between atoms: C_2  and  C_4
REMARK    3  A    between atoms: C_2  and  N_11
REMARK    4  A    between atoms: C_4  and  C_5
REMARK    5  A    between atoms: C_5  and  C_6
REMARK    6  A    between atoms: C_6  and  C_7
REMARK    7  A    between atoms: C_7  and  C_8
REMARK    8  A    between atoms: C_7  and  C_9
REMARK    9  A    between atoms: C_7  and  O_10
REMARK   10  A    between atoms: C_12  and  C_14
REMARK   11  A    between atoms: C_25  and  C_27
REMARK   12  A    between atoms: C_31  and  C_33
REMARK                            x       y       z     vdW  Elec       q    Type
REMARK                         _______ _______ _______ _____ _____    ______ ____
ROOT
ATOM      1  C   UNL     1       0.558  -0.468  -3.539  0.00  0.00    +0.100 C 
ATOM      2  C   UNL     1       1.778   0.306  -4.088  0.00  0.00    +0.121 C 
ATOM      3  N   UNL     1       1.670   0.179  -5.561  0.00  0.00    -0.296 N 
ATOM      4  C   UNL     1       0.219   0.310  -5.837  0.00  0.00    +0.115 C 
ATOM      5  C   UNL     1      -0.463  -0.462  -4.689  0.00  0.00    -0.004 C 
ATOM      6  C   UNL     1      -0.775  -1.890  -5.127  0.00  0.00    -0.010 C 
ATOM      7  C   UNL     1      -1.834  -1.861  -6.232  0.00  0.00    -0.082 C 
ATOM      8  N   UNL     1      -3.048  -1.206  -5.731  0.00  0.00    +0.379 N 
ATOM      9  C   UNL     1      -2.761   0.195  -5.400  0.00  0.00    -0.082 C 
ATOM     10  C   UNL     1      -1.740   0.253  -4.260  0.00  0.00    -0.010 C 
ATOM     11  C   UNL     1       2.665  -0.011  -6.449  0.00  0.00    +0.247 C 
ATOM     12  O   UNL     1       3.799  -0.210  -6.058  0.00  0.00    -0.270 OA
ATOM     13  H   UNL     1      -3.765  -1.242  -6.440  0.00  0.00    -0.086 HD
ATOM     14  H   UNL     1      -3.372  -1.686  -4.905  0.00  0.00    -0.086 HD
ENDROOT
BRANCH  11  15
ATOM     15  C   UNL     1       2.379   0.021  -7.898  0.00  0.00    +0.038 A 
ATOM     16  C   UNL     1       1.238   0.672  -8.372  0.00  0.00    +0.016 A 
ATOM     17  C   UNL     1       0.976   0.699  -9.725  0.00  0.00    +0.039 A 
ATOM     18  C   UNL     1       1.842   0.082 -10.614  0.00  0.00    +0.135 A 
ATOM     19  C   UNL     1       2.976  -0.566 -10.149  0.00  0.00    +0.091 A 
ATOM     20  C   UNL     1       3.251  -0.594  -8.798  0.00  0.00    +0.028 A 
ATOM     21  F   UNL     1       1.580   0.111 -11.939  0.00  0.00    -0.205 F 
BRANCH  19  22
ATOM     22  C   UNL     1       3.913  -1.235 -11.121  0.00  0.00    +0.420 C 
ATOM     23  F   UNL     1       4.976  -1.815 -10.421  0.00  0.00    -0.166 F 
ATOM     24  F   UNL     1       3.223  -2.226 -11.827  0.00  0.00    -0.166 F 
ATOM     25  F   UNL     1       4.410  -0.284 -12.019  0.00  0.00    -0.166 F 
ENDBRANCH  19  22
ENDBRANCH  11  15
BRANCH   1  27
ATOM     26  N   UNL     1      -0.635  -0.475  -1.373  0.00  0.00    -0.312 N 
ATOM     27  C   UNL     1      -0.008   0.234  -2.332  0.00  0.00    +0.218 C 
ATOM     28  O   UNL     1       0.100   1.437  -2.223  0.00  0.00    -0.275 OA
ATOM     29  H   UNL     1      -0.722  -1.437  -1.459  0.00  0.00    +0.149 HD
BRANCH  26  31
ATOM     30  C   UNL     1      -0.087   0.380   0.852  0.00  0.00    +0.028 C 
ATOM     31  C   UNL     1      -1.185   0.207  -0.199  0.00  0.00    +0.070 C 
BRANCH  31  32
ATOM     32  C   UNL     1      -2.326  -0.627   0.388  0.00  0.00    +0.022 C 
BRANCH  32  33
ATOM     33  C   UNL     1      -3.477  -0.696  -0.617  0.00  0.00    +0.005 C 
BRANCH  33  34
ATOM     34  C   UNL     1      -4.618  -1.530  -0.030  0.00  0.00    +0.034 C 
BRANCH  34  35
ATOM     35  C   UNL     1      -5.769  -1.599  -1.036  0.00  0.00    +0.061 C 
ATOM     36  C   UNL     1      -6.957  -2.326  -0.402  0.00  0.00    +0.041 C 
ATOM     37  C   UNL     1      -6.189  -0.180  -1.427  0.00  0.00    +0.041 C 
BRANCH  35  38
ATOM     38  O   UNL     1      -5.343  -2.307  -2.201  0.00  0.00    -0.389 OA
ATOM     39  H   UNL     1      -6.024  -2.389  -2.882  0.00  0.00    +0.210 HD
ENDBRANCH  35  38
ENDBRANCH  34  35
ENDBRANCH  33  34
ENDBRANCH  32  33
ENDBRANCH  31  32
ENDBRANCH  26  31
ENDBRANCH   1  27
TORSDOF 9
