REMARK  Name = ZINC67028564
REMARK  6 active torsions:
REMARK  status: ('A' for Active; 'I' for Inactive)
REMARK    1  A    between atoms: C_1  and  C_2
REMARK    2  A    between atoms: C_2  and  O_3
REMARK    3  A    between atoms: O_3  and  C_4
REMARK    4  A    between atoms: C_4  and  C_6
REMARK    5  A    between atoms: C_8  and  C_14
REMARK    6  A    between atoms: C_19  and  C_21
REMARK                            x       y       z     vdW  Elec       q    Type
REMARK                         _______ _______ _______ _____ _____    ______ ____
ROOT
ATOM      1  C   UNL     1       1.726  -2.413   2.365  0.00  0.00    +0.148 C 
ATOM      2  C   UNL     1       1.530  -3.779   2.683  0.00  0.00    +0.051 C 
ATOM      3  C   UNL     1       2.033  -4.249   4.036  0.00  0.00    +0.157 C 
ATOM      4  N   UNL     1       2.678  -3.230   4.883  0.00  0.00    -0.312 N 
ATOM      5  C   UNL     1       2.777  -1.972   4.412  0.00  0.00    +0.155 C 
ATOM      6  S   UNL     1       3.526  -0.789   5.398  0.00  0.00    -0.017 S 
ATOM      7  N   UNL     1       2.325  -1.607   3.215  0.00  0.00    -0.186 NA
ATOM      8  C   UNL     1       0.921  -4.625   1.821  0.00  0.00    +0.160 C 
ATOM      9  O   UNL     1       0.361  -4.150   0.692  0.00  0.00    -0.293 OA
ATOM     10  C   UNL     1       0.870  -6.101   2.124  0.00  0.00    +0.091 C 
ATOM     11  H   UNL     1       3.022  -3.460   5.760  0.00  0.00    +0.149 HD
ENDROOT
BRANCH   3  12
ATOM     12  C   UNL     1       0.864  -4.817   4.799  0.00  0.00    +0.073 A 
ATOM     13  C   UNL     1       0.894  -6.074   5.311  0.00  0.00    +0.072 A 
ATOM     14  S   UNL     1      -0.719  -6.156   6.073  0.00  0.00    -0.084 S 
ATOM     15  C   UNL     1      -1.247  -4.611   5.665  0.00  0.00    +0.156 A 
ATOM     16  N   UNL     1      -0.231  -4.113   5.005  0.00  0.00    -0.250 NA
ENDBRANCH   3  12
BRANCH   1  17
ATOM     17  C   UNL     1       1.257  -1.886   1.056  0.00  0.00    +0.356 C 
ATOM     18  O   UNL     1       1.966  -1.979   0.076  0.00  0.00    -0.243 OA
BRANCH  17  19
ATOM     19  O   UNL     1       0.046  -1.308   0.959  0.00  0.00    -0.461 OA
BRANCH  19  21
ATOM     20  C   UNL     1      -1.737  -0.204  -0.244  0.00  0.00    +0.048 C 
ATOM     21  C   UNL     1      -0.341  -0.824  -0.330  0.00  0.00    +0.229 C 
ENDBRANCH  19  21
ENDBRANCH  17  19
ENDBRANCH   1  17
TORSDOF 4
