REMARK  Name = ZINC37169246
REMARK  7 active torsions:
REMARK  status: ('A' for Active; 'I' for Inactive)
REMARK    1  A    between atoms: C_1  and  C_2
REMARK    2  A    between atoms: C_2  and  C_4
REMARK    3  A    between atoms: C_2  and  N_10
REMARK    4  A    between atoms: N_10  and  C_11
REMARK    5  A    between atoms: N_20  and  C_21
REMARK    6  A    between atoms: C_21  and  C_22
REMARK    7  A    between atoms: C_22  and  O_23
REMARK                            x       y       z     vdW  Elec       q    Type
REMARK                         _______ _______ _______ _____ _____    ______ ____
ROOT
ATOM      1  C   UNL     1       0.063  -0.009   2.293  0.00  0.00    -0.037 C 
ATOM      2  C   UNL     1       0.884  -0.415   3.523  0.00  0.00    -0.011 C 
ATOM      3  C   UNL     1       0.329   0.290   4.764  0.00  0.00    +0.005 C 
ATOM      4  C   UNL     1       0.646   1.788   4.686  0.00  0.00    +0.055 C 
ATOM      5  C   UNL     1       0.219   2.295   3.331  0.00  0.00    +0.041 A 
ATOM      6  C   UNL     1      -0.043   1.495   2.266  0.00  0.00    -0.021 A 
ATOM      7  C   UNL     1      -0.410   2.308   1.196  0.00  0.00    +0.136 A 
ATOM      8  N   UNL     1      -0.370   3.554   1.599  0.00  0.00    -0.179 NA
ATOM      9  N   UNL     1       0.027   3.568   2.946  0.00  0.00    -0.266 N 
ENDROOT
BRANCH   1  10
ATOM     10  N   UNL     1       0.734  -0.480   1.074  0.00  0.00    +0.388 N 
ATOM     11  H   UNL     1       1.689  -0.154   1.068  0.00  0.00    -0.084 HD
ATOM     12  H   UNL     1       0.251  -0.121   0.264  0.00  0.00    -0.084 HD
BRANCH  10  14
ATOM     13  C   UNL     1      -0.725  -2.440   0.898  0.00  0.00    -0.008 C 
ATOM     14  C   UNL     1       0.717  -1.949   1.042  0.00  0.00    -0.036 C 
BRANCH  14  15
ATOM     15  C   UNL     1       1.533  -2.435  -0.129  0.00  0.00    -0.023 A 
ATOM     16  C   UNL     1       2.378  -3.491  -0.199  0.00  0.00    +0.011 A 
ATOM     17  C   UNL     1       3.027  -3.753  -1.392  0.00  0.00    +0.028 A 
ATOM     18  C   UNL     1       2.798  -2.943  -2.456  0.00  0.00    +0.078 A 
ATOM     19  S   UNL     1       1.628  -1.773  -1.784  0.00  0.00    -0.083 S 
ATOM     20 CL   UNL     1       3.463  -3.027  -4.057  0.00  0.00    -0.076 Cl
ENDBRANCH  14  15
ENDBRANCH  10  14
ENDBRANCH   1  10
BRANCH   9  21
ATOM     21  C   UNL     1       0.200   4.758   3.783  0.00  0.00    +0.171 C 
BRANCH  21  22
ATOM     22  C   UNL     1       1.641   5.258   3.669  0.00  0.00    +0.179 C 
BRANCH  22  23
ATOM     23  O   UNL     1       1.809   6.418   4.485  0.00  0.00    -0.393 OA
ATOM     24  H   UNL     1       2.702   6.790   4.461  0.00  0.00    +0.209 HD
ENDBRANCH  22  23
ENDBRANCH  21  22
ENDBRANCH   9  21
TORSDOF 6
