REMARK  Name = ZINC12309896
REMARK  9 active torsions:
REMARK  status: ('A' for Active; 'I' for Inactive)
REMARK    1  A    between atoms: C_1  and  C_2
REMARK    2  A    between atoms: C_2  and  C_3
REMARK    3  A    between atoms: C_2  and  C_4
REMARK    4  A    between atoms: C_10  and  N_11
REMARK    5  A    between atoms: N_11  and  O_12
REMARK    6  A    between atoms: O_12  and  C_13
REMARK    7  A    between atoms: C_13  and  C_14
REMARK    8  A    between atoms: N_19  and  C_24
REMARK    9  A    between atoms: N_22  and  C_23
REMARK                            x       y       z     vdW  Elec       q    Type
REMARK                         _______ _______ _______ _____ _____    ______ ____
ROOT
ATOM      1  C   UNL     1       1.020   5.963  -0.733  0.00  0.00    -0.003 A 
ATOM      2  C   UNL     1       2.087   5.153  -0.653  0.00  0.00    +0.090 A 
ATOM      3  N   UNL     1       1.965   3.825  -0.341  0.00  0.00    -0.347 N 
ATOM      4  H   UNL     1       2.854   3.243  -0.056  0.00  0.00    +0.167 HD
ATOM      5  C   UNL     1       0.767   3.183  -0.371  0.00  0.00    +0.129 A 
ATOM      6  C   UNL     1      -0.412   3.921  -0.436  0.00  0.00    +0.106 A 
ATOM      7  C   UNL     1      -0.319   5.392  -0.482  0.00  0.00    +0.082 A 
ATOM      8  C   UNL     1      -1.655   3.246  -0.458  0.00  0.00    +0.268 A 
ATOM      9  O   UNL     1      -2.699   3.871  -0.511  0.00  0.00    -0.267 OA
ATOM     10  N   UNL     1      -1.662   1.896  -0.423  0.00  0.00    -0.263 N 
ATOM     11  C   UNL     1      -0.511   1.204  -0.358  0.00  0.00    +0.333 A 
ATOM     12  O   UNL     1      -0.554  -0.011  -0.326  0.00  0.00    -0.246 OA
ATOM     13  N   UNL     1       0.688   1.815  -0.335  0.00  0.00    -0.282 N 
ATOM     14  C   UNL     1       1.913   1.015  -0.268  0.00  0.00    +0.155 C 
ATOM     15  C   UNL     1      -2.938   1.177  -0.450  0.00  0.00    +0.157 C 
ENDROOT
BRANCH   1  17
ATOM     16  C   UNL     1       1.514   8.207   0.200  0.00  0.00    +0.012 C 
ATOM     17  C   UNL     1       1.184   7.422  -1.072  0.00  0.00    +0.016 C 
ATOM     18  C   UNL     1       2.321   7.587  -2.082  0.00  0.00    +0.012 C 
ENDBRANCH   1  17
BRANCH   7  19
ATOM     19  N   UNL     1      -1.373   6.156  -0.308  0.00  0.00    -0.264 N 
ATOM     20  H   UNL     1      -1.381   7.182  -0.706  0.00  0.00    +0.194 HD
BRANCH  19  21
ATOM     21  O   UNL     1      -2.501   5.660   0.391  0.00  0.00    -0.265 OA
BRANCH  21  22
ATOM     22  C   UNL     1      -3.573   6.597   0.505  0.00  0.00    +0.288 C 
BRANCH  22  23
ATOM     23  C   UNL     1      -4.713   5.966   1.262  0.00  0.00    +0.239 C 
ATOM     24  O   UNL     1      -4.617   4.826   1.664  0.00  0.00    -0.273 OA
ATOM     25  N   UNL     1      -5.840   6.669   1.492  0.00  0.00    -0.327 N 
ATOM     26  H   UNL     1      -6.672   6.208   2.045  0.00  0.00    +0.145 HD
ATOM     27  H   UNL     1      -5.927   7.703   1.128  0.00  0.00    +0.145 HD
ENDBRANCH  22  23
ENDBRANCH  21  22
ENDBRANCH  19  21
ENDBRANCH   7  19
TORSDOF 5
