REMARK  Name = ZINC49640820
REMARK  3 active torsions:
REMARK  status: ('A' for Active; 'I' for Inactive)
REMARK    1  A    between atoms: N_11  and  S_12
REMARK    2  A    between atoms: S_12  and  C_15
REMARK    3  A    between atoms: C_15  and  C_16
REMARK                            x       y       z     vdW  Elec       q    Type
REMARK                         _______ _______ _______ _____ _____    ______ ____
ROOT
ATOM      1  C   UNL     1      -0.017   1.387   0.010  0.00  0.00    +0.004 A 
ATOM      2  C   UNL     1       1.139   2.107   0.003  0.00  0.00    +0.028 A 
ATOM      3  C   UNL     1       2.380   1.449  -0.013  0.00  0.00    +0.073 A 
ATOM      4  C   UNL     1       2.410   0.032  -0.021  0.00  0.00    +0.025 A 
ATOM      5  C   UNL     1       3.653  -0.623  -0.036  0.00  0.00    +0.013 A 
ATOM      6  C   UNL     1       4.786   0.141  -0.043  0.00  0.00    +0.020 A 
ATOM      7  C   UNL     1       4.687   1.530  -0.034  0.00  0.00    +0.111 A 
ATOM      8  N   UNL     1       3.525   2.138  -0.021  0.00  0.00    -0.255 NA
ATOM      9  C   UNL     1       1.199  -0.691  -0.013  0.00  0.00    +0.066 A 
ATOM     10  C   UNL     1       0.002  -0.004   0.002  0.00  0.00    +0.027 A 
ATOM     11  N   UNL     1       1.210  -2.082  -0.021  0.00  0.00    -0.260 N 
ATOM     12  H   UNL     1       2.054  -2.560  -0.031  0.00  0.00    +0.188 HD
ENDROOT
BRANCH  11  13
ATOM     13  S   UNL     1      -0.217  -2.922  -0.012  0.00  0.00    +0.049 S 
ATOM     14  O   UNL     1       0.157  -4.270   0.240  0.00  0.00    -0.153 OA
ATOM     15  O   UNL     1      -1.047  -2.218   0.901  0.00  0.00    -0.153 OA
BRANCH  13  16
ATOM     16  C   UNL     1      -0.864  -2.759  -1.699  0.00  0.00    +0.194 C 
BRANCH  16  17
ATOM     17  C   UNL     1      -2.195  -3.505  -1.809  0.00  0.00    +0.008 C 
ATOM     18  C   UNL     1      -1.958  -5.006  -1.619  0.00  0.00    -0.014 C 
ATOM     19  C   UNL     1      -3.280  -5.753  -1.809  0.00  0.00    -0.082 C 
ATOM     20  N   UNL     1      -3.797  -5.505  -3.160  0.00  0.00    +0.379 N 
ATOM     21  C   UNL     1      -4.095  -4.077  -3.325  0.00  0.00    -0.082 C 
ATOM     22  C   UNL     1      -2.804  -3.265  -3.193  0.00  0.00    -0.014 C 
ATOM     23  H   UNL     1      -3.107  -5.784  -3.841  0.00  0.00    -0.086 HD
ATOM     24  H   UNL     1      -4.641  -6.041  -3.300  0.00  0.00    -0.086 HD
ENDBRANCH  16  17
ENDBRANCH  13  16
ENDBRANCH  11  13
TORSDOF 3
