REMARK  Name = ZINC12902417
REMARK  8 active torsions:
REMARK  status: ('A' for Active; 'I' for Inactive)
REMARK    1  A    between atoms: C_1  and  C_2
REMARK    2  A    between atoms: C_16  and  C_18
REMARK    3  A    between atoms: C_18  and  C_19
REMARK    4  A    between atoms: C_19  and  C_20
REMARK    5  A    between atoms: N_25  and  C_28
REMARK    6  A    between atoms: C_28  and  C_29
REMARK    7  A    between atoms: C_29  and  O_30
REMARK    8  A    between atoms: O_30  and  C_31
REMARK                            x       y       z     vdW  Elec       q    Type
REMARK                         _______ _______ _______ _____ _____    ______ ____
ROOT
ATOM      1  C   UNL     1       3.754   2.169   6.981  0.00  0.00    +0.045 C 
ATOM      2  C   UNL     1       4.558   2.541   5.762  0.00  0.00    -0.029 A 
ATOM      3  C   UNL     1       5.636   3.394   5.883  0.00  0.00    +0.005 A 
ATOM      4  C   UNL     1       6.380   3.742   4.771  0.00  0.00    +0.001 A 
ATOM      5  C   UNL     1       6.041   3.232   3.529  0.00  0.00    +0.004 A 
ATOM      6  C   UNL     1       4.966   2.381   3.403  0.00  0.00    -0.027 A 
ATOM      7  C   UNL     1       4.211   2.023   4.517  0.00  0.00    +0.039 A 
ATOM      8  N   UNL     1       3.182   1.156   4.144  0.00  0.00    -0.286 N 
ATOM      9  C   UNL     1       3.191   0.897   2.822  0.00  0.00    +0.211 C 
ATOM     10  O   UNL     1       2.419   0.180   2.220  0.00  0.00    -0.277 OA
ATOM     11  C   UNL     1       4.343   1.668   2.238  0.00  0.00    +0.050 C 
ATOM     12  C   UNL     1       5.345   0.738   1.544  0.00  0.00    +0.088 C 
ATOM     13  C   UNL     1       4.972   0.818   0.037  0.00  0.00    +0.073 C 
ATOM     14  C   UNL     1       3.771   1.784  -0.024  0.00  0.00    -0.057 C 
ATOM     15  C   UNL     1       6.179   1.480  -0.587  0.00  0.00    +0.224 C 
ATOM     16  O   UNL     1       6.304   1.744  -1.763  0.00  0.00    -0.275 OA
ATOM     17  N   UNL     1       7.089   1.730   0.362  0.00  0.00    -0.240 N 
ATOM     18  C   UNL     1       6.726   1.352   1.593  0.00  0.00    +0.225 C 
ATOM     19  O   UNL     1       7.399   1.482   2.593  0.00  0.00    -0.275 OA
ATOM     20  H   UNL     1       2.537   0.783   4.765  0.00  0.00    +0.155 HD
ATOM     21  N   UNL     1       3.893   2.579   1.200  0.00  0.00    +0.394 N 
ATOM     22  H   UNL     1       4.579   3.332   1.067  0.00  0.00    -0.083 HD
ATOM     23  H   UNL     1       2.984   2.984   1.452  0.00  0.00    -0.083 HD
ENDROOT
BRANCH  14  24
ATOM     24  C   UNL     1       2.457   1.002  -0.016  0.00  0.00    -0.006 C 
BRANCH  24  25
ATOM     25  C   UNL     1       2.016   0.730  -1.456  0.00  0.00    +0.094 C 
BRANCH  25  26
ATOM     26  C   UNL     1       0.721  -0.042  -1.448  0.00  0.00    +0.210 C 
ATOM     27  O   UNL     1       0.202  -0.344  -0.394  0.00  0.00    -0.276 OA
ATOM     28  N   UNL     1       0.143  -0.400  -2.611  0.00  0.00    -0.329 N 
ATOM     29  H   UNL     1      -0.689  -0.900  -2.606  0.00  0.00    +0.145 HD
ATOM     30  H   UNL     1       0.558  -0.158  -3.454  0.00  0.00    +0.145 HD
ENDBRANCH  25  26
ENDBRANCH  24  25
ENDBRANCH  14  24
BRANCH  17  31
ATOM     31  C   UNL     1       8.378   2.365   0.077  0.00  0.00    +0.144 C 
BRANCH  31  32
ATOM     32  C   UNL     1       9.417   1.289  -0.246  0.00  0.00    +0.179 C 
BRANCH  32  33
ATOM     33  O   UNL     1       9.049   0.620  -1.454  0.00  0.00    -0.381 OA
ATOM     34  C   UNL     1       9.959  -0.409  -1.848  0.00  0.00    +0.194 C 
ENDBRANCH  32  33
ENDBRANCH  31  32
ENDBRANCH  17  31
TORSDOF 6
