REMARK  Name = ZINC16732012
REMARK  10 active torsions:
REMARK  status: ('A' for Active; 'I' for Inactive)
REMARK    1  A    between atoms: C_1  and  C_2
REMARK    2  A    between atoms: C_2  and  O_3
REMARK    3  A    between atoms: O_3  and  C_4
REMARK    4  A    between atoms: C_4  and  C_6
REMARK    5  A    between atoms: C_9  and  C_12
REMARK    6  A    between atoms: C_15  and  C_17
REMARK    7  A    between atoms: C_19  and  C_31
REMARK    8  A    between atoms: C_21  and  C_26
REMARK    9  A    between atoms: C_21  and  O_30
REMARK   10  A    between atoms: C_31  and  C_33
REMARK                            x       y       z     vdW  Elec       q    Type
REMARK                         _______ _______ _______ _____ _____    ______ ____
ROOT
ATOM      1  C   UNL     1      -0.013   1.086   0.008  0.00  0.00    +0.156 C 
ATOM      2  C   UNL     1      -0.747   1.595  -1.237  0.00  0.00    +0.147 C 
ATOM      3  C   UNL     1       0.055   1.184  -2.477  0.00  0.00    +0.243 C 
ATOM      4  N   UNL     1       1.424   1.686  -2.353  0.00  0.00    -0.264 N 
ATOM      5  C   UNL     1       1.998   1.857  -1.153  0.00  0.00    +0.302 C 
ATOM      6  O   UNL     1       3.141   2.267  -1.105  0.00  0.00    -0.253 OA
ATOM      7  N   UNL     1       1.360   1.594  -0.002  0.00  0.00    -0.289 N 
ATOM      8  H   UNL     1       1.926   1.900  -3.155  0.00  0.00    +0.153 HD
ATOM      9  H   UNL     1       1.818   1.742   0.840  0.00  0.00    +0.151 HD
ENDROOT
BRANCH   1  13
ATOM     10  C   UNL     1      -1.381   2.881   2.880  0.00  0.00    +0.135 A 
ATOM     11  C   UNL     1      -2.002   1.682   3.052  0.00  0.00    +0.050 A 
ATOM     12  C   UNL     1      -1.573   0.850   2.000  0.00  0.00    +0.047 A 
ATOM     13  C   UNL     1      -0.721   1.573   1.246  0.00  0.00    +0.127 A 
ATOM     14  O   UNL     1      -0.603   2.797   1.784  0.00  0.00    -0.458 OA
BRANCH  10  18
ATOM     15  C   UNL     1      -1.811   6.284   5.372  0.00  0.00    +0.059 A 
ATOM     16  C   UNL     1      -0.970   6.336   4.256  0.00  0.00    +0.015 A 
ATOM     17  C   UNL     1      -0.831   5.240   3.454  0.00  0.00    +0.012 A 
ATOM     18  C   UNL     1      -1.531   4.065   3.748  0.00  0.00    +0.017 A 
ATOM     19  C   UNL     1      -2.376   4.014   4.861  0.00  0.00    +0.012 A 
ATOM     20  C   UNL     1      -2.510   5.109   5.666  0.00  0.00    +0.015 A 
BRANCH  15  21
ATOM     21  C   UNL     1      -1.961   7.467   6.239  0.00  0.00    +0.339 C 
ATOM     22  O   UNL     1      -1.353   8.488   5.984  0.00  0.00    -0.245 OA
BRANCH  21  23
ATOM     23  O   UNL     1      -2.771   7.417   7.314  0.00  0.00    -0.461 OA
BRANCH  23  25
ATOM     24  C   UNL     1      -3.829   8.372   9.289  0.00  0.00    +0.048 C 
ATOM     25  C   UNL     1      -2.870   8.619   8.123  0.00  0.00    +0.229 C 
ENDBRANCH  23  25
ENDBRANCH  21  23
ENDBRANCH  15  21
ENDBRANCH  10  18
ENDBRANCH   1  13
BRANCH   3  26
ATOM     26  C   UNL     1      -0.596   1.778  -3.728  0.00  0.00    +0.436 C 
ATOM     27  F   UNL     1       0.141   1.407  -4.858  0.00  0.00    -0.166 F 
ATOM     28  F   UNL     1      -1.905   1.297  -3.846  0.00  0.00    -0.166 F 
ATOM     29  F   UNL     1      -0.619   3.173  -3.625  0.00  0.00    -0.166 F 
ENDBRANCH   3  26
BRANCH   3  30
ATOM     30  O   UNL     1       0.076  -0.241  -2.581  0.00  0.00    -0.364 OA
ATOM     31  H   UNL     1       0.572  -0.573  -3.342  0.00  0.00    +0.212 HD
ENDBRANCH   3  30
BRANCH   2  32
ATOM     32  C   UNL     1      -0.858   3.097  -1.181  0.00  0.00    +0.173 C 
ATOM     33  O   UNL     1      -0.033   3.787  -1.741  0.00  0.00    -0.292 OA
BRANCH  32  34
ATOM     34  C   UNL     1      -1.966   3.725  -0.445  0.00  0.00    +0.018 A 
ATOM     35  C   UNL     1      -2.923   2.933   0.197  0.00  0.00    +0.011 A 
ATOM     36  C   UNL     1      -3.955   3.529   0.890  0.00  0.00    +0.001 A 
ATOM     37  C   UNL     1      -4.054   4.909   0.939  0.00  0.00    +0.000 A 
ATOM     38  C   UNL     1      -3.115   5.700   0.301  0.00  0.00    +0.001 A 
ATOM     39  C   UNL     1      -2.073   5.119  -0.390  0.00  0.00    +0.011 A 
ENDBRANCH  32  34
ENDBRANCH   2  32
TORSDOF 9
