REMARK  Name = ZINC09644402
REMARK  11 active torsions:
REMARK  status: ('A' for Active; 'I' for Inactive)
REMARK    1  A    between atoms: C_1  and  C_2
REMARK    2  A    between atoms: C_2  and  C_4
REMARK    3  A    between atoms: C_2  and  O_29
REMARK    4  A    between atoms: C_4  and  C_6
REMARK    5  A    between atoms: C_4  and  N_52
REMARK    6  A    between atoms: C_6  and  O_8
REMARK    7  A    between atoms: O_8  and  C_9
REMARK    8  A    between atoms: C_10  and  C_11
REMARK    9  A    between atoms: C_10  and  C_17
REMARK   10  A    between atoms: C_10  and  C_23
REMARK   11  A    between atoms: C_10  and  N_52
REMARK                            x       y       z     vdW  Elec       q    Type
REMARK                         _______ _______ _______ _____ _____    ______ ____
ROOT
ATOM      1  C   UNL     1       3.506  -0.266  -0.751  0.00  0.00    +0.011 C 
ENDROOT
BRANCH   1   2
ATOM      2  C   UNL     1       3.380   1.135  -1.293  0.00  0.00    -0.050 A 
ATOM      3  C   UNL     1       2.716   1.357  -2.485  0.00  0.00    +0.003 A 
ATOM      4  C   UNL     1       2.602   2.642  -2.983  0.00  0.00    +0.000 A 
ATOM      5  C   UNL     1       3.151   3.704  -2.288  0.00  0.00    +0.000 A 
ATOM      6  C   UNL     1       3.814   3.481  -1.096  0.00  0.00    +0.000 A 
ATOM      7  C   UNL     1       3.929   2.196  -0.599  0.00  0.00    +0.003 A 
ENDBRANCH   1   2
BRANCH   1   8
ATOM      8  C   UNL     1       2.542  -0.450   0.393  0.00  0.00    -0.050 A 
ATOM      9  C   UNL     1       2.989  -0.344   1.697  0.00  0.00    +0.003 A 
ATOM     10  C   UNL     1       2.104  -0.507   2.747  0.00  0.00    +0.000 A 
ATOM     11  C   UNL     1       0.775  -0.787   2.492  0.00  0.00    +0.000 A 
ATOM     12  C   UNL     1       0.329  -0.899   1.188  0.00  0.00    +0.000 A 
ATOM     13  C   UNL     1       1.213  -0.730   0.139  0.00  0.00    +0.003 A 
ENDBRANCH   1   8
BRANCH   1  14
ATOM     14  C   UNL     1       3.187  -1.257  -1.840  0.00  0.00    -0.050 A 
ATOM     15  C   UNL     1       1.947  -1.238  -2.450  0.00  0.00    +0.003 A 
ATOM     16  C   UNL     1       1.656  -2.144  -3.454  0.00  0.00    +0.000 A 
ATOM     17  C   UNL     1       2.602  -3.075  -3.839  0.00  0.00    +0.000 A 
ATOM     18  C   UNL     1       3.840  -3.098  -3.224  0.00  0.00    +0.000 A 
ATOM     19  C   UNL     1       4.133  -2.189  -2.225  0.00  0.00    +0.003 A 
ENDBRANCH   1  14
BRANCH   1  20
ATOM     20  N   UNL     1       4.885  -0.493  -0.279  0.00  0.00    +0.401 N 
ATOM     21  H   UNL     1       4.974  -1.460   0.055  0.00  0.00    -0.082 HD
ATOM     22  H   UNL     1       5.538  -0.338  -1.056  0.00  0.00    -0.082 HD
BRANCH  20  23
ATOM     23  C   UNL     1       5.209   0.434   0.822  0.00  0.00    +0.070 C 
BRANCH  23  25
ATOM     24  C   UNL     1       5.125  -1.734   2.061  0.00  0.00    +0.036 C 
ATOM     25  C   UNL     1       5.792  -0.359   1.994  0.00  0.00    +0.108 C 
BRANCH  25  26
ATOM     26  O   UNL     1       5.552   0.347   3.213  0.00  0.00    -0.393 OA
ATOM     27  H   UNL     1       5.946   1.230   3.240  0.00  0.00    +0.210 HD
ENDBRANCH  25  26
ENDBRANCH  23  25
BRANCH  23  28
ATOM     28  C   UNL     1       6.222   1.442   0.344  0.00  0.00    +0.295 C 
ATOM     29  O   UNL     1       6.627   1.400  -0.793  0.00  0.00    -0.253 OA
BRANCH  28  30
ATOM     30  O   UNL     1       6.674   2.388   1.182  0.00  0.00    -0.469 OA
ATOM     31  C   UNL     1       7.648   3.326   0.654  0.00  0.00    +0.280 C 
ENDBRANCH  28  30
ENDBRANCH  23  28
ENDBRANCH  20  23
ENDBRANCH   1  20
TORSDOF 9
