REMARK  Name = ZINC59447234
REMARK  11 active torsions:
REMARK  status: ('A' for Active; 'I' for Inactive)
REMARK    1  A    between atoms: C_3  and  C_10
REMARK    2  A    between atoms: C_5  and  N_7
REMARK    3  A    between atoms: N_12  and  N_13
REMARK    4  A    between atoms: C_14  and  C_16
REMARK    5  A    between atoms: C_16  and  N_17
REMARK    6  A    between atoms: N_17  and  C_18
REMARK    7  A    between atoms: C_18  and  C_19
REMARK    8  A    between atoms: C_19  and  C_20
REMARK    9  A    between atoms: C_20  and  N_21
REMARK   10  A    between atoms: N_21  and  C_22
REMARK   11  A    between atoms: C_25  and  N_28
REMARK                            x       y       z     vdW  Elec       q    Type
REMARK                         _______ _______ _______ _____ _____    ______ ____
ROOT
ATOM      1  C   UNL     1       6.129   6.337  -0.025  0.00  0.00    +0.016 C 
ENDROOT
BRANCH   1   3
ATOM      2  N   UNL     1       4.848   4.222  -0.023  0.00  0.00    -0.236 N 
ATOM      3  C   UNL     1       4.833   5.569  -0.016  0.00  0.00    +0.212 C 
ATOM      4  O   UNL     1       3.776   6.164  -0.003  0.00  0.00    -0.276 OA
ATOM      5  H   UNL     1       5.693   3.746  -0.034  0.00  0.00    +0.173 HD
BRANCH   2   8
ATOM      6  C   UNL     1       3.657   2.160  -0.022  0.00  0.00    +0.260 C 
ATOM      7  O   UNL     1       4.716   1.564  -0.035  0.00  0.00    -0.269 OA
ATOM      8  N   UNL     1       3.642   3.508  -0.015  0.00  0.00    -0.230 N 
ATOM      9  H   UNL     1       2.797   3.984  -0.004  0.00  0.00    +0.173 HD
BRANCH   6  12
ATOM     10  C   UNL     1      -0.017   1.379   0.010  0.00  0.00    +0.003 A 
ATOM     11  C   UNL     1       1.167   2.088   0.002  0.00  0.00    +0.013 A 
ATOM     12  C   UNL     1       2.385   1.407  -0.013  0.00  0.00    +0.040 A 
ATOM     13  C   UNL     1       2.397   0.011  -0.021  0.00  0.00    +0.045 A 
ATOM     14  C   UNL     1       1.206  -0.686  -0.013  0.00  0.00    +0.127 A 
ATOM     15  C   UNL     1       0.002  -0.004   0.002  0.00  0.00    +0.033 A 
BRANCH  14  16
ATOM     16  N   UNL     1       1.217  -2.166  -0.021  0.00  0.00    +0.056 N 
ATOM     17  O   UNL     1       2.268  -2.763  -0.034  0.00  0.00    -0.126 OA
ATOM     18  O   UNL     1       0.174  -2.778  -0.014  0.00  0.00    -0.126 OA
ENDBRANCH  14  16
ENDBRANCH   6  12
ENDBRANCH   2   8
ENDBRANCH   1   3
BRANCH   1  19
ATOM     19  N   UNL     1       5.845   7.779  -0.015  0.00  0.00    +0.385 N 
ATOM     20  H   UNL     1       5.305   8.021  -0.832  0.00  0.00    -0.085 HD
ATOM     21  H   UNL     1       5.321   8.012   0.815  0.00  0.00    -0.085 HD
BRANCH  19  22
ATOM     22  C   UNL     1       7.109   8.527  -0.023  0.00  0.00    -0.080 C 
BRANCH  22  23
ATOM     23  C   UNL     1       6.813  10.028  -0.013  0.00  0.00    -0.000 C 
BRANCH  23  24
ATOM     24  C   UNL     1       8.129  10.808  -0.022  0.00  0.00    +0.099 C 
BRANCH  24  25
ATOM     25  N   UNL     1       7.846  12.245  -0.012  0.00  0.00    -0.344 N 
ATOM     26  H   UNL     1       6.928  12.558  -0.002  0.00  0.00    +0.146 HD
BRANCH  25  27
ATOM     27  C   UNL     1       8.897  13.164  -0.018  0.00  0.00    +0.027 A 
ATOM     28  C   UNL     1      10.213  12.717  -0.038  0.00  0.00    +0.025 A 
ATOM     29  C   UNL     1      11.250  13.629  -0.044  0.00  0.00    +0.034 A 
ATOM     30  C   UNL     1      10.980  14.986  -0.030  0.00  0.00    +0.126 A 
ATOM     31  C   UNL     1       9.672  15.434  -0.009  0.00  0.00    +0.034 A 
ATOM     32  C   UNL     1       8.630  14.527  -0.008  0.00  0.00    +0.025 A 
BRANCH  30  33
ATOM     33  N   UNL     1      12.095  15.960  -0.036  0.00  0.00    +0.056 N 
ATOM     34  O   UNL     1      13.239  15.569  -0.053  0.00  0.00    -0.126 OA
ATOM     35  O   UNL     1      11.861  17.146  -0.023  0.00  0.00    -0.126 OA
ENDBRANCH  30  33
ENDBRANCH  25  27
ENDBRANCH  24  25
ENDBRANCH  23  24
ENDBRANCH  22  23
ENDBRANCH  19  22
ENDBRANCH   1  19
TORSDOF 11
