REMARK  Name = ZINC63743863
REMARK  5 active torsions:
REMARK  status: ('A' for Active; 'I' for Inactive)
REMARK    1  A    between atoms: C_1  and  C_2
REMARK    2  A    between atoms: C_5  and  C_8
REMARK    3  A    between atoms: C_8  and  N_9
REMARK    4  A    between atoms: N_12  and  C_13
REMARK    5  A    between atoms: C_16  and  C_19
REMARK                            x       y       z     vdW  Elec       q    Type
REMARK                         _______ _______ _______ _____ _____    ______ ____
ROOT
ATOM      1  C   UNL     1       3.205  -7.879  -0.149  0.00  0.00    +0.035 A 
ATOM      2  C   UNL     1       2.127  -8.749  -0.249  0.00  0.00    +0.024 A 
ATOM      3  C   UNL     1       2.346 -10.109  -0.347  0.00  0.00    +0.008 A 
ATOM      4  C   UNL     1       3.637 -10.605  -0.346  0.00  0.00    -0.021 A 
ATOM      5  C   UNL     1       4.712  -9.741  -0.245  0.00  0.00    +0.008 A 
ATOM      6  C   UNL     1       4.500  -8.380  -0.153  0.00  0.00    +0.024 A 
ENDROOT
BRANCH   4   7
ATOM      7  C   UNL     1       3.872 -12.090  -0.453  0.00  0.00    +0.133 C 
ATOM      8  C   UNL     1       4.297 -12.450  -1.859  0.00  0.00    +0.012 C 
ATOM      9  C   UNL     1       5.530 -12.996  -1.749  0.00  0.00    -0.002 A 
ATOM     10  C   UNL     1       6.468 -13.540  -2.738  0.00  0.00    +0.029 A 
ATOM     11  C   UNL     1       7.657 -14.029  -2.316  0.00  0.00    +0.042 A 
ATOM     12  C   UNL     1       8.014 -14.029  -0.959  0.00  0.00    +0.022 A 
ATOM     13  C   UNL     1       7.204 -13.547   0.007  0.00  0.00    +0.027 A 
ATOM     14  C   UNL     1       5.930 -13.008  -0.324  0.00  0.00    +0.043 A 
ATOM     15  N   UNL     1       4.981 -12.490   0.420  0.00  0.00    -0.374 N 
ATOM     16 CL   UNL     1       8.769 -14.673  -3.483  0.00  0.00    -0.084 Cl
ATOM     17  H   UNL     1       5.008 -12.388   1.384  0.00  0.00    +0.161 HD
ENDBRANCH   4   7
BRANCH   1  21
ATOM     18  N   UNL     1       3.582  -4.316  -0.620  0.00  0.00    -0.295 N 
ATOM     19  C   UNL     1       3.842  -5.639  -0.635  0.00  0.00    +0.304 C 
ATOM     20  O   UNL     1       4.848  -6.054  -1.177  0.00  0.00    -0.252 OA
ATOM     21  N   UNL     1       2.986  -6.500  -0.050  0.00  0.00    -0.269 N 
ATOM     22  H   UNL     1       2.780  -3.985  -0.187  0.00  0.00    +0.151 HD
ATOM     23  H   UNL     1       2.220  -6.165   0.440  0.00  0.00    +0.156 HD
BRANCH  18  24
ATOM     24  C   UNL     1       4.512  -3.380  -1.256  0.00  0.00    +0.141 C 
BRANCH  24  29
ATOM     25  C   UNL     1       2.529   2.015  -0.656  0.00  0.00    +0.044 C 
ATOM     26  C   UNL     1       3.046   0.608  -0.812  0.00  0.00    -0.050 A 
ATOM     27  C   UNL     1       3.881   0.068   0.147  0.00  0.00    +0.003 A 
ATOM     28  C   UNL     1       4.356  -1.223   0.004  0.00  0.00    +0.005 A 
ATOM     29  C   UNL     1       3.994  -1.973  -1.099  0.00  0.00    -0.030 A 
ATOM     30  C   UNL     1       3.158  -1.434  -2.058  0.00  0.00    +0.005 A 
ATOM     31  C   UNL     1       2.680  -0.145  -1.913  0.00  0.00    +0.003 A 
ENDBRANCH  24  29
ENDBRANCH  18  24
ENDBRANCH   1  21
TORSDOF 4
