REMARK  Name = ZINC54101711
REMARK  7 active torsions:
REMARK  status: ('A' for Active; 'I' for Inactive)
REMARK    1  A    between atoms: C_1  and  N_2
REMARK    2  A    between atoms: N_2  and  C_3
REMARK    3  A    between atoms: N_2  and  C_4
REMARK    4  A    between atoms: C_4  and  C_10
REMARK    5  A    between atoms: C_10  and  N_11
REMARK    6  A    between atoms: N_14  and  N_15
REMARK    7  A    between atoms: C_16  and  C_18
REMARK                            x       y       z     vdW  Elec       q    Type
REMARK                         _______ _______ _______ _____ _____    ______ ____
ROOT
ATOM      1  N   UNL     1      -2.376   1.254   1.301  0.00  0.00    -0.300 N 
ATOM      2  C   UNL     1      -3.127   1.831   2.259  0.00  0.00    +0.316 C 
ATOM      3  O   UNL     1      -3.702   1.142   3.079  0.00  0.00    -0.251 OA
ATOM      4  N   UNL     1      -3.241   3.173   2.308  0.00  0.00    -0.218 N 
ATOM      5  H   UNL     1      -1.917   1.804   0.647  0.00  0.00    +0.150 HD
ATOM      6  H   UNL     1      -3.781   3.589   2.998  0.00  0.00    +0.174 HD
ENDROOT
BRANCH   4   7
ATOM      7  N   UNL     1      -2.578   3.968   1.364  0.00  0.00    -0.233 N 
ATOM      8  C   UNL     1      -2.691   5.310   1.413  0.00  0.00    +0.234 C 
ATOM      9  O   UNL     1      -3.368   5.830   2.276  0.00  0.00    -0.274 OA
ATOM     10  H   UNL     1      -2.037   3.552   0.674  0.00  0.00    +0.173 HD
BRANCH   8  11
ATOM     11  C   UNL     1      -1.978   6.165   0.397  0.00  0.00    +0.099 C 
ATOM     12  C   UNL     1      -0.460   5.946   0.509  0.00  0.00    +0.037 C 
ATOM     13  C   UNL     1       0.290   7.038  -0.292  0.00  0.00    +0.166 C 
ATOM     14  S   UNL     1      -0.878   8.457  -0.233  0.00  0.00    -0.030 S 
ATOM     15  O   UNL     1      -1.301   8.763  -1.555  0.00  0.00    -0.174 OA
ATOM     16  O   UNL     1      -0.320   9.482   0.578  0.00  0.00    -0.174 OA
ATOM     17  C   UNL     1      -2.273   7.666   0.675  0.00  0.00    +0.178 C 
ENDBRANCH   8  11
ENDBRANCH   4   7
BRANCH   1  18
ATOM     18  C   UNL     1      -2.252  -0.205   1.247  0.00  0.00    +0.094 C 
BRANCH  18  19
ATOM     19  C   UNL     1      -1.470  -0.605  -0.006  0.00  0.00    -0.050 C 
ATOM     20  C   UNL     1      -1.452  -2.130  -0.131  0.00  0.00    -0.010 C 
ATOM     21  C   UNL     1      -0.781  -2.735   1.103  0.00  0.00    -0.001 C 
ATOM     22  C   UNL     1       0.654  -2.215   1.210  0.00  0.00    -0.000 C 
ATOM     23  C   UNL     1       0.636  -0.690   1.335  0.00  0.00    -0.001 C 
ATOM     24  C   UNL     1      -0.035  -0.085   0.101  0.00  0.00    -0.010 C 
BRANCH  19  26
ATOM     25  C   UNL     1      -1.384  -0.437  -2.397  0.00  0.00    -0.096 C 
ATOM     26  N   UNL     1      -2.115  -0.024  -1.192  0.00  0.00    +0.381 N 
ATOM     27  C   UNL     1      -3.503  -0.495  -1.274  0.00  0.00    -0.096 C 
ATOM     28  H   UNL     1      -2.105   0.983  -1.120  0.00  0.00    -0.082 HD
ENDBRANCH  19  26
ENDBRANCH  18  19
ENDBRANCH   1  18
TORSDOF 5
