REMARK  Name = ZINC00198167
REMARK  5 active torsions:
REMARK  status: ('A' for Active; 'I' for Inactive)
REMARK    1  A    between atoms: C_1  and  N_38
REMARK    2  A    between atoms: C_2  and  N_38
REMARK    3  A    between atoms: C_3  and  C_4
REMARK    4  A    between atoms: C_3  and  N_38
REMARK    5  A    between atoms: C_9  and  O_10
REMARK                            x       y       z     vdW  Elec       q    Type
REMARK                         _______ _______ _______ _____ _____    ______ ____
ROOT
ATOM      1  C   UNL     1      -0.017   1.375   0.010  0.00  0.00    -0.019 A 
ATOM      2  C   UNL     1       0.002  -0.004   0.002  0.00  0.00    +0.052 A 
ATOM      3  C   UNL     1       1.214  -0.684  -0.013  0.00  0.00    +0.140 A 
ATOM      4  C   UNL     1       2.415   0.042  -0.019  0.00  0.00    +0.026 A 
ATOM      5  C   UNL     1       2.386   1.441  -0.012  0.00  0.00    +0.057 A 
ATOM      6  C   UNL     1       1.172   2.099   0.002  0.00  0.00    +0.119 A 
ATOM      7  C   UNL     1       3.698  -0.673  -0.033  0.00  0.00    -0.009 A 
ATOM      8  C   UNL     1       3.684  -2.027  -0.032  0.00  0.00    +0.117 A 
ATOM      9  C   UNL     1       2.387  -2.719  -0.031  0.00  0.00    +0.359 A 
ATOM     10  O   UNL     1       2.359  -3.936  -0.039  0.00  0.00    -0.243 OA
ATOM     11  O   UNL     1       1.236  -2.035  -0.021  0.00  0.00    -0.421 OA
ATOM     12  N   UNL     1       4.842  -2.803  -0.023  0.00  0.00    -0.338 N 
ATOM     13  C   UNL     1       6.027  -2.076  -0.484  0.00  0.00    +0.102 C 
ATOM     14  C   UNL     1       6.152  -0.780   0.328  0.00  0.00    +0.023 C 
ATOM     15  C   UNL     1       4.975   0.124  -0.048  0.00  0.00    +0.039 C 
ATOM     16  H   UNL     1       4.998  -3.208   0.888  0.00  0.00    +0.146 HD
ENDROOT
BRANCH   6  17
ATOM     17  O   UNL     1       1.137   3.458   0.009  0.00  0.00    -0.507 OA
ATOM     18  H   UNL     1       1.135   3.847   0.894  0.00  0.00    +0.292 HD
ENDBRANCH   6  17
BRANCH   1  19
ATOM     19  C   UNL     1      -1.335   2.103   0.020  0.00  0.00    -0.040 C 
BRANCH  19  22
ATOM     20  C   UNL     1      -2.735   3.560   1.355  0.00  0.00    -0.096 C 
ATOM     21  C   UNL     1      -1.774   1.567   2.340  0.00  0.00    -0.096 C 
ATOM     22  N   UNL     1      -1.561   2.662   1.370  0.00  0.00    +0.379 N 
ATOM     23  H   UNL     1      -0.733   3.200   1.651  0.00  0.00    -0.082 HD
ENDBRANCH  19  22
ENDBRANCH   1  19
TORSDOF 3
