REMARK  Name = ZINC66688344
REMARK  8 active torsions:
REMARK  status: ('A' for Active; 'I' for Inactive)
REMARK    1  A    between atoms: C_1  and  C_2
REMARK    2  A    between atoms: C_2  and  O_3
REMARK    3  A    between atoms: O_3  and  C_4
REMARK    4  A    between atoms: C_4  and  C_5
REMARK    5  A    between atoms: N_7  and  N_8
REMARK    6  A    between atoms: N_11  and  C_12
REMARK    7  A    between atoms: C_12  and  C_13
REMARK    8  A    between atoms: C_13  and  N_19
REMARK                            x       y       z     vdW  Elec       q    Type
REMARK                         _______ _______ _______ _____ _____    ______ ____
ROOT
ATOM      1  N   UNL     1       5.945  -7.772   4.719  0.00  0.00    -0.218 N 
ATOM      2  C   UNL     1       4.636  -7.450   4.690  0.00  0.00    +0.316 C 
ATOM      3  O   UNL     1       4.194  -6.630   5.472  0.00  0.00    -0.251 OA
ATOM      4  N   UNL     1       3.818  -8.036   3.794  0.00  0.00    -0.300 N 
ATOM      5  H   UNL     1       6.534  -7.350   5.364  0.00  0.00    +0.174 HD
ATOM      6  H   UNL     1       4.171  -8.690   3.170  0.00  0.00    +0.150 HD
ENDROOT
BRANCH   1   9
ATOM      7  C   UNL     1       7.763  -9.038   3.847  0.00  0.00    +0.255 C 
ATOM      8  O   UNL     1       8.499  -8.511   4.654  0.00  0.00    -0.272 OA
ATOM      9  N   UNL     1       6.454  -8.716   3.818  0.00  0.00    -0.231 N 
ATOM     10  H   UNL     1       5.865  -9.138   3.173  0.00  0.00    +0.173 HD
BRANCH   7  11
ATOM     11  C   UNL     1       8.310 -10.054   2.878  0.00  0.00    +0.256 C 
BRANCH  11  12
ATOM     12  O   UNL     1       9.711 -10.222   3.106  0.00  0.00    -0.371 OA
BRANCH  12  14
ATOM     13  C   UNL     1      11.822 -11.268   2.567  0.00  0.00    +0.034 C 
ATOM     14  C   UNL     1      10.332 -11.170   2.234  0.00  0.00    +0.157 C 
ENDBRANCH  12  14
ENDBRANCH  11  12
ENDBRANCH   7  11
ENDBRANCH   1   9
BRANCH   4  15
ATOM     15  C   UNL     1       2.396  -7.686   3.762  0.00  0.00    +0.094 C 
BRANCH  15  16
ATOM     16  C   UNL     1       1.724  -8.388   2.580  0.00  0.00    -0.050 C 
ATOM     17  C   UNL     1       0.272  -7.920   2.467  0.00  0.00    -0.010 C 
ATOM     18  C   UNL     1      -0.476  -8.263   3.757  0.00  0.00    -0.001 C 
ATOM     19  C   UNL     1      -0.444  -9.777   3.978  0.00  0.00    -0.000 C 
ATOM     20  C   UNL     1       1.008 -10.245   4.090  0.00  0.00    -0.001 C 
ATOM     21  C   UNL     1       1.756  -9.902   2.801  0.00  0.00    -0.010 C 
BRANCH  16  22
ATOM     22  N   UNL     1       2.442  -8.058   1.342  0.00  0.00    +0.384 N 
ATOM     23  C   UNL     1       2.448  -6.603   1.154  0.00  0.00    -0.078 C 
ATOM     24  C   UNL     1       3.264  -6.248  -0.091  0.00  0.00    -0.019 C 
ATOM     25  C   UNL     1       2.635  -6.920  -1.315  0.00  0.00    -0.004 C 
ATOM     26  C   UNL     1       2.567  -8.432  -1.077  0.00  0.00    -0.019 C 
ATOM     27  C   UNL     1       1.777  -8.705   0.205  0.00  0.00    -0.078 C 
ATOM     28  H   UNL     1       3.393  -8.391   1.407  0.00  0.00    -0.081 HD
ENDBRANCH  16  22
ENDBRANCH  15  16
ENDBRANCH   4  15
TORSDOF 7
