REMARK  Name = ZINC33457011
REMARK  5 active torsions:
REMARK  status: ('A' for Active; 'I' for Inactive)
REMARK    1  A    between atoms: C_9  and  O_25
REMARK    2  A    between atoms: C_10  and  C_11
REMARK    3  A    between atoms: C_11  and  C_13
REMARK    4  A    between atoms: C_11  and  N_15
REMARK    5  A    between atoms: C_13  and  N_14
REMARK                            x       y       z     vdW  Elec       q    Type
REMARK                         _______ _______ _______ _____ _____    ______ ____
ROOT
ATOM      1  C   UNL     1      -2.417   0.453   0.331  0.00  0.00    +0.074 C 
ENDROOT
BRANCH   1  11
ATOM      2  C   UNL     1       0.486  -0.843  -3.679  0.00  0.00    +0.001 A 
ATOM      3  C   UNL     1      -0.649  -0.054  -3.505  0.00  0.00    +0.001 A 
ATOM      4  C   UNL     1      -1.210   0.105  -2.275  0.00  0.00    +0.009 A 
ATOM      5  C   UNL     1      -0.638  -0.536  -1.162  0.00  0.00    -0.010 A 
ATOM      6  C   UNL     1       0.517  -1.338  -1.339  0.00  0.00    -0.017 A 
ATOM      7  C   UNL     1       1.067  -1.478  -2.625  0.00  0.00    +0.008 A 
ATOM      8  C   UNL     1       1.090  -1.980  -0.228  0.00  0.00    +0.012 A 
ATOM      9  C   UNL     1       0.532  -1.824   1.003  0.00  0.00    +0.046 A 
ATOM     10  C   UNL     1      -0.606  -1.033   1.181  0.00  0.00    +0.122 A 
ATOM     11  C   UNL     1      -1.189  -0.395   0.122  0.00  0.00    +0.017 A 
BRANCH  10  12
ATOM     12  O   UNL     1      -1.141  -0.896   2.422  0.00  0.00    -0.506 OA
ATOM     13  H   UNL     1      -2.036  -0.275   2.571  0.00  0.00    +0.292 HD
ENDBRANCH  10  12
ENDBRANCH   1  11
BRANCH   1  14
ATOM     14  N   UNL     1      -3.417   0.128  -0.694  0.00  0.00    -0.293 NA
ATOM     15  C   UNL     1      -4.460   1.163  -0.760  0.00  0.00    +0.090 C 
ATOM     16  C   UNL     1      -5.249   0.976  -2.056  0.00  0.00    +0.051 C 
ATOM     17  C   UNL     1      -5.690  -0.460  -2.187  0.00  0.00    -0.042 A 
ATOM     18  C   UNL     1      -6.698  -0.763  -3.089  0.00  0.00    +0.004 A 
ATOM     19  C   UNL     1      -7.125  -2.066  -3.246  0.00  0.00    +0.000 A 
ATOM     20  C   UNL     1      -6.545  -3.075  -2.498  0.00  0.00    +0.000 A 
ATOM     21  C   UNL     1      -5.543  -2.774  -1.598  0.00  0.00    +0.005 A 
ATOM     22  C   UNL     1      -5.114  -1.464  -1.439  0.00  0.00    -0.030 A 
ATOM     23  C   UNL     1      -4.021  -1.185  -0.441  0.00  0.00    +0.120 C 
ENDBRANCH   1  14
BRANCH   1  24
ATOM     24  C   UNL     1      -2.999   0.175   1.719  0.00  0.00    -0.062 C 
BRANCH  24  25
ATOM     25  N   UNL     1      -4.281   0.878   1.862  0.00  0.00    +0.379 N 
ATOM     26  H   UNL     1      -4.699   0.678   2.860  0.00  0.00    -0.090 HD
ATOM     27  H   UNL     1      -4.982   0.522   1.093  0.00  0.00    -0.090 HD
ATOM     28  H   UNL     1      -4.122   1.960   1.741  0.00  0.00    -0.090 HD
ENDBRANCH  24  25
ENDBRANCH   1  24
TORSDOF 5
