REMARK  Name = ZINC50055418
REMARK  7 active torsions:
REMARK  status: ('A' for Active; 'I' for Inactive)
REMARK    1  A    between atoms: C_4  and  N_11
REMARK    2  A    between atoms: C_5  and  C_7
REMARK    3  A    between atoms: C_7  and  C_8
REMARK    4  A    between atoms: N_14  and  C_15
REMARK    5  A    between atoms: C_15  and  C_16
REMARK    6  A    between atoms: N_21  and  C_23
REMARK    7  A    between atoms: C_23  and  C_24
REMARK                            x       y       z     vdW  Elec       q    Type
REMARK                         _______ _______ _______ _____ _____    ______ ____
ROOT
ATOM      1  N   UNL     1       3.622  -0.651  -0.036  0.00  0.00    -0.269 N 
ATOM      2  C   UNL     1       4.776   0.037  -0.146  0.00  0.00    +0.304 C 
ATOM      3  O   UNL     1       4.762   1.253  -0.139  0.00  0.00    -0.253 OA
ATOM      4  N   UNL     1       5.945  -0.623  -0.263  0.00  0.00    -0.299 N 
ATOM      5  H   UNL     1       3.638  -1.619   0.024  0.00  0.00    +0.156 HD
ATOM      6  H   UNL     1       5.956  -1.593  -0.268  0.00  0.00    +0.150 HD
ENDROOT
BRANCH   1  10
ATOM      7  C   UNL     1      -0.015   1.381   0.042  0.00  0.00    +0.000 A 
ATOM      8  C   UNL     1       1.104   1.945   0.627  0.00  0.00    +0.002 A 
ATOM      9  C   UNL     1       2.311   1.274   0.603  0.00  0.00    +0.023 A 
ATOM     10  C   UNL     1       2.400   0.031  -0.010  0.00  0.00    +0.038 A 
ATOM     11  C   UNL     1       1.275  -0.533  -0.597  0.00  0.00    -0.017 A 
ATOM     12  C   UNL     1       0.071   0.144  -0.570  0.00  0.00    +0.006 A 
BRANCH  11  13
ATOM     13  C   UNL     1       1.368  -1.881  -1.264  0.00  0.00    +0.132 C 
BRANCH  13  14
ATOM     14  C   UNL     1       1.195  -2.965  -0.231  0.00  0.00    +0.215 C 
ATOM     15  O   UNL     1       1.014  -2.671   0.931  0.00  0.00    -0.276 OA
ATOM     16  N   UNL     1       1.241  -4.260  -0.600  0.00  0.00    -0.329 N 
ATOM     17  H   UNL     1       1.386  -4.495  -1.530  0.00  0.00    +0.145 HD
ATOM     18  H   UNL     1       1.130  -4.958   0.064  0.00  0.00    +0.145 HD
ENDBRANCH  13  14
ENDBRANCH  11  13
ENDBRANCH   1  10
BRANCH   4  19
ATOM     19  C   UNL     1       7.199   0.125  -0.382  0.00  0.00    +0.107 C 
BRANCH  19  20
ATOM     20  C   UNL     1       8.368  -0.856  -0.499  0.00  0.00    -0.011 C 
ATOM     21  C   UNL     1       8.498  -1.656   0.800  0.00  0.00    +0.001 C 
ATOM     22  C   UNL     1       9.717  -2.577   0.701  0.00  0.00    -0.018 C 
ATOM     23  C   UNL     1      10.962  -1.737   0.411  0.00  0.00    -0.078 C 
ATOM     24  N   UNL     1      10.787  -1.017  -0.857  0.00  0.00    +0.383 N 
ATOM     25  C   UNL     1       9.663  -0.079  -0.746  0.00  0.00    -0.073 C 
ATOM     26  H   UNL     1      10.599  -1.679  -1.595  0.00  0.00    -0.081 HD
BRANCH  24  27
ATOM     27  C   UNL     1      12.014  -0.274  -1.170  0.00  0.00    -0.036 C 
BRANCH  27  28
ATOM     28  C   UNL     1      13.141  -1.244  -1.414  0.00  0.00    -0.027 A 
ATOM     29  C   UNL     1      13.538  -1.816  -2.577  0.00  0.00    +0.009 A 
ATOM     30  C   UNL     1      14.611  -2.687  -2.564  0.00  0.00    +0.008 A 
ATOM     31  C   UNL     1      15.235  -2.944  -1.388  0.00  0.00    +0.045 A 
ATOM     32  S   UNL     1      14.305  -1.933  -0.248  0.00  0.00    -0.103 S 
ENDBRANCH  27  28
ENDBRANCH  24  27
ENDBRANCH  19  20
ENDBRANCH   4  19
TORSDOF 7
