REMARK  Name = ZINC01036157
REMARK  7 active torsions:
REMARK  status: ('A' for Active; 'I' for Inactive)
REMARK    1  A    between atoms: C_1  and  C_2
REMARK    2  A    between atoms: C_5  and  N_8
REMARK    3  A    between atoms: N_12  and  N_16
REMARK    4  A    between atoms: C_17  and  C_19
REMARK    5  A    between atoms: C_20  and  N_30
REMARK    6  A    between atoms: C_22  and  C_29
REMARK    7  A    between atoms: C_24  and  C_28
REMARK                            x       y       z     vdW  Elec       q    Type
REMARK                         _______ _______ _______ _____ _____    ______ ____
ROOT
ATOM      1  N   UNL     1       1.348  -8.014   0.258  0.00  0.00    -0.227 N 
ATOM      2  C   UNL     1       0.725  -8.979   0.962  0.00  0.00    +0.269 C 
ATOM      3  O   UNL     1      -0.291  -8.721   1.582  0.00  0.00    -0.268 OA
ATOM      4  H   UNL     1       2.157  -8.220  -0.236  0.00  0.00    +0.173 HD
ENDROOT
BRANCH   2   5
ATOM      5  C   UNL     1       1.252 -10.295   0.980  0.00  0.00    +0.098 A 
ATOM      6  C   UNL     1       0.756 -11.404   1.631  0.00  0.00    +0.054 A 
ATOM      7  C   UNL     1       1.478 -12.660   1.500  0.00  0.00    +0.030 A 
ATOM      8  C   UNL     1       1.169 -13.921   2.068  0.00  0.00    -0.037 A 
ATOM      9  C   UNL     1       1.997 -14.989   1.812  0.00  0.00    +0.025 A 
ATOM     10  C   UNL     1       3.117 -14.831   1.009  0.00  0.00    +0.014 A 
ATOM     11  N   UNL     1       3.401 -13.656   0.482  0.00  0.00    -0.353 N 
ATOM     12  C   UNL     1       2.640 -12.605   0.698  0.00  0.00    +0.088 A 
ATOM     13  S   UNL     1       2.708 -10.914   0.161  0.00  0.00    -0.064 S 
ATOM     14  C   UNL     1       4.015 -16.010   0.738  0.00  0.00    +0.063 C 
ATOM     15  C   UNL     1      -0.048 -14.089   2.941  0.00  0.00    +0.044 C 
ATOM     16  H   UNL     1       4.189 -13.565  -0.076  0.00  0.00    +0.166 HD
BRANCH   6  17
ATOM     17  N   UNL     1      -0.401 -11.324   2.392  0.00  0.00    -0.356 N 
ATOM     18  H   UNL     1      -0.663 -10.479   2.789  0.00  0.00    +0.142 HD
ATOM     19  H   UNL     1      -0.949 -12.113   2.527  0.00  0.00    +0.142 HD
ENDBRANCH   6  17
ENDBRANCH   2   5
BRANCH   1  24
ATOM     20  N   UNL     1       0.218  -3.993   0.077  0.00  0.00    -0.261 N 
ATOM     21  C   UNL     1       0.468  -4.542   1.403  0.00  0.00    +0.211 C 
ATOM     22  C   UNL     1       0.986  -5.946   1.322  0.00  0.00    +0.250 C 
ATOM     23  O   UNL     1       1.572  -6.406   2.280  0.00  0.00    -0.272 OA
ATOM     24  N   UNL     1       0.828  -6.713   0.239  0.00  0.00    -0.210 N 
ATOM     25  C   UNL     1       0.139  -6.255  -0.960  0.00  0.00    +0.226 C 
ATOM     26  C   UNL     1       0.061  -4.759  -1.007  0.00  0.00    +0.239 C 
ATOM     27  O   UNL     1      -0.150  -4.221  -2.074  0.00  0.00    -0.273 OA
BRANCH  20  32
ATOM     28  C   UNL     1      -0.120   1.640  -0.507  0.00  0.00    +0.044 C 
ATOM     29  C   UNL     1      -0.030   0.143  -0.352  0.00  0.00    -0.050 A 
ATOM     30  C   UNL     1      -1.168  -0.591  -0.070  0.00  0.00    +0.005 A 
ATOM     31  C   UNL     1      -1.089  -1.962   0.073  0.00  0.00    +0.024 A 
ATOM     32  C   UNL     1       0.135  -2.604  -0.068  0.00  0.00    +0.037 A 
ATOM     33  C   UNL     1       1.275  -1.864  -0.352  0.00  0.00    +0.024 A 
ATOM     34  C   UNL     1       1.188  -0.493  -0.498  0.00  0.00    +0.005 A 
ENDBRANCH  20  32
ENDBRANCH   1  24
TORSDOF 4
