REMARK  Name = ZINC12370937
REMARK  10 active torsions:
REMARK  status: ('A' for Active; 'I' for Inactive)
REMARK    1  A    between atoms: C_1  and  O_2
REMARK    2  A    between atoms: O_2  and  C_3
REMARK    3  A    between atoms: C_6  and  N_9
REMARK    4  A    between atoms: N_16  and  N_17
REMARK    5  A    between atoms: C_18  and  C_19
REMARK    6  A    between atoms: C_23  and  O_26
REMARK    7  A    between atoms: C_24  and  O_25
REMARK    8  A    between atoms: O_26  and  C_27
REMARK    9  A    between atoms: N_28  and  C_29
REMARK   10  A    between atoms: C_32  and  N_35
REMARK                            x       y       z     vdW  Elec       q    Type
REMARK                         _______ _______ _______ _____ _____    ______ ____
ROOT
ATOM      1  N   UNL     1       2.939  -2.357   3.843  0.00  0.00    -0.283 N 
ATOM      2  C   UNL     1       3.001  -3.733   3.936  0.00  0.00    +0.225 A 
ATOM      3  N   UNL     1       3.539  -4.304   5.009  0.00  0.00    -0.181 NA
ATOM      4  C   UNL     1       3.599  -5.629   5.098  0.00  0.00    +0.225 A 
ATOM      5  N   UNL     1       3.120  -6.384   4.114  0.00  0.00    -0.179 NA
ATOM      6  C   UNL     1       2.582  -5.813   3.040  0.00  0.00    +0.241 A 
ATOM      7  N   UNL     1       2.517  -4.488   2.954  0.00  0.00    -0.179 NA
ATOM      8  N   UNL     1       2.085  -6.597   2.017  0.00  0.00    -0.205 N 
ATOM      9  N   UNL     1       4.158  -6.222   6.213  0.00  0.00    -0.283 N 
ATOM     10  H   UNL     1       2.428  -1.941   3.132  0.00  0.00    +0.155 HD
ATOM     11  H   UNL     1       2.195  -7.560   2.047  0.00  0.00    +0.177 HD
ATOM     12  H   UNL     1       4.393  -5.682   6.984  0.00  0.00    +0.155 HD
ENDROOT
BRANCH   1  16
ATOM     13  C   UNL     1       4.949   0.012   6.625  0.00  0.00    +0.120 A 
ATOM     14  C   UNL     1       4.670   0.512   5.361  0.00  0.00    +0.047 A 
ATOM     15  C   UNL     1       4.004  -0.272   4.439  0.00  0.00    +0.027 A 
ATOM     16  C   UNL     1       3.615  -1.561   4.777  0.00  0.00    +0.034 A 
ATOM     17  C   UNL     1       3.895  -2.061   6.042  0.00  0.00    +0.027 A 
ATOM     18  C   UNL     1       4.565  -1.278   6.961  0.00  0.00    +0.047 A 
BRANCH  13  20
ATOM     19  C   UNL     1       5.970   2.102   7.118  0.00  0.00    +0.277 C 
ATOM     20  O   UNL     1       5.605   0.784   7.532  0.00  0.00    -0.495 OA
ENDBRANCH  13  20
ENDBRANCH   1  16
BRANCH   9  21
ATOM     21  C   UNL     1       4.385  -7.602   6.232  0.00  0.00    +0.034 A 
ATOM     22  C   UNL     1       4.693  -8.273   5.055  0.00  0.00    +0.025 A 
ATOM     23  C   UNL     1       4.917  -9.635   5.077  0.00  0.00    +0.034 A 
ATOM     24  C   UNL     1       4.835 -10.332   6.268  0.00  0.00    +0.126 A 
ATOM     25  C   UNL     1       4.529  -9.668   7.442  0.00  0.00    +0.034 A 
ATOM     26  C   UNL     1       4.309  -8.304   7.428  0.00  0.00    +0.025 A 
BRANCH  24  27
ATOM     27  N   UNL     1       5.075 -11.793   6.288  0.00  0.00    +0.056 N 
ATOM     28  O   UNL     1       5.342 -12.375   5.263  0.00  0.00    -0.126 OA
ATOM     29  O   UNL     1       5.003 -12.403   7.329  0.00  0.00    -0.126 OA
ENDBRANCH  24  27
ENDBRANCH   9  21
BRANCH   8  30
ATOM     30  N   UNL     1       1.423  -6.000   0.936  0.00  0.00    -0.187 NA
ATOM     31  C   UNL     1       0.871  -6.741   0.025  0.00  0.00    +0.142 C 
BRANCH  31  32
ATOM     32  C   UNL     1       0.271  -6.117  -1.169  0.00  0.00    +0.040 A 
ATOM     33  C   UNL     1      -0.386  -6.905  -2.118  0.00  0.00    +0.013 A 
ATOM     34  C   UNL     1      -0.947  -6.318  -3.232  0.00  0.00    +0.004 A 
ATOM     35  C   UNL     1      -0.862  -4.949  -3.418  0.00  0.00    +0.049 A 
ATOM     36  C   UNL     1      -0.212  -4.155  -2.485  0.00  0.00    +0.162 A 
ATOM     37  C   UNL     1       0.352  -4.732  -1.354  0.00  0.00    +0.167 A 
BRANCH  37  38
ATOM     38  O   UNL     1       0.985  -3.956  -0.434  0.00  0.00    -0.503 OA
ATOM     39  H   UNL     1       1.910  -3.771  -0.646  0.00  0.00    +0.292 HD
ENDBRANCH  37  38
BRANCH  36  40
ATOM     40  O   UNL     1      -0.132  -2.811  -2.674  0.00  0.00    -0.491 OA
ATOM     41  C   UNL     1      -0.739  -2.284  -3.856  0.00  0.00    +0.277 C 
ENDBRANCH  36  40
ENDBRANCH  31  32
ENDBRANCH   8  30
TORSDOF 8
