REMARK  Name = ZINC03048166
REMARK  7 active torsions:
REMARK  status: ('A' for Active; 'I' for Inactive)
REMARK    1  A    between atoms: C_1  and  C_2
REMARK    2  A    between atoms: C_7  and  N_8
REMARK    3  A    between atoms: N_8  and  C_9
REMARK    4  A    between atoms: C_9  and  N_11
REMARK    5  A    between atoms: N_11  and  N_12
REMARK    6  A    between atoms: N_20  and  C_23
REMARK    7  A    between atoms: C_23  and  N_24
REMARK                            x       y       z     vdW  Elec       q    Type
REMARK                         _______ _______ _______ _____ _____    ______ ____
ROOT
ATOM      1  N   UNL     1      -0.153   1.392   4.760  0.00  0.00    -0.175 NA
ATOM      2  C   UNL     1      -0.247   2.030   5.902  0.00  0.00    +0.153 C 
ATOM      3  C   UNL     1      -0.267   3.496   6.118  0.00  0.00    +0.028 A 
ATOM      4  C   UNL     1      -0.199   4.586   5.258  0.00  0.00    +0.012 A 
ATOM      5  C   UNL     1      -0.243   5.867   5.771  0.00  0.00    +0.001 A 
ATOM      6  C   UNL     1      -0.355   6.063   7.138  0.00  0.00    +0.002 A 
ATOM      7  C   UNL     1      -0.424   4.988   7.999  0.00  0.00    +0.024 A 
ATOM      8  C   UNL     1      -0.381   3.690   7.501  0.00  0.00    +0.047 A 
ATOM      9  N   UNL     1      -0.431   2.454   8.136  0.00  0.00    -0.252 N 
ATOM     10  C   UNL     1      -0.362   1.444   7.252  0.00  0.00    +0.272 C 
ATOM     11  O   UNL     1      -0.388   0.257   7.517  0.00  0.00    -0.268 OA
ENDROOT
BRANCH   1  12
ATOM     12  N   UNL     1      -0.154  -0.009   4.738  0.00  0.00    -0.217 N 
ATOM     13  H   UNL     1      -0.225  -0.507   5.567  0.00  0.00    +0.176 HD
BRANCH  12  14
ATOM     14  C   UNL     1      -0.058  -0.664   3.564  0.00  0.00    +0.154 C 
ATOM     15  S   UNL     1      -0.059  -2.376   3.537  0.00  0.00    -0.017 S 
BRANCH  14  16
ATOM     16  N   UNL     1       0.041   0.028   2.412  0.00  0.00    -0.295 N 
ATOM     17  H   UNL     1       0.110   0.996   2.431  0.00  0.00    +0.154 HD
BRANCH  16  24
ATOM     18  C   UNL     1      -1.644   1.001   0.335  0.00  0.00    +0.045 C 
ATOM     19  C   UNL     1      -0.763  -0.207   0.147  0.00  0.00    -0.029 A 
ATOM     20  C   UNL     1      -0.754  -0.874  -1.062  0.00  0.00    +0.005 A 
ATOM     21  C   UNL     1       0.053  -1.983  -1.236  0.00  0.00    +0.000 A 
ATOM     22  C   UNL     1       0.854  -2.429  -0.200  0.00  0.00    +0.002 A 
ATOM     23  C   UNL     1       0.849  -1.766   1.012  0.00  0.00    +0.023 A 
ATOM     24  C   UNL     1       0.044  -0.648   1.188  0.00  0.00    +0.036 A 
ENDBRANCH  16  24
ENDBRANCH  14  16
ENDBRANCH  12  14
ENDBRANCH   1  12
BRANCH   9  25
ATOM     25  C   UNL     1      -0.549   2.275   9.585  0.00  0.00    +0.201 C 
BRANCH  25  26
ATOM     26  N   UNL     1      -1.969   2.213   9.956  0.00  0.00    -0.284 NA
ATOM     27  C   UNL     1      -2.551   3.559  10.041  0.00  0.00    +0.105 C 
ATOM     28  C   UNL     1      -4.065   3.446  10.250  0.00  0.00    +0.122 C 
ATOM     29  N   UNL     1      -4.312   2.587  11.418  0.00  0.00    -0.314 N 
ATOM     30  C   UNL     1      -3.651   1.274  11.469  0.00  0.00    +0.122 C 
ATOM     31  C   UNL     1      -2.153   1.473  11.212  0.00  0.00    +0.105 C 
ATOM     32  C   UNL     1      -5.148   3.005  12.447  0.00  0.00    +0.099 A 
ATOM     33  C   UNL     1      -5.866   4.189  12.314  0.00  0.00    +0.042 A 
ATOM     34  C   UNL     1      -6.695   4.593  13.345  0.00  0.00    +0.005 A 
ATOM     35  C   UNL     1      -6.779   3.796  14.479  0.00  0.00    +0.018 A 
ATOM     36  C   UNL     1      -6.038   2.633  14.544  0.00  0.00    +0.084 A 
ATOM     37  N   UNL     1      -5.260   2.269  13.542  0.00  0.00    -0.350 N 
ATOM     38  H   UNL     1      -4.753   1.445  13.612  0.00  0.00    +0.166 HD
ENDBRANCH  25  26
ENDBRANCH   9  25
TORSDOF 6
