REMARK  Name = ZINC30758213
REMARK  9 active torsions:
REMARK  status: ('A' for Active; 'I' for Inactive)
REMARK    1  A    between atoms: C_1  and  C_2
REMARK    2  A    between atoms: C_5  and  C_8
REMARK    3  A    between atoms: C_8  and  C_10
REMARK    4  A    between atoms: C_8  and  N_11
REMARK    5  A    between atoms: C_12  and  C_14
REMARK    6  A    between atoms: C_14  and  N_15
REMARK    7  A    between atoms: N_15  and  C_16
REMARK    8  A    between atoms: N_15  and  S_24
REMARK    9  A    between atoms: S_24  and  C_27
REMARK                            x       y       z     vdW  Elec       q    Type
REMARK                         _______ _______ _______ _____ _____    ______ ____
ROOT
ATOM      1  N   UNL     1      -1.020  -2.197   0.010  0.00  0.00    -0.194 N 
ENDROOT
BRANCH   1   2
ATOM      2  C   UNL     1      -0.804  -2.843  -1.211  0.00  0.00    +0.053 A 
ATOM      3  C   UNL     1      -1.135  -4.184  -1.357  0.00  0.00    +0.027 A 
ATOM      4  C   UNL     1      -0.924  -4.820  -2.565  0.00  0.00    +0.042 A 
ATOM      5  C   UNL     1      -0.374  -4.124  -3.628  0.00  0.00    +0.142 A 
ATOM      6  C   UNL     1      -0.038  -2.787  -3.484  0.00  0.00    +0.078 A 
ATOM      7  C   UNL     1      -0.252  -2.146  -2.278  0.00  0.00    +0.047 A 
ATOM      8 CL   UNL     1       0.651  -1.917  -4.819  0.00  0.00    -0.081 Cl
ATOM      9  F   UNL     1      -0.165  -4.749  -4.807  0.00  0.00    -0.204 F 
ENDBRANCH   1   2
BRANCH   1  10
ATOM     10  S   UNL     1      -0.318  -2.780   1.391  0.00  0.00    +0.075 S 
ATOM     11  O   UNL     1       0.741  -3.634   0.979  0.00  0.00    -0.150 OA
ATOM     12  O   UNL     1      -0.106  -1.662   2.242  0.00  0.00    -0.150 OA
BRANCH  10  13
ATOM     13  C   UNL     1      -1.509  -3.803   2.190  0.00  0.00    +0.109 A 
ATOM     14  C   UNL     1      -2.457  -3.239   3.023  0.00  0.00    +0.029 A 
ATOM     15  C   UNL     1      -3.395  -4.041   3.646  0.00  0.00    +0.002 A 
ATOM     16  C   UNL     1      -3.378  -5.408   3.444  0.00  0.00    +0.000 A 
ATOM     17  C   UNL     1      -2.427  -5.973   2.615  0.00  0.00    +0.002 A 
ATOM     18  C   UNL     1      -1.492  -5.170   1.988  0.00  0.00    +0.029 A 
ENDBRANCH  10  13
ENDBRANCH   1  10
BRANCH   1  19
ATOM     19  C   UNL     1      -1.869  -1.004   0.067  0.00  0.00    +0.227 C 
BRANCH  19  21
ATOM     20  N   UNL     1      -1.622   1.433  -0.277  0.00  0.00    -0.307 N 
ATOM     21  C   UNL     1      -1.047   0.214  -0.267  0.00  0.00    +0.233 C 
ATOM     22  O   UNL     1       0.132   0.097  -0.527  0.00  0.00    -0.274 OA
ATOM     23  H   UNL     1      -2.691   1.538  -0.041  0.00  0.00    +0.149 HD
BRANCH  20  24
ATOM     24  C   UNL     1      -0.823   2.617  -0.601  0.00  0.00    +0.100 C 
ATOM     25  C   UNL     1      -0.120   3.120   0.661  0.00  0.00    +0.033 C 
BRANCH  24  30
ATOM     26  C   UNL     1      -4.276   6.765  -2.666  0.00  0.00    +0.044 C 
ATOM     27  C   UNL     1      -3.376   5.683  -2.127  0.00  0.00    -0.050 A 
ATOM     28  C   UNL     1      -2.132   5.473  -2.694  0.00  0.00    +0.004 A 
ATOM     29  C   UNL     1      -1.306   4.481  -2.200  0.00  0.00    +0.006 A 
ATOM     30  C   UNL     1      -1.723   3.699  -1.140  0.00  0.00    -0.027 A 
ATOM     31  C   UNL     1      -2.969   3.905  -0.577  0.00  0.00    +0.006 A 
ATOM     32  C   UNL     1      -3.793   4.900  -1.067  0.00  0.00    +0.004 A 
ENDBRANCH  24  30
ENDBRANCH  20  24
ENDBRANCH  19  21
ENDBRANCH   1  19
TORSDOF 7
