REMARK  Name = ZINC10109397
REMARK  10 active torsions:
REMARK  status: ('A' for Active; 'I' for Inactive)
REMARK    1  A    between atoms: C_1  and  C_2
REMARK    2  A    between atoms: C_2  and  C_3
REMARK    3  A    between atoms: C_4  and  C_12
REMARK    4  A    between atoms: C_12  and  N_57
REMARK    5  A    between atoms: C_13  and  N_57
REMARK    6  A    between atoms: C_14  and  C_16
REMARK    7  A    between atoms: C_14  and  C_17
REMARK    8  A    between atoms: C_14  and  N_57
REMARK    9  A    between atoms: N_19  and  C_20
REMARK   10  A    between atoms: C_21  and  C_28
REMARK                            x       y       z     vdW  Elec       q    Type
REMARK                         _______ _______ _______ _____ _____    ______ ____
ROOT
ATOM      1  C   UNL     1      -1.803   2.255  -4.912  0.00  0.00    +0.016 C 
ATOM      2  C   UNL     1      -0.448   2.931  -5.136  0.00  0.00    -0.004 C 
ENDROOT
BRANCH   1   3
ATOM      3  C   UNL     1      -2.257   2.497  -3.496  0.00  0.00    +0.204 C 
ATOM      4  O   UNL     1      -3.300   3.079  -3.285  0.00  0.00    -0.277 OA
ATOM      5  N   UNL     1      -1.504   2.067  -2.463  0.00  0.00    -0.281 N 
ATOM      6  H   UNL     1      -0.670   1.602  -2.632  0.00  0.00    +0.155 HD
BRANCH   5   7
ATOM      7  C   UNL     1      -1.923   2.290  -1.160  0.00  0.00    +0.084 A 
ATOM      8  C   UNL     1      -1.294   1.929   0.019  0.00  0.00    +0.068 A 
ATOM      9  C   UNL     1      -1.949   2.292   1.275  0.00  0.00    -0.023 A 
ATOM     10  C   UNL     1      -3.116   2.947   1.141  0.00  0.00    -0.004 A 
ATOM     11  S   UNL     1      -3.359   3.086  -0.613  0.00  0.00    -0.077 S 
ATOM     12  C   UNL     1      -3.727   3.290   2.473  0.00  0.00    +0.043 C 
ATOM     13  C   UNL     1      -2.568   3.137   3.483  0.00  0.00    +0.010 C 
ATOM     14  C   UNL     1      -1.659   2.119   2.766  0.00  0.00    +0.037 C 
BRANCH   8  15
ATOM     15  C   UNL     1      -0.014   1.213   0.009  0.00  0.00    +0.244 C 
ATOM     16  O   UNL     1       0.002  -0.004   0.002  0.00  0.00    -0.270 OA
ATOM     17  N   UNL     1       1.143   1.903   0.001  0.00  0.00    -0.325 N 
ATOM     18  H   UNL     1       1.990   1.429  -0.009  0.00  0.00    +0.145 HD
ATOM     19  H   UNL     1       1.130   2.873   0.007  0.00  0.00    +0.145 HD
ENDBRANCH   8  15
ENDBRANCH   5   7
ENDBRANCH   1   3
BRANCH   1  21
ATOM     20  C   UNL     1      -2.842   4.279  -5.741  0.00  0.00    -0.095 C 
ATOM     21  N   UNL     1      -2.815   2.804  -5.838  0.00  0.00    +0.388 N 
ATOM     22  H   UNL     1      -3.738   2.437  -5.580  0.00  0.00    -0.081 HD
BRANCH  21  23
ATOM     23  C   UNL     1      -2.506   2.395  -7.224  0.00  0.00    -0.038 C 
BRANCH  23  25
ATOM     24  C   UNL     1      -4.738   2.032  -8.398  0.00  0.00    +0.107 A 
ATOM     25  C   UNL     1      -3.662   2.777  -8.113  0.00  0.00    -0.015 A 
ATOM     26  C   UNL     1      -3.832   4.038  -8.845  0.00  0.00    +0.022 A 
ATOM     27  C   UNL     1      -3.076   5.203  -8.970  0.00  0.00    +0.012 A 
ATOM     28  C   UNL     1      -3.530   6.225  -9.755  0.00  0.00    +0.001 A 
ATOM     29  C   UNL     1      -4.739   6.111 -10.428  0.00  0.00    +0.004 A 
ATOM     30  C   UNL     1      -5.500   4.967 -10.316  0.00  0.00    +0.047 A 
ATOM     31  C   UNL     1      -5.056   3.916  -9.523  0.00  0.00    +0.135 A 
ATOM     32  O   UNL     1      -5.561   2.703  -9.223  0.00  0.00    -0.459 OA
BRANCH  24  34
ATOM     33  C   UNL     1      -5.766   0.734  -6.552  0.00  0.00    +0.012 C 
ATOM     34  C   UNL     1      -4.991   0.644  -7.868  0.00  0.00    +0.071 C 
ENDBRANCH  24  34
ENDBRANCH  23  25
ENDBRANCH  21  23
ENDBRANCH   1  21
TORSDOF 7
