REMARK  Name = ZINC66939361
REMARK  9 active torsions:
REMARK  status: ('A' for Active; 'I' for Inactive)
REMARK    1  A    between atoms: C_1  and  C_2
REMARK    2  A    between atoms: N_5  and  C_11
REMARK    3  A    between atoms: C_7  and  C_10
REMARK    4  A    between atoms: C_11  and  C_12
REMARK    5  A    between atoms: C_15  and  C_18
REMARK    6  A    between atoms: C_18  and  N_19
REMARK    7  A    between atoms: N_19  and  C_20
REMARK    8  A    between atoms: C_20  and  C_22
REMARK    9  A    between atoms: C_20  and  C_29
REMARK                            x       y       z     vdW  Elec       q    Type
REMARK                         _______ _______ _______ _____ _____    ______ ____
ROOT
ATOM      1  C   UNL     1      -2.494  -8.290  -0.625  0.00  0.00    -0.045 C 
ENDROOT
BRANCH   1   5
ATOM      2  C   UNL     1      -2.696  -4.052  -0.132  0.00  0.00    -0.033 A 
ATOM      3  C   UNL     1      -2.676  -4.600  -1.401  0.00  0.00    +0.005 A 
ATOM      4  C   UNL     1      -2.611  -5.971  -1.560  0.00  0.00    +0.002 A 
ATOM      5  C   UNL     1      -2.564  -6.795  -0.451  0.00  0.00    -0.064 A 
ATOM      6  C   UNL     1      -2.583  -6.247   0.818  0.00  0.00    +0.002 A 
ATOM      7  C   UNL     1      -2.644  -4.875   0.977  0.00  0.00    +0.005 A 
BRANCH   2   8
ATOM      8  C   UNL     1      -2.768  -2.557   0.042  0.00  0.00    +0.119 C 
BRANCH   8  12
ATOM      9  C   UNL     1      -0.019   1.526   0.010  0.00  0.00    +0.039 C 
ATOM     10  C   UNL     1       0.002  -0.004   0.002  0.00  0.00    +0.130 C 
ATOM     11  C   UNL     1      -1.434  -0.535   0.015  0.00  0.00    +0.116 C 
ATOM     12  N   UNL     1      -1.407  -2.003   0.085  0.00  0.00    -0.293 NA
ATOM     13  C   UNL     1      -0.692  -2.455   1.287  0.00  0.00    +0.116 C 
ATOM     14  C   UNL     1       0.736  -1.905   1.261  0.00  0.00    +0.130 C 
ATOM     15  O   UNL     1       0.692  -0.479   1.161  0.00  0.00    -0.371 OA
ATOM     16  C   UNL     1       1.483  -2.478   0.055  0.00  0.00    +0.039 C 
ENDBRANCH   8  12
ENDBRANCH   2   8
ENDBRANCH   1   5
BRANCH   1  17
ATOM     17  N   UNL     1      -1.088  -8.710  -0.690  0.00  0.00    +0.392 N 
ATOM     18  H   UNL     1      -0.638  -8.259  -1.473  0.00  0.00    -0.084 HD
ATOM     19  H   UNL     1      -0.619  -8.448   0.164  0.00  0.00    -0.084 HD
BRANCH  17  20
ATOM     20  C   UNL     1      -1.019 -10.167  -0.860  0.00  0.00    +0.047 C 
BRANCH  20  21
ATOM     21  C   UNL     1       0.417 -10.584  -1.050  0.00  0.00    -0.053 A 
ATOM     22  C   UNL     1       1.414  -9.988  -0.300  0.00  0.00    +0.005 A 
ATOM     23  C   UNL     1       2.731 -10.370  -0.473  0.00  0.00    +0.038 A 
ATOM     24  C   UNL     1       3.052 -11.349  -1.397  0.00  0.00    +0.123 A 
ATOM     25  C   UNL     1       2.053 -11.945  -2.148  0.00  0.00    +0.038 A 
ATOM     26  C   UNL     1       0.736 -11.566  -1.970  0.00  0.00    +0.005 A 
ATOM     27  F   UNL     1       4.339 -11.722  -1.568  0.00  0.00    -0.205 F 
ENDBRANCH  20  21
BRANCH  20  28
ATOM     28  C   UNL     1      -1.580 -10.843   0.365  0.00  0.00    +0.201 C 
ATOM     29  O   UNL     1      -1.996 -10.175   1.288  0.00  0.00    -0.277 OA
ATOM     30  N   UNL     1      -1.619 -12.188   0.434  0.00  0.00    -0.330 N 
ATOM     31  H   UNL     1      -1.286 -12.722  -0.304  0.00  0.00    +0.145 HD
ATOM     32  H   UNL     1      -1.981 -12.623   1.222  0.00  0.00    +0.145 HD
ENDBRANCH  20  28
ENDBRANCH  17  20
ENDBRANCH   1  17
TORSDOF 7
