REMARK  Name = ZINC67000784
REMARK  9 active torsions:
REMARK  status: ('A' for Active; 'I' for Inactive)
REMARK    1  A    between atoms: C_1  and  N_2
REMARK    2  A    between atoms: N_2  and  C_3
REMARK    3  A    between atoms: N_2  and  C_4
REMARK    4  A    between atoms: C_4  and  C_5
REMARK    5  A    between atoms: C_9  and  N_11
REMARK    6  A    between atoms: C_12  and  C_14
REMARK    7  A    between atoms: N_16  and  C_17
REMARK    8  A    between atoms: C_17  and  C_18
REMARK    9  A    between atoms: C_18  and  O_28
REMARK                            x       y       z     vdW  Elec       q    Type
REMARK                         _______ _______ _______ _____ _____    ______ ____
ROOT
ATOM      1  C   UNL     1      -1.504  -7.183   3.135  0.00  0.00    +0.299 C 
ATOM      2  O   UNL     1      -1.477  -6.665   4.233  0.00  0.00    -0.265 OA
ATOM      3  N   UNL     1      -1.534  -8.525   3.024  0.00  0.00    -0.305 N 
ATOM      4  H   UNL     1      -1.555  -8.939   2.146  0.00  0.00    +0.149 HD
ENDROOT
BRANCH   1   6
ATOM      5  N   UNL     1      -1.474  -4.989   2.020  0.00  0.00    -0.278 N 
ATOM      6  C   UNL     1      -1.504  -6.331   1.908  0.00  0.00    +0.303 C 
ATOM      7  O   UNL     1      -1.530  -6.849   0.810  0.00  0.00    -0.265 OA
ATOM      8  H   UNL     1      -1.377  -4.576   2.892  0.00  0.00    +0.155 HD
BRANCH   5  13
ATOM      9  C   UNL     1      -1.023  -2.187  -0.316  0.00  0.00    -0.062 A 
ATOM     10  C   UNL     1      -1.798  -2.608  -1.382  0.00  0.00    +0.002 A 
ATOM     11  C   UNL     1      -2.464  -3.818  -1.321  0.00  0.00    +0.002 A 
ATOM     12  C   UNL     1      -2.359  -4.610  -0.194  0.00  0.00    +0.023 A 
ATOM     13  C   UNL     1      -1.582  -4.190   0.878  0.00  0.00    +0.034 A 
ATOM     14  C   UNL     1      -0.909  -2.976   0.811  0.00  0.00    +0.025 A 
BRANCH   9  15
ATOM     15  C   UNL     1      -0.298  -0.868  -0.388  0.00  0.00    -0.044 C 
BRANCH  15  17
ATOM     16  C   UNL     1       1.697   0.227  -1.147  0.00  0.00    -0.096 C 
ATOM     17  N   UNL     1       1.036  -1.073  -0.966  0.00  0.00    +0.379 N 
ATOM     18  C   UNL     1       1.838  -1.909  -0.063  0.00  0.00    -0.096 C 
ATOM     19  H   UNL     1       0.948  -1.533  -1.860  0.00  0.00    -0.082 HD
ENDBRANCH  15  17
ENDBRANCH   9  15
ENDBRANCH   5  13
ENDBRANCH   1   6
BRANCH   3  20
ATOM     20  C   UNL     1      -1.534  -9.361   4.227  0.00  0.00    +0.144 C 
BRANCH  20  21
ATOM     21  C   UNL     1      -1.502 -10.836   3.824  0.00  0.00    +0.107 C 
ATOM     22  C   UNL     1      -2.688 -11.134   2.908  0.00  0.00    +0.041 C 
ATOM     23  C   UNL     1      -2.764 -12.650   2.693  0.00  0.00    +0.008 C 
ATOM     24  C   UNL     1      -3.201 -13.301   4.004  0.00  0.00    +0.035 C 
ATOM     25  C   UNL     1      -2.339 -12.825   5.144  0.00  0.00    -0.041 A 
ATOM     26  C   UNL     1      -1.562 -11.691   5.063  0.00  0.00    -0.011 A 
ATOM     27  C   UNL     1      -0.795 -11.304   6.154  0.00  0.00    +0.007 A 
ATOM     28  C   UNL     1      -0.803 -12.047   7.316  0.00  0.00    +0.000 A 
ATOM     29  C   UNL     1      -1.580 -13.187   7.396  0.00  0.00    +0.000 A 
ATOM     30  C   UNL     1      -2.345 -13.573   6.314  0.00  0.00    +0.004 A 
BRANCH  21  31
ATOM     31  O   UNL     1      -0.287 -11.107   3.123  0.00  0.00    -0.382 OA
ATOM     32  H   UNL     1       0.512 -10.933   3.639  0.00  0.00    +0.211 HD
ENDBRANCH  21  31
ENDBRANCH  20  21
ENDBRANCH   3  20
TORSDOF 7
