REMARK  Name = ZINC49044031
REMARK  6 active torsions:
REMARK  status: ('A' for Active; 'I' for Inactive)
REMARK    1  A    between atoms: C_4  and  C_7
REMARK    2  A    between atoms: C_7  and  S_8
REMARK    3  A    between atoms: S_8  and  N_11
REMARK    4  A    between atoms: N_11  and  C_12
REMARK    5  A    between atoms: N_11  and  C_16
REMARK    6  A    between atoms: C_12  and  C_13
REMARK                            x       y       z     vdW  Elec       q    Type
REMARK                         _______ _______ _______ _____ _____    ______ ____
ROOT
ATOM      1  N   UNL     1       3.881  -2.716   3.768  0.00  0.00    -0.169 NA
ENDROOT
BRANCH   1   2
ATOM      2  C   UNL     1       5.344  -2.781   3.769  0.00  0.00    +0.076 C 
ATOM      3  C   UNL     1       5.794  -4.198   4.137  0.00  0.00    +0.001 C 
ATOM      4  C   UNL     1       7.322  -4.238   4.214  0.00  0.00    -0.081 C 
ATOM      5  N   UNL     1       7.789  -3.294   5.237  0.00  0.00    +0.379 N 
ATOM      6  C   UNL     1       7.423  -1.924   4.854  0.00  0.00    -0.081 C 
ATOM      7  C   UNL     1       5.899  -1.795   4.802  0.00  0.00    +0.001 C 
ATOM      8  H   UNL     1       7.361  -3.520   6.122  0.00  0.00    -0.086 HD
ATOM      9  H   UNL     1       8.792  -3.361   5.322  0.00  0.00    -0.086 HD
ENDBRANCH   1   2
BRANCH   1  10
ATOM     10  S   UNL     1       3.071  -2.294   2.386  0.00  0.00    +0.033 S 
ATOM     11  O   UNL     1       1.793  -2.900   2.515  0.00  0.00    -0.158 OA
ATOM     12  O   UNL     1       3.945  -2.662   1.328  0.00  0.00    -0.158 OA
BRANCH  10  13
ATOM     13  C   UNL     1       2.917  -0.488   2.470  0.00  0.00    +0.188 C 
BRANCH  13  17
ATOM     14  C   UNL     1      -0.019   1.526   0.010  0.00  0.00    +0.000 C 
ATOM     15  C   UNL     1       1.417   2.055  -0.000  0.00  0.00    +0.000 C 
ATOM     16  C   UNL     1       2.157   1.548   1.239  0.00  0.00    +0.005 C 
ATOM     17  C   UNL     1       2.178   0.019   1.231  0.00  0.00    +0.012 C 
ATOM     18  C   UNL     1       0.742  -0.511   1.242  0.00  0.00    +0.005 C 
ATOM     19  C   UNL     1       0.002  -0.004   0.002  0.00  0.00    +0.000 C 
ENDBRANCH  13  17
ENDBRANCH  10  13
ENDBRANCH   1  10
BRANCH   1  20
ATOM     20  C   UNL     1       3.133  -3.026   4.989  0.00  0.00    +0.204 C 
BRANCH  20  21
ATOM     21  C   UNL     1       2.923  -4.515   5.086  0.00  0.00    +0.226 C 
ATOM     22  O   UNL     1       3.356  -5.246   4.220  0.00  0.00    -0.275 OA
ATOM     23  N   UNL     1       2.255  -5.035   6.135  0.00  0.00    -0.328 N 
ATOM     24  H   UNL     1       1.909  -4.450   6.827  0.00  0.00    +0.145 HD
ATOM     25  H   UNL     1       2.120  -5.994   6.197  0.00  0.00    +0.145 HD
ENDBRANCH  20  21
ENDBRANCH   1  20
TORSDOF 6
