REMARK  Name = ZINC06023430
REMARK  10 active torsions:
REMARK  status: ('A' for Active; 'I' for Inactive)
REMARK    1  A    between atoms: C_1  and  C_2
REMARK    2  A    between atoms: C_2  and  C_3
REMARK    3  A    between atoms: C_3  and  C_4
REMARK    4  A    between atoms: C_4  and  N_5
REMARK    5  A    between atoms: N_14  and  C_15
REMARK    6  A    between atoms: C_15  and  C_16
REMARK    7  A    between atoms: C_21  and  N_22
REMARK    8  A    between atoms: N_22  and  S_23
REMARK    9  A    between atoms: S_23  and  C_26
REMARK   10  A    between atoms: C_29  and  C_32
REMARK                            x       y       z     vdW  Elec       q    Type
REMARK                         _______ _______ _______ _____ _____    ______ ____
ROOT
ATOM      1  C   UNL     1      -3.282  -2.684  -4.503  0.00  0.00    -0.008 A 
ATOM      2  C   UNL     1      -3.484  -1.423  -5.030  0.00  0.00    +0.007 A 
ATOM      3  C   UNL     1      -2.860  -1.057  -6.208  0.00  0.00    +0.000 A 
ATOM      4  C   UNL     1      -2.032  -1.950  -6.863  0.00  0.00    +0.002 A 
ATOM      5  C   UNL     1      -1.825  -3.212  -6.341  0.00  0.00    +0.025 A 
ATOM      6  C   UNL     1      -2.446  -3.582  -5.155  0.00  0.00    +0.053 A 
ENDROOT
BRANCH   6   7
ATOM      7  N   UNL     1      -2.236  -4.856  -4.622  0.00  0.00    -0.216 N 
ATOM      8  H   UNL     1      -2.957  -5.316  -4.165  0.00  0.00    +0.174 HD
BRANCH   7   9
ATOM      9  S   UNL     1      -0.754  -5.580  -4.771  0.00  0.00    +0.072 S 
ATOM     10  O   UNL     1      -0.815  -6.786  -4.021  0.00  0.00    -0.150 OA
ATOM     11  O   UNL     1      -0.429  -5.560  -6.154  0.00  0.00    -0.150 OA
BRANCH   9  12
ATOM     12  C   UNL     1       0.417  -4.542  -3.962  0.00  0.00    +0.109 A 
ATOM     13  C   UNL     1       1.058  -3.542  -4.669  0.00  0.00    +0.029 A 
ATOM     14  C   UNL     1       1.977  -2.727  -4.034  0.00  0.00    +0.005 A 
ATOM     15  C   UNL     1       2.255  -2.913  -2.693  0.00  0.00    -0.050 A 
ATOM     16  C   UNL     1       1.614  -3.913  -1.986  0.00  0.00    +0.005 A 
ATOM     17  C   UNL     1       0.691  -4.724  -2.619  0.00  0.00    +0.029 A 
ATOM     18  C   UNL     1       3.258  -2.026  -2.001  0.00  0.00    +0.044 C 
ENDBRANCH   9  12
ENDBRANCH   7   9
ENDBRANCH   6   7
BRANCH   1  19
ATOM     19  C   UNL     1      -3.963  -3.083  -3.220  0.00  0.00    +0.141 C 
BRANCH  19  29
ATOM     20  N   UNL     1      -2.629  -3.188   0.286  0.00  0.00    -0.313 N 
ATOM     21  C   UNL     1      -3.400  -3.578   1.369  0.00  0.00    +0.068 A 
ATOM     22  C   UNL     1      -3.158  -3.696   2.729  0.00  0.00    +0.028 A 
ATOM     23  C   UNL     1      -4.163  -4.124   3.571  0.00  0.00    +0.002 A 
ATOM     24  C   UNL     1      -5.416  -4.439   3.066  0.00  0.00    +0.002 A 
ATOM     25  C   UNL     1      -5.674  -4.328   1.718  0.00  0.00    +0.028 A 
ATOM     26  C   UNL     1      -4.667  -3.895   0.852  0.00  0.00    +0.065 A 
ATOM     27  N   UNL     1      -4.614  -3.689  -0.490  0.00  0.00    -0.327 N 
ATOM     28  C   UNL     1      -3.420  -3.268  -0.824  0.00  0.00    +0.174 A 
ATOM     29  N   UNL     1      -3.020  -2.956  -2.106  0.00  0.00    -0.312 N 
ATOM     30  H   UNL     1      -2.113  -2.652  -2.271  0.00  0.00    +0.149 HD
ATOM     31  H   UNL     1      -5.350  -3.829  -1.106  0.00  0.00    +0.169 HD
BRANCH  20  32
ATOM     32  C   UNL     1      -1.228  -2.762   0.326  0.00  0.00    +0.125 C 
BRANCH  32  33
ATOM     33  C   UNL     1      -1.160  -1.248   0.539  0.00  0.00    +0.021 C 
BRANCH  33  35
ATOM     34  C   UNL     1       0.371   0.710   0.794  0.00  0.00    +0.004 C 
ATOM     35  C   UNL     1       0.303  -0.804   0.580  0.00  0.00    -0.002 C 
ENDBRANCH  33  35
ENDBRANCH  32  33
ENDBRANCH  20  32
ENDBRANCH  19  29
ENDBRANCH   1  19
TORSDOF 8
