REMARK  Name = ZINC61368952
REMARK  8 active torsions:
REMARK  status: ('A' for Active; 'I' for Inactive)
REMARK    1  A    between atoms: C_1  and  C_2
REMARK    2  A    between atoms: C_2  and  C_4
REMARK    3  A    between atoms: C_2  and  N_9
REMARK    4  A    between atoms: N_9  and  S_10
REMARK    5  A    between atoms: S_10  and  C_13
REMARK    6  A    between atoms: C_16  and  C_19
REMARK    7  A    between atoms: C_19  and  C_20
REMARK    8  A    between atoms: C_20  and  N_21
REMARK                            x       y       z     vdW  Elec       q    Type
REMARK                         _______ _______ _______ _____ _____    ______ ____
ROOT
ATOM      1  S   UNL     1      -0.139  -0.902   2.549  0.00  0.00    +0.059 S 
ATOM      2  O   UNL     1       0.814  -1.354   3.502  0.00  0.00    -0.153 OA
ATOM      3  O   UNL     1      -1.030   0.173   2.814  0.00  0.00    -0.153 OA
ENDROOT
BRANCH   1   4
ATOM      4  C   UNL     1      -1.137  -2.294   2.137  0.00  0.00    +0.105 A 
ATOM      5  C   UNL     1      -2.413  -2.107   1.640  0.00  0.00    +0.029 A 
ATOM      6  C   UNL     1      -3.197  -3.199   1.317  0.00  0.00    +0.005 A 
ATOM      7  C   UNL     1      -2.704  -4.478   1.491  0.00  0.00    -0.049 A 
ATOM      8  C   UNL     1      -1.428  -4.666   1.987  0.00  0.00    +0.005 A 
ATOM      9  C   UNL     1      -0.643  -3.574   2.306  0.00  0.00    +0.029 A 
BRANCH   7  10
ATOM     10  C   UNL     1      -3.559  -5.669   1.139  0.00  0.00    +0.015 C 
BRANCH  10  11
ATOM     11  C   UNL     1      -3.323  -6.052  -0.323  0.00  0.00    -0.082 C 
BRANCH  11  12
ATOM     12  N   UNL     1      -4.156  -7.213  -0.665  0.00  0.00    +0.378 N 
ATOM     13  H   UNL     1      -3.911  -7.990  -0.070  0.00  0.00    -0.090 HD
ATOM     14  H   UNL     1      -5.128  -6.980  -0.532  0.00  0.00    -0.090 HD
ATOM     15  H   UNL     1      -4.000  -7.466  -1.630  0.00  0.00    -0.090 HD
ENDBRANCH  11  12
ENDBRANCH  10  11
ENDBRANCH   7  10
ENDBRANCH   1   4
BRANCH   1  16
ATOM     16  N   UNL     1       0.711  -0.489   1.189  0.00  0.00    -0.183 NA
ATOM     17  H   UNL     1       1.677  -0.569   1.178  0.00  0.00    +0.149 HD
BRANCH  16  19
ATOM     18  C   UNL     1      -0.019   1.526   0.010  0.00  0.00    +0.031 C 
ATOM     19  C   UNL     1       0.002  -0.004   0.002  0.00  0.00    +0.104 C 
BRANCH  19  20
ATOM     20  C   UNL     1       0.707  -0.490  -1.238  0.00  0.00    -0.022 A 
ATOM     21  C   UNL     1      -0.017  -0.918  -2.335  0.00  0.00    +0.013 A 
ATOM     22  C   UNL     1       0.649  -1.349  -3.434  0.00  0.00    +0.045 A 
ATOM     23  S   UNL     1       2.352  -1.156  -2.934  0.00  0.00    -0.105 S 
ATOM     24  C   UNL     1       2.062  -0.509  -1.296  0.00  0.00    +0.050 A 
ENDBRANCH  19  20
ENDBRANCH  16  19
ENDBRANCH   1  16
TORSDOF 7
