REMARK  Name = ZINC44892580
REMARK  5 active torsions:
REMARK  status: ('A' for Active; 'I' for Inactive)
REMARK    1  A    between atoms: C_1  and  C_2
REMARK    2  A    between atoms: C_2  and  C_4
REMARK    3  A    between atoms: C_2  and  N_14
REMARK    4  A    between atoms: C_7  and  S_10
REMARK    5  A    between atoms: S_10  and  N_13
REMARK                            x       y       z     vdW  Elec       q    Type
REMARK                         _______ _______ _______ _____ _____    ______ ____
ROOT
ATOM      1  C   UNL     1      -1.412  -0.526   0.013  0.00  0.00    -0.027 A 
ATOM      2  C   UNL     1      -2.123  -0.571   1.197  0.00  0.00    +0.007 A 
ATOM      3  C   UNL     1      -3.420  -1.049   1.207  0.00  0.00    +0.029 A 
ATOM      4  C   UNL     1      -4.006  -1.482   0.032  0.00  0.00    +0.105 A 
ATOM      5  C   UNL     1      -3.295  -1.436  -1.153  0.00  0.00    +0.029 A 
ATOM      6  C   UNL     1      -2.000  -0.954  -1.163  0.00  0.00    +0.007 A 
ENDROOT
BRANCH   4   7
ATOM      7  S   UNL     1      -5.658  -2.093   0.045  0.00  0.00    +0.056 S 
ATOM      8  O   UNL     1      -5.785  -2.944  -1.086  0.00  0.00    -0.153 OA
ATOM      9  O   UNL     1      -5.915  -2.542   1.369  0.00  0.00    -0.153 OA
BRANCH   7  10
ATOM     10  N   UNL     1      -6.660  -0.801  -0.219  0.00  0.00    -0.204 NA
ATOM     11  H   UNL     1      -6.286   0.085  -0.345  0.00  0.00    +0.144 HD
ATOM     12  H   UNL     1      -7.621  -0.931  -0.249  0.00  0.00    +0.144 HD
ENDBRANCH   7  10
ENDBRANCH   4   7
BRANCH   1  14
ATOM     13  C   UNL     1      -0.019   1.526   0.010  0.00  0.00    +0.033 C 
ATOM     14  C   UNL     1       0.002  -0.004   0.002  0.00  0.00    +0.102 C 
BRANCH  14  15
ATOM     15  N   UNL     1       0.711  -0.489   1.189  0.00  0.00    -0.293 N 
ATOM     16  C   UNL     1       2.054  -0.600   1.174  0.00  0.00    +0.303 C 
ATOM     17  O   UNL     1       2.677  -0.297   0.175  0.00  0.00    -0.253 OA
ATOM     18  N   UNL     1       2.706  -1.046   2.266  0.00  0.00    -0.286 N 
ATOM     19  C   UNL     1       2.078  -1.452   3.532  0.00  0.00    +0.109 C 
ATOM     20  C   UNL     1       3.213  -1.863   4.494  0.00  0.00    +0.020 C 
ATOM     21  C   UNL     1       4.448  -1.129   3.909  0.00  0.00    +0.020 C 
ATOM     22  C   UNL     1       4.165  -1.215   2.386  0.00  0.00    +0.109 C 
ATOM     23  H   UNL     1       0.213  -0.731   1.986  0.00  0.00    +0.151 HD
ENDBRANCH  14  15
ENDBRANCH   1  14
TORSDOF 4
