REMARK  Name = ZINC50441549
REMARK  7 active torsions:
REMARK  status: ('A' for Active; 'I' for Inactive)
REMARK    1  A    between atoms: C_2  and  N_20
REMARK    2  A    between atoms: C_5  and  O_8
REMARK    3  A    between atoms: O_8  and  C_9
REMARK    4  A    between atoms: C_9  and  C_10
REMARK    5  A    between atoms: C_10  and  C_12
REMARK    6  A    between atoms: C_10  and  N_15
REMARK    7  A    between atoms: N_15  and  C_16
REMARK                            x       y       z     vdW  Elec       q    Type
REMARK                         _______ _______ _______ _____ _____    ______ ____
ROOT
ATOM      1  C   UNL     1       1.259  -2.696   1.247  0.00  0.00    +0.222 C 
ENDROOT
BRANCH   1   2
ATOM      2  O   UNL     1       1.235  -2.039  -0.022  0.00  0.00    -0.491 OA
BRANCH   2   7
ATOM      3  C   UNL     1      -0.017   1.378   0.010  0.00  0.00    +0.051 A 
ATOM      4  C   UNL     1       1.170   2.087   0.002  0.00  0.00    +0.129 A 
ATOM      5  C   UNL     1       2.379   1.416  -0.013  0.00  0.00    +0.051 A 
ATOM      6  C   UNL     1       2.404   0.034  -0.021  0.00  0.00    +0.063 A 
ATOM      7  C   UNL     1       1.214  -0.680  -0.013  0.00  0.00    +0.148 A 
ATOM      8  C   UNL     1       0.002  -0.004   0.002  0.00  0.00    +0.063 A 
ATOM      9 BR   UNL     1      -1.622  -0.973   0.013  0.00  0.00    -0.046 Br
ATOM     10 BR   UNL     1       4.058  -0.883  -0.044  0.00  0.00    -0.046 Br
BRANCH   4  11
ATOM     11  N   UNL     1       1.147   3.567   0.010  0.00  0.00    +0.056 N 
ATOM     12  O   UNL     1       0.091   4.155   0.023  0.00  0.00    -0.126 OA
ATOM     13  O   UNL     1       2.184   4.188   0.004  0.00  0.00    -0.126 OA
ENDBRANCH   4  11
ENDBRANCH   2   7
ENDBRANCH   1   2
BRANCH   1  14
ATOM     14  C   UNL     1       1.280  -4.211   1.038  0.00  0.00    +0.054 C 
BRANCH  14  15
ATOM     15  C   UNL     1       0.114  -4.615   0.173  0.00  0.00    +0.200 C 
ATOM     16  O   UNL     1       0.309  -5.170  -0.888  0.00  0.00    -0.278 OA
ATOM     17  N   UNL     1      -1.146  -4.361   0.580  0.00  0.00    -0.331 N 
ATOM     18  H   UNL     1      -1.302  -3.918   1.428  0.00  0.00    +0.145 HD
ATOM     19  H   UNL     1      -1.897  -4.621   0.023  0.00  0.00    +0.145 HD
ENDBRANCH  14  15
BRANCH  14  20
ATOM     20  N   UNL     1       2.535  -4.596   0.378  0.00  0.00    +0.391 N 
ATOM     21  H   UNL     1       2.564  -4.198  -0.549  0.00  0.00    -0.084 HD
ATOM     22  H   UNL     1       3.317  -4.253   0.916  0.00  0.00    -0.084 HD
BRANCH  20  23
ATOM     23  C   UNL     1       2.610  -6.060   0.284  0.00  0.00    -0.071 C 
ATOM     24  C   UNL     1       3.737  -6.760   1.046  0.00  0.00    -0.017 C 
ATOM     25  C   UNL     1       3.792  -6.660  -0.480  0.00  0.00    -0.017 C 
ENDBRANCH  20  23
ENDBRANCH  14  20
ENDBRANCH   1  14
TORSDOF 7
