REMARK  Name = ZINC09076636
REMARK  4 active torsions:
REMARK  status: ('A' for Active; 'I' for Inactive)
REMARK    1  A    between atoms: C_8  and  C_28
REMARK    2  A    between atoms: C_11  and  C_12
REMARK    3  A    between atoms: C_11  and  N_47
REMARK    4  A    between atoms: C_18  and  C_23
REMARK                            x       y       z     vdW  Elec       q    Type
REMARK                         _______ _______ _______ _____ _____    ______ ____
ROOT
ATOM      1  C   UNL     1      -1.229   7.513  -0.367  0.00  0.00    -0.002 C 
ENDROOT
BRANCH   1  11
ATOM      2  C   UNL     1       0.131   1.349   0.844  0.00  0.00    +0.000 A 
ATOM      3  C   UNL     1       1.303   2.010   0.525  0.00  0.00    +0.000 A 
ATOM      4  C   UNL     1       1.265   3.341   0.162  0.00  0.00    +0.002 A 
ATOM      5  C   UNL     1       0.057   4.021   0.117  0.00  0.00    -0.061 A 
ATOM      6  C   UNL     1      -1.111   3.363   0.437  0.00  0.00    -0.047 A 
ATOM      7  C   UNL     1      -1.073   2.024   0.794  0.00  0.00    +0.004 A 
ATOM      8  C   UNL     1      -2.446   4.062   0.409  0.00  0.00    +0.029 C 
ATOM      9  C   UNL     1      -2.339   5.359  -0.393  0.00  0.00    +0.024 C 
ATOM     10  C   UNL     1       0.066   5.472  -0.289  0.00  0.00    -0.041 C 
ATOM     11  N   UNL     1      -1.187   6.120   0.132  0.00  0.00    +0.395 N 
ATOM     12  H   UNL     1      -1.232   6.131   1.158  0.00  0.00    -0.080 HD
BRANCH   9  13
ATOM     13  C   UNL     1      -3.598   6.170  -0.221  0.00  0.00    +0.197 C 
ATOM     14  O   UNL     1      -3.714   6.916   0.729  0.00  0.00    -0.278 OA
ATOM     15  N   UNL     1      -4.594   6.068  -1.122  0.00  0.00    -0.331 N 
ATOM     16  H   UNL     1      -4.501   5.472  -1.882  0.00  0.00    +0.145 HD
ATOM     17  H   UNL     1      -5.404   6.590  -1.012  0.00  0.00    +0.145 HD
ENDBRANCH   9  13
ENDBRANCH   1  11
BRANCH   1  18
ATOM     18  C   UNL     1      -1.237   7.529  -1.874  0.00  0.00    +0.094 A 
ATOM     19  N   UNL     1      -1.281   8.718  -2.529  0.00  0.00    -0.312 N 
ATOM     20  H   UNL     1      -1.307   9.542  -2.017  0.00  0.00    +0.170 HD
ATOM     21  C   UNL     1      -1.283   8.776  -3.873  0.00  0.00    +0.260 A 
ATOM     22  O   UNL     1      -1.319   9.851  -4.446  0.00  0.00    -0.267 OA
ATOM     23  C   UNL     1      -1.251   7.556  -4.620  0.00  0.00    +0.080 A 
ATOM     24  C   UNL     1      -1.252   7.358  -6.066  0.00  0.00    +0.010 A 
ATOM     25  C   UNL     1      -1.217   6.092  -6.550  0.00  0.00    +0.057 A 
ATOM     26  S   UNL     1      -1.179   5.088  -5.077  0.00  0.00    -0.076 S 
ATOM     27  C   UNL     1      -1.212   6.377  -3.858  0.00  0.00    +0.116 A 
ATOM     28  N   UNL     1      -1.206   6.399  -2.528  0.00  0.00    -0.229 NA
BRANCH  24  29
ATOM     29  C   UNL     1      -1.292   8.515  -6.984  0.00  0.00    +0.021 A 
ATOM     30  C   UNL     1      -0.490   8.791  -8.060  0.00  0.00    +0.016 A 
ATOM     31  C   UNL     1      -0.719   9.946  -8.777  0.00  0.00    +0.008 A 
ATOM     32  C   UNL     1      -1.726  10.772  -8.397  0.00  0.00    +0.046 A 
ATOM     33  S   UNL     1      -2.401   9.914  -6.985  0.00  0.00    -0.097 S 
ENDBRANCH  24  29
ENDBRANCH   1  18
TORSDOF 4
