REMARK  Name = ZINC32096964
REMARK  4 active torsions:
REMARK  status: ('A' for Active; 'I' for Inactive)
REMARK    1  A    between atoms: C_1  and  C_2
REMARK    2  A    between atoms: N_8  and  C_27
REMARK    3  A    between atoms: C_13  and  O_26
REMARK    4  A    between atoms: N_19  and  C_20
REMARK                            x       y       z     vdW  Elec       q    Type
REMARK                         _______ _______ _______ _____ _____    ______ ____
ROOT
ATOM      1  C   UNL     1      -0.534   1.484   0.108  0.00  0.00    +0.045 C 
ATOM      2  C   UNL     1      -0.445  -0.021   0.086  0.00  0.00    -0.029 A 
ATOM      3  C   UNL     1      -0.717  -0.743  -1.065  0.00  0.00    +0.005 A 
ATOM      4  C   UNL     1      -0.638  -2.120  -1.099  0.00  0.00    +0.001 A 
ATOM      5  C   UNL     1      -0.281  -2.853   0.029  0.00  0.00    +0.007 A 
ATOM      6  C   UNL     1      -0.010  -2.142   1.177  0.00  0.00    -0.006 A 
ATOM      7  C   UNL     1      -0.079  -0.743   1.222  0.00  0.00    +0.043 A 
ATOM      8  N   UNL     1       0.248  -0.286   2.487  0.00  0.00    -0.273 N 
ATOM      9  C   UNL     1       0.548  -1.297   3.329  0.00  0.00    +0.235 C 
ATOM     10  O   UNL     1       0.868  -1.196   4.494  0.00  0.00    -0.274 OA
ATOM     11  C   UNL     1       0.395  -2.583   2.546  0.00  0.00    +0.112 C 
ATOM     12  C   UNL     1       1.727  -3.330   2.519  0.00  0.00    +0.121 C 
ATOM     13  C   UNL     1       1.542  -4.771   2.139  0.00  0.00    +0.191 C 
ATOM     14  N   UNL     1       0.482  -5.462   2.437  0.00  0.00    -0.197 NA
ATOM     15  C   UNL     1      -0.553  -4.857   3.086  0.00  0.00    +0.164 A 
ATOM     16  C   UNL     1      -0.645  -3.472   3.168  0.00  0.00    +0.036 A 
ATOM     17  C   UNL     1      -1.791  -3.165   3.877  0.00  0.00    +0.142 A 
ATOM     18  N   UNL     1      -2.389  -4.287   4.208  0.00  0.00    -0.173 NA
ATOM     19  N   UNL     1      -1.636  -5.365   3.716  0.00  0.00    -0.214 N 
ATOM     20  C   UNL     1       0.268   1.129   2.866  0.00  0.00    +0.138 C 
ENDROOT
BRANCH  19  21
ATOM     21  C   UNL     1      -1.952  -6.723   3.852  0.00  0.00    +0.068 A 
ATOM     22  C   UNL     1      -1.642  -7.615   2.833  0.00  0.00    +0.028 A 
ATOM     23  C   UNL     1      -1.954  -8.953   2.970  0.00  0.00    +0.002 A 
ATOM     24  C   UNL     1      -2.574  -9.406   4.120  0.00  0.00    +0.000 A 
ATOM     25  C   UNL     1      -2.883  -8.521   5.136  0.00  0.00    +0.002 A 
ATOM     26  C   UNL     1      -2.569  -7.182   5.008  0.00  0.00    +0.028 A 
ENDBRANCH  19  21
BRANCH  13  27
ATOM     27  O   UNL     1       2.529  -5.382   1.452  0.00  0.00    -0.495 OA
ATOM     28  H   UNL     1       2.346  -6.308   1.240  0.00  0.00    +0.293 HD
ENDBRANCH  13  27
TORSDOF 2
