REMARK  Name = ZINC39289884
REMARK  6 active torsions:
REMARK  status: ('A' for Active; 'I' for Inactive)
REMARK    1  A    between atoms: C_1  and  O_2
REMARK    2  A    between atoms: O_2  and  C_3
REMARK    3  A    between atoms: C_11  and  C_14
REMARK    4  A    between atoms: C_16  and  O_22
REMARK    5  A    between atoms: C_17  and  O_21
REMARK    6  A    between atoms: C_18  and  O_20
REMARK                            x       y       z     vdW  Elec       q    Type
REMARK                         _______ _______ _______ _____ _____    ______ ____
ROOT
ATOM      1  C   UNL     1       0.605  -0.606  -1.054  0.00  0.00    +0.124 A 
ATOM      2  C   UNL     1       1.172   0.173  -2.061  0.00  0.00    +0.046 A 
ATOM      3  C   UNL     1       1.785  -0.420  -3.128  0.00  0.00    +0.019 A 
ATOM      4  C   UNL     1       1.841  -1.812  -3.207  0.00  0.00    +0.065 A 
ATOM      5  C   UNL     1       1.267  -2.608  -2.200  0.00  0.00    +0.142 A 
ATOM      6  C   UNL     1       0.655  -1.988  -1.118  0.00  0.00    +0.092 A 
ATOM      7  O   UNL     1       1.310  -3.951  -2.288  0.00  0.00    -0.462 OA
ATOM      8  C   UNL     1       2.131  -4.575  -3.136  0.00  0.00    +0.208 A 
ATOM      9  C   UNL     1       2.745  -3.938  -4.167  0.00  0.00    +0.065 A 
ATOM     10  C   UNL     1       2.501  -2.493  -4.338  0.00  0.00    +0.200 A 
ATOM     11  O   UNL     1       2.823  -1.898  -5.351  0.00  0.00    -0.286 OA
ENDROOT
BRANCH   9  12
ATOM     12  C   UNL     1       3.637  -4.674  -5.095  0.00  0.00    -0.004 A 
ATOM     13  C   UNL     1       4.997  -4.373  -5.142  0.00  0.00    +0.058 A 
ATOM     14  C   UNL     1       5.828  -5.062  -6.009  0.00  0.00    +0.163 A 
ATOM     15  C   UNL     1       5.307  -6.054  -6.832  0.00  0.00    +0.201 A 
ATOM     16  C   UNL     1       3.950  -6.355  -6.787  0.00  0.00    +0.163 A 
ATOM     17  C   UNL     1       3.117  -5.673  -5.917  0.00  0.00    +0.058 A 
BRANCH  16  18
ATOM     18  O   UNL     1       3.442  -7.325  -7.594  0.00  0.00    -0.503 OA
ATOM     19  H   UNL     1       3.451  -8.208  -7.200  0.00  0.00    +0.292 HD
ENDBRANCH  16  18
BRANCH  15  20
ATOM     20  O   UNL     1       6.126  -6.730  -7.684  0.00  0.00    -0.501 OA
ATOM     21  H   UNL     1       6.518  -7.527  -7.303  0.00  0.00    +0.292 HD
ENDBRANCH  15  20
BRANCH  14  22
ATOM     22  O   UNL     1       7.155  -4.768  -6.055  0.00  0.00    -0.503 OA
ATOM     23  H   UNL     1       7.694  -5.285  -5.441  0.00  0.00    +0.292 HD
ENDBRANCH  14  22
ENDBRANCH   9  12
BRANCH   1  25
ATOM     24  C   UNL     1      -0.017   1.425   0.010  0.00  0.00    +0.277 C 
ATOM     25  O   UNL     1       0.002  -0.004   0.002  0.00  0.00    -0.495 OA
ENDBRANCH   1  25
TORSDOF 5
