REMARK  Name = ZINC50639317
REMARK  10 active torsions:
REMARK  status: ('A' for Active; 'I' for Inactive)
REMARK    1  A    between atoms: C_1  and  C_2
REMARK    2  A    between atoms: C_2  and  N_3
REMARK    3  A    between atoms: N_3  and  C_4
REMARK    4  A    between atoms: N_3  and  C_6
REMARK    5  A    between atoms: C_4  and  C_5
REMARK    6  A    between atoms: C_6  and  C_7
REMARK    7  A    between atoms: C_7  and  N_8
REMARK    8  A    between atoms: N_8  and  S_9
REMARK    9  A    between atoms: S_9  and  C_12
REMARK   10  A    between atoms: C_13  and  N_20
REMARK                            x       y       z     vdW  Elec       q    Type
REMARK                         _______ _______ _______ _____ _____    ______ ____
ROOT
ATOM      1  S   UNL     1      -4.309  -4.899   0.470  0.00  0.00    +0.078 S 
ATOM      2  O   UNL     1      -3.979  -6.278   0.566  0.00  0.00    -0.152 OA
ATOM      3  O   UNL     1      -4.976  -4.202   1.514  0.00  0.00    -0.152 OA
ENDROOT
BRANCH   1   4
ATOM      4  C   UNL     1      -5.304  -4.718  -0.972  0.00  0.00    +0.220 A 
ATOM      5  C   UNL     1      -6.185  -3.726  -1.213  0.00  0.00    +0.163 A 
ATOM      6  N   UNL     1      -6.743  -3.940  -2.417  0.00  0.00    -0.205 NA
ATOM      7  C   UNL     1      -6.240  -5.027  -2.930  0.00  0.00    +0.181 A 
ATOM      8  N   UNL     1      -5.319  -5.573  -2.078  0.00  0.00    -0.276 N 
ATOM      9  C   UNL     1      -4.695  -6.730  -2.490  0.00  0.00    +0.102 A 
ATOM     10  C   UNL     1      -4.985  -7.278  -3.670  0.00  0.00    +0.067 A 
ATOM     11  S   UNL     1      -6.221  -6.155  -4.304  0.00  0.00    -0.058 S 
BRANCH   5  12
ATOM     12  N   UNL     1      -6.470  -2.653  -0.354  0.00  0.00    -0.340 N 
ATOM     13  H   UNL     1      -6.015  -2.581   0.500  0.00  0.00    +0.144 HD
ATOM     14  H   UNL     1      -7.123  -1.984  -0.614  0.00  0.00    +0.144 HD
ENDBRANCH   5  12
ENDBRANCH   1   4
BRANCH   1  15
ATOM     15  N   UNL     1      -2.890  -4.091   0.192  0.00  0.00    -0.190 NA
ATOM     16  H   UNL     1      -2.055  -4.582   0.143  0.00  0.00    +0.148 HD
BRANCH  15  17
ATOM     17  C   UNL     1      -2.898  -2.637   0.019  0.00  0.00    +0.087 C 
BRANCH  17  18
ATOM     18  C   UNL     1      -1.471  -2.100   0.151  0.00  0.00    -0.062 C 
BRANCH  18  19
ATOM     19  N   UNL     1      -1.460  -0.661  -0.143  0.00  0.00    +0.380 N 
ATOM     20  H   UNL     1      -1.870  -0.499  -1.050  0.00  0.00    -0.082 HD
BRANCH  19  22
ATOM     21  C   UNL     1      -2.331   1.534   0.507  0.00  0.00    -0.017 C 
ATOM     22  C   UNL     1      -2.237   0.053   0.879  0.00  0.00    -0.082 C 
ENDBRANCH  19  22
BRANCH  19  23
ATOM     23  C   UNL     1      -0.076  -0.170  -0.136  0.00  0.00    -0.082 C 
ATOM     24  C   UNL     1       0.693  -0.797  -1.302  0.00  0.00    -0.017 C 
ENDBRANCH  19  23
ENDBRANCH  18  19
ENDBRANCH  17  18
ENDBRANCH  15  17
ENDBRANCH   1  15
TORSDOF 8
