REMARK  Name = ZINC12310004
REMARK  11 active torsions:
REMARK  status: ('A' for Active; 'I' for Inactive)
REMARK    1  A    between atoms: C_1  and  C_2
REMARK    2  A    between atoms: C_2  and  C_3
REMARK    3  A    between atoms: C_2  and  C_4
REMARK    4  A    between atoms: C_10  and  N_11
REMARK    5  A    between atoms: N_11  and  O_12
REMARK    6  A    between atoms: O_12  and  C_13
REMARK    7  A    between atoms: C_13  and  C_14
REMARK    8  A    between atoms: N_16  and  C_17
REMARK    9  A    between atoms: C_19  and  C_24
REMARK   10  A    between atoms: N_30  and  C_35
REMARK   11  A    between atoms: N_33  and  C_34
REMARK                            x       y       z     vdW  Elec       q    Type
REMARK                         _______ _______ _______ _____ _____    ______ ____
ROOT
ATOM      1  N   UNL     1      -1.051   6.133   0.221  0.00  0.00    -0.264 N 
ATOM      2  H   UNL     1      -1.153   7.085  -0.321  0.00  0.00    +0.194 HD
ENDROOT
BRANCH   1   9
ATOM      3  C   UNL     1       1.274   5.932  -0.487  0.00  0.00    -0.003 A 
ATOM      4  C   UNL     1       2.377   5.169  -0.429  0.00  0.00    +0.090 A 
ATOM      5  N   UNL     1       2.354   3.903   0.092  0.00  0.00    -0.347 N 
ATOM      6  H   UNL     1       3.297   3.394   0.341  0.00  0.00    +0.167 HD
ATOM      7  C   UNL     1       1.191   3.237   0.320  0.00  0.00    +0.129 A 
ATOM      8  C   UNL     1      -0.017   3.927   0.303  0.00  0.00    +0.106 A 
ATOM      9  C   UNL     1       0.005   5.376   0.024  0.00  0.00    +0.082 A 
ATOM     10  C   UNL     1      -1.222   3.229   0.550  0.00  0.00    +0.268 A 
ATOM     11  O   UNL     1      -2.290   3.813   0.543  0.00  0.00    -0.267 OA
ATOM     12  N   UNL     1      -1.165   1.900   0.788  0.00  0.00    -0.263 N 
ATOM     13  C   UNL     1       0.013   1.254   0.801  0.00  0.00    +0.333 A 
ATOM     14  O   UNL     1       0.028   0.059   1.022  0.00  0.00    -0.246 OA
ATOM     15  N   UNL     1       1.177   1.889   0.572  0.00  0.00    -0.282 N 
ATOM     16  C   UNL     1       2.435   1.138   0.593  0.00  0.00    +0.155 C 
ATOM     17  C   UNL     1      -2.402   1.156   1.040  0.00  0.00    +0.157 C 
BRANCH   3  19
ATOM     18  C   UNL     1       1.531   8.334   0.072  0.00  0.00    +0.012 C 
ATOM     19  C   UNL     1       1.329   7.325  -1.060  0.00  0.00    +0.016 C 
ATOM     20  C   UNL     1       2.494   7.424  -2.046  0.00  0.00    +0.012 C 
ENDBRANCH   3  19
ENDBRANCH   1   9
BRANCH   1  21
ATOM     21  O   UNL     1      -2.056   5.724   1.130  0.00  0.00    -0.265 OA
BRANCH  21  22
ATOM     22  C   UNL     1      -3.145   6.642   1.245  0.00  0.00    +0.288 C 
BRANCH  22  23
ATOM     23  C   UNL     1      -4.150   6.109   2.233  0.00  0.00    +0.246 C 
ATOM     24  O   UNL     1      -3.953   5.047   2.785  0.00  0.00    -0.273 OA
ATOM     25  N   UNL     1      -5.267   6.812   2.504  0.00  0.00    -0.282 N 
ATOM     26  H   UNL     1      -5.490   7.729   1.939  0.00  0.00    +0.155 HD
BRANCH  25  27
ATOM     27  C   UNL     1      -6.144   6.375   3.503  0.00  0.00    +0.052 A 
ATOM     28  C   UNL     1      -5.678   5.570   4.534  0.00  0.00    +0.037 A 
ATOM     29  C   UNL     1      -6.545   5.145   5.522  0.00  0.00    +0.057 A 
ATOM     30  C   UNL     1      -7.878   5.511   5.480  0.00  0.00    +0.014 A 
ATOM     31  C   UNL     1      -8.347   6.308   4.452  0.00  0.00    +0.022 A 
ATOM     32  C   UNL     1      -7.484   6.742   3.464  0.00  0.00    +0.062 A 
ATOM     33 CL   UNL     1      -8.073   7.744   2.174  0.00  0.00    -0.082 Cl
BRANCH  29  34
ATOM     34  C   UNL     1      -6.038   4.275   6.644  0.00  0.00    +0.417 C 
ATOM     35  F   UNL     1      -7.094   3.970   7.511  0.00  0.00    -0.166 F 
ATOM     36  F   UNL     1      -5.512   3.091   6.115  0.00  0.00    -0.166 F 
ATOM     37  F   UNL     1      -5.039   4.957   7.347  0.00  0.00    -0.166 F 
ENDBRANCH  29  34
ENDBRANCH  25  27
ENDBRANCH  22  23
ENDBRANCH  21  22
ENDBRANCH   1  21
TORSDOF 7
