REMARK  Name = ZINC22932049
REMARK  9 active torsions:
REMARK  status: ('A' for Active; 'I' for Inactive)
REMARK    1  A    between atoms: C_1  and  C_2
REMARK    2  A    between atoms: C_4  and  N_26
REMARK    3  A    between atoms: C_9  and  N_12
REMARK    4  A    between atoms: N_14  and  C_15
REMARK    5  A    between atoms: C_15  and  C_16
REMARK    6  A    between atoms: C_16  and  C_17
REMARK    7  A    between atoms: C_17  and  N_18
REMARK    8  A    between atoms: N_21  and  C_24
REMARK    9  A    between atoms: N_29  and  C_32
REMARK                            x       y       z     vdW  Elec       q    Type
REMARK                         _______ _______ _______ _____ _____    ______ ____
ROOT
ATOM      1  C   UNL     1       2.025   0.028   0.168  0.00  0.00    +0.044 C 
ATOM      2  C   UNL     1       1.858  -1.421   0.547  0.00  0.00    -0.038 A 
ATOM      3  C   UNL     1       2.275  -2.414  -0.288  0.00  0.00    +0.047 A 
ATOM      4  C   UNL     1       2.110  -3.755   0.086  0.00  0.00    +0.122 A 
ATOM      5  N   UNL     1       1.557  -4.088   1.234  0.00  0.00    -0.232 NA
ATOM      6  C   UNL     1       1.129  -3.156   2.095  0.00  0.00    +0.073 A 
ATOM      7  C   UNL     1       1.273  -1.784   1.778  0.00  0.00    +0.005 A 
ATOM      8  C   UNL     1       0.829  -0.810   2.685  0.00  0.00    +0.033 A 
ATOM      9  C   UNL     1       0.262  -1.204   3.878  0.00  0.00    +0.033 A 
ATOM     10  C   UNL     1       0.128  -2.562   4.188  0.00  0.00    +0.025 A 
ATOM     11  C   UNL     1       0.540  -3.522   3.318  0.00  0.00    +0.030 A 
ENDROOT
BRANCH   4  12
ATOM     12  N   UNL     1       2.539  -4.756  -0.775  0.00  0.00    -0.319 N 
ATOM     13  C   UNL     1       2.595  -6.159  -0.335  0.00  0.00    +0.088 C 
ATOM     14  C   UNL     1       1.872  -7.022  -1.374  0.00  0.00    -0.060 C 
ATOM     15  N   UNL     1       2.452  -6.779  -2.701  0.00  0.00    +0.380 N 
ATOM     16  C   UNL     1       2.210  -5.389  -3.105  0.00  0.00    -0.060 C 
ATOM     17  C   UNL     1       2.944  -4.445  -2.154  0.00  0.00    +0.088 C 
ATOM     18  C   UNL     1       1.835  -7.686  -3.677  0.00  0.00    -0.096 C 
ATOM     19  H   UNL     1       3.446  -6.950  -2.668  0.00  0.00    -0.082 HD
ENDBRANCH   4  12
BRANCH   9  20
ATOM     20  N   UNL     1      -0.183  -0.237   4.787  0.00  0.00    -0.295 N 
ATOM     21  C   UNL     1      -1.283  -0.482   5.563  0.00  0.00    +0.143 C 
ATOM     22  N   UNL     1      -1.436   0.166   6.756  0.00  0.00    -0.367 N 
ATOM     23  S   UNL     1      -2.432  -1.567   5.054  0.00  0.00    -0.016 SA
ATOM     24  H   UNL     1       0.289   0.607   4.867  0.00  0.00    +0.154 HD
ATOM     25  H   UNL     1      -0.764   0.800   7.053  0.00  0.00    +0.161 HD
BRANCH  22  26
ATOM     26  C   UNL     1      -2.614  -0.097   7.587  0.00  0.00    +0.116 C 
BRANCH  26  27
ATOM     27  C   UNL     1      -2.540   0.751   8.858  0.00  0.00    +0.036 C 
BRANCH  27  28
ATOM     28  C   UNL     1      -3.771   0.477   9.725  0.00  0.00    +0.086 C 
BRANCH  28  29
ATOM     29  N   UNL     1      -3.700   1.291  10.946  0.00  0.00    -0.306 NA
ATOM     30  C   UNL     1      -2.578   0.869  11.797  0.00  0.00    +0.066 C 
ATOM     31  C   UNL     1      -2.504   1.778  13.026  0.00  0.00    -0.064 C 
ATOM     32  N   UNL     1      -3.765   1.695  13.773  0.00  0.00    +0.379 N 
ATOM     33  C   UNL     1      -4.873   2.142  12.919  0.00  0.00    -0.064 C 
ATOM     34  C   UNL     1      -4.967   1.237  11.689  0.00  0.00    +0.066 C 
ATOM     35  C   UNL     1      -3.687   2.554  14.963  0.00  0.00    -0.096 C 
ATOM     36  H   UNL     1      -3.925   0.740  14.058  0.00  0.00    -0.082 HD
ENDBRANCH  28  29
ENDBRANCH  27  28
ENDBRANCH  26  27
ENDBRANCH  22  26
ENDBRANCH   9  20
TORSDOF 6
