REMARK  Name = ZINC66981514
REMARK  8 active torsions:
REMARK  status: ('A' for Active; 'I' for Inactive)
REMARK    1  A    between atoms: C_1  and  C_2
REMARK    2  A    between atoms: N_8  and  C_9
REMARK    3  A    between atoms: C_9  and  C_11
REMARK    4  A    between atoms: C_9  and  C_12
REMARK    5  A    between atoms: C_12  and  N_13
REMARK    6  A    between atoms: N_16  and  C_17
REMARK    7  A    between atoms: C_19  and  N_25
REMARK    8  A    between atoms: C_26  and  C_28
REMARK                            x       y       z     vdW  Elec       q    Type
REMARK                         _______ _______ _______ _____ _____    ______ ____
ROOT
ATOM      1  N   UNL     1      -0.598   1.914   0.613  0.00  0.00    -0.301 N 
ATOM      2  C   UNL     1      -0.988   3.176   0.345  0.00  0.00    +0.304 C 
ATOM      3  O   UNL     1      -0.729   4.071   1.127  0.00  0.00    -0.253 OA
ATOM      4  N   UNL     1      -1.665   3.446  -0.789  0.00  0.00    -0.267 N 
ATOM      5  H   UNL     1      -0.740   1.213  -0.043  0.00  0.00    +0.150 HD
ATOM      6  H   UNL     1      -1.954   2.722  -1.366  0.00  0.00    +0.156 HD
ENDROOT
BRANCH   4   7
ATOM      7  C   UNL     1      -1.950   4.774  -1.135  0.00  0.00    +0.072 A 
ATOM      8  C   UNL     1      -1.258   5.814  -0.530  0.00  0.00    +0.052 A 
ATOM      9  C   UNL     1      -1.542   7.127  -0.875  0.00  0.00    +0.071 A 
ATOM     10  C   UNL     1      -2.520   7.399  -1.826  0.00  0.00    +0.147 A 
ATOM     11  C   UNL     1      -3.210   6.361  -2.427  0.00  0.00    +0.080 A 
ATOM     12  C   UNL     1      -2.923   5.051  -2.089  0.00  0.00    +0.147 A 
ATOM     13  F   UNL     1      -3.594   4.039  -2.682  0.00  0.00    -0.203 F 
ATOM     14  F   UNL     1      -2.798   8.678  -2.162  0.00  0.00    -0.203 F 
BRANCH   9  15
ATOM     15  N   UNL     1      -0.845   8.178  -0.266  0.00  0.00    -0.283 N 
ATOM     16  C   UNL     1       0.417   7.988   0.168  0.00  0.00    +0.214 C 
ATOM     17  O   UNL     1       0.984   6.940  -0.058  0.00  0.00    -0.276 OA
ATOM     18  C   UNL     1       1.123   9.078   0.933  0.00  0.00    +0.109 C 
ATOM     19  H   UNL     1      -1.270   9.043  -0.155  0.00  0.00    +0.155 HD
ENDBRANCH   9  15
ENDBRANCH   4   7
BRANCH   1  20
ATOM     20  C   UNL     1       0.039   1.600   1.894  0.00  0.00    +0.090 C 
BRANCH  20  21
ATOM     21  C   UNL     1       0.278   0.092   1.989  0.00  0.00    -0.054 C 
ATOM     22  C   UNL     1       1.040  -0.223   3.277  0.00  0.00    -0.012 C 
BRANCH  21  29
ATOM     23  C   UNL     1      -0.269  -2.405   0.828  0.00  0.00    -0.013 C 
ATOM     24  C   UNL     1       1.144  -1.819   0.831  0.00  0.00    -0.071 C 
ATOM     25  C   UNL     1       1.894  -2.292  -0.417  0.00  0.00    -0.016 C 
ATOM     26  C   UNL     1       3.308  -1.703  -0.409  0.00  0.00    -0.003 C 
ATOM     27  C   UNL     1       3.214  -0.176  -0.332  0.00  0.00    -0.019 C 
ATOM     28  C   UNL     1       2.415   0.218   0.912  0.00  0.00    -0.078 C 
ATOM     29  N   UNL     1       1.065  -0.353   0.832  0.00  0.00    +0.384 N 
ATOM     30  H   UNL     1       0.619  -0.041  -0.017  0.00  0.00    -0.081 HD
ENDBRANCH  21  29
ENDBRANCH  20  21
ENDBRANCH   1  20
TORSDOF 5
