REMARK  Name = ZINC65387766
REMARK  2 active torsions:
REMARK  status: ('A' for Active; 'I' for Inactive)
REMARK    1  A    between atoms: C_4  and  C_7
REMARK    2  A    between atoms: C_11  and  C_13
REMARK                            x       y       z     vdW  Elec       q    Type
REMARK                         _______ _______ _______ _____ _____    ______ ____
ROOT
ATOM      1  C   UNL     1       1.906  -2.543  -2.892  0.00  0.00    +0.035 C 
ATOM      2  C   UNL     1       2.151  -4.053  -3.053  0.00  0.00    +0.102 C 
ATOM      3  C   UNL     1       2.875  -4.547  -1.840  0.00  0.00    +0.213 C 
ATOM      4  O   UNL     1       4.076  -4.686  -1.941  0.00  0.00    -0.276 OA
ATOM      5  N   UNL     1       2.344  -4.843  -0.680  0.00  0.00    -0.313 N 
ATOM      6  C   UNL     1       0.941  -4.617  -0.393  0.00  0.00    +0.132 C 
ATOM      7  C   UNL     1       0.275  -3.566  -1.216  0.00  0.00    +0.145 C 
ATOM      8  C   UNL     1       1.149  -2.371  -1.569  0.00  0.00    +0.110 C 
ATOM      9  N   UNL     1       0.167  -1.278  -1.650  0.00  0.00    -0.287 N 
ATOM     10  C   UNL     1       0.197  -0.071  -2.275  0.00  0.00    +0.077 C 
ATOM     11  C   UNL     1      -0.798   0.824  -2.095  0.00  0.00    +0.015 C 
ATOM     12  C   UNL     1      -1.882   0.512  -1.255  0.00  0.00    +0.005 C 
ATOM     13  C   UNL     1      -1.956  -0.711  -0.674  0.00  0.00    +0.043 C 
ATOM     14  C   UNL     1      -0.935  -1.667  -0.920  0.00  0.00    +0.121 C 
ATOM     15  N   UNL     1      -0.896  -2.952  -0.584  0.00  0.00    -0.262 NA
ATOM     16  H   UNL     1       2.908  -5.227   0.010  0.00  0.00    +0.149 HD
ENDROOT
BRANCH   1  21
ATOM     17  C   UNL     1       4.080  -2.110  -4.058  0.00  0.00    +0.053 C 
ATOM     18  N   UNL     1       5.157  -2.668  -3.614  0.00  0.00    -0.158 NA
ATOM     19  N   UNL     1       5.162  -2.785  -2.228  0.00  0.00    -0.161 NA
ATOM     20  C   UNL     1       4.089  -2.309  -1.689  0.00  0.00    +0.117 C 
ATOM     21  C   UNL     1       3.240  -1.797  -2.836  0.00  0.00    +0.084 C 
BRANCH  17  25
ATOM     22  C   UNL     1       3.374  -2.722  -8.261  0.00  0.00    +0.000 C 
ATOM     23  C   UNL     1       4.576  -1.871  -7.848  0.00  0.00    +0.001 C 
ATOM     24  C   UNL     1       4.929  -2.163  -6.388  0.00  0.00    +0.009 C 
ATOM     25  C   UNL     1       3.733  -1.823  -5.496  0.00  0.00    +0.036 C 
ATOM     26  C   UNL     1       2.530  -2.673  -5.910  0.00  0.00    +0.009 C 
ATOM     27  C   UNL     1       2.178  -2.381  -7.370  0.00  0.00    +0.001 C 
ENDBRANCH  17  25
ENDBRANCH   1  21
TORSDOF 2
