REMARK  Name = ZINC34747107
REMARK  4 active torsions:
REMARK  status: ('A' for Active; 'I' for Inactive)
REMARK    1  A    between atoms: C_1  and  C_2
REMARK    2  A    between atoms: C_2  and  N_3
REMARK    3  A    between atoms: N_22  and  C_23
REMARK    4  A    between atoms: C_23  and  C_24
REMARK                            x       y       z     vdW  Elec       q    Type
REMARK                         _______ _______ _______ _____ _____    ______ ____
ROOT
ATOM      1  N   UNL     1      -2.547   0.384   0.180  0.00  0.00    +0.382 N 
ATOM      2  C   UNL     1      -3.970   0.088   0.389  0.00  0.00    -0.060 C 
ATOM      3  C   UNL     1      -4.178  -1.430   0.397  0.00  0.00    +0.089 C 
ATOM      4  N   UNL     1      -3.619  -1.984  -0.846  0.00  0.00    -0.304 N 
ATOM      5  C   UNL     1      -2.247  -1.605  -1.218  0.00  0.00    +0.089 C 
ATOM      6  C   UNL     1      -2.129  -0.079  -1.149  0.00  0.00    -0.060 C 
ATOM      7  C   UNL     1      -4.355  -2.832  -1.635  0.00  0.00    +0.202 A 
ATOM      8  N   UNL     1      -5.120  -2.334  -2.585  0.00  0.00    -0.208 NA
ATOM      9  C   UNL     1      -5.843  -3.131  -3.363  0.00  0.00    +0.117 A 
ATOM     10  C   UNL     1      -5.832  -4.528  -3.218  0.00  0.00    +0.076 A 
ATOM     11  C   UNL     1      -6.681  -5.274  -4.149  0.00  0.00    -0.023 A 
ATOM     12  C   UNL     1      -7.384  -4.555  -5.047  0.00  0.00    -0.004 A 
ATOM     13  S   UNL     1      -6.965  -2.865  -4.713  0.00  0.00    -0.073 S 
ATOM     14  C   UNL     1      -8.317  -5.076  -6.097  0.00  0.00    +0.043 C 
ATOM     15  C   UNL     1      -8.079  -6.585  -6.251  0.00  0.00    +0.005 C 
ATOM     16  C   UNL     1      -8.049  -7.223  -4.859  0.00  0.00    +0.005 C 
ATOM     17  C   UNL     1      -6.780  -6.797  -4.119  0.00  0.00    +0.037 C 
ATOM     18  C   UNL     1      -4.992  -5.040  -2.179  0.00  0.00    +0.264 A 
ATOM     19  O   UNL     1      -4.918  -6.240  -1.978  0.00  0.00    -0.267 OA
ATOM     20  N   UNL     1      -4.281  -4.178  -1.429  0.00  0.00    -0.271 N 
ATOM     21  H   UNL     1      -2.000  -0.086   0.886  0.00  0.00    -0.082 HD
ENDROOT
BRANCH   1  23
ATOM     22  C   UNL     1      -2.647   2.298   1.705  0.00  0.00    -0.017 C 
ATOM     23  C   UNL     1      -2.330   1.834   0.282  0.00  0.00    -0.082 C 
ENDBRANCH   1  23
BRANCH  20  24
ATOM     24  C   UNL     1      -3.415  -4.695  -0.366  0.00  0.00    +0.223 C 
BRANCH  24  25
ATOM     25  C   UNL     1      -4.220  -4.873   0.895  0.00  0.00    +0.230 C 
ATOM     26  O   UNL     1      -5.401  -4.595   0.906  0.00  0.00    -0.274 OA
ATOM     27  N   UNL     1      -3.628  -5.341   2.012  0.00  0.00    -0.328 N 
ATOM     28  H   UNL     1      -2.684  -5.563   2.004  0.00  0.00    +0.145 HD
ATOM     29  H   UNL     1      -4.146  -5.456   2.824  0.00  0.00    +0.145 HD
ENDBRANCH  24  25
ENDBRANCH  20  24
TORSDOF 3
