REMARK  Name = ZINC52872114
REMARK  15 active torsions:
REMARK  status: ('A' for Active; 'I' for Inactive)
REMARK    1  A    between atoms: C_1  and  C_2
REMARK    2  A    between atoms: C_2  and  C_3
REMARK    3  A    between atoms: C_2  and  C_4
REMARK    4  A    between atoms: C_4  and  C_5
REMARK    5  A    between atoms: C_5  and  N_6
REMARK    6  A    between atoms: N_6  and  C_7
REMARK    7  A    between atoms: N_6  and  C_12
REMARK    8  A    between atoms: C_7  and  C_8
REMARK    9  A    between atoms: C_8  and  C_9
REMARK   10  A    between atoms: C_9  and  C_10
REMARK   11  A    between atoms: C_9  and  C_11
REMARK   12  A    between atoms: C_12  and  C_13
REMARK   13  A    between atoms: N_15  and  C_16
REMARK   14  A    between atoms: C_19  and  S_22
REMARK   15  A    between atoms: S_22  and  N_25
REMARK                            x       y       z     vdW  Elec       q    Type
REMARK                         _______ _______ _______ _____ _____    ______ ____
ROOT
ATOM      1  C   UNL     1      -1.585  -1.361   4.474  0.00  0.00    +0.201 C 
ATOM      2  O   UNL     1      -1.720  -1.940   3.417  0.00  0.00    -0.278 OA
ATOM      3  N   UNL     1      -2.569  -1.397   5.394  0.00  0.00    -0.287 N 
ATOM      4  H   UNL     1      -2.493  -0.873   6.207  0.00  0.00    +0.155 HD
ENDROOT
BRANCH   3   5
ATOM      5  C   UNL     1      -3.701  -2.191   5.176  0.00  0.00    +0.033 A 
ATOM      6  C   UNL     1      -3.582  -3.405   4.513  0.00  0.00    +0.025 A 
ATOM      7  C   UNL     1      -4.701  -4.187   4.300  0.00  0.00    +0.030 A 
ATOM      8  C   UNL     1      -5.938  -3.761   4.747  0.00  0.00    +0.105 A 
ATOM      9  C   UNL     1      -6.060  -2.553   5.408  0.00  0.00    +0.030 A 
ATOM     10  C   UNL     1      -4.944  -1.770   5.629  0.00  0.00    +0.025 A 
BRANCH   8  11
ATOM     11  S   UNL     1      -7.363  -4.761   4.473  0.00  0.00    +0.056 S 
ATOM     12  O   UNL     1      -8.484  -3.888   4.505  0.00  0.00    -0.153 OA
ATOM     13  O   UNL     1      -7.072  -5.586   3.353  0.00  0.00    -0.153 OA
BRANCH  11  14
ATOM     14  N   UNL     1      -7.512  -5.770   5.777  0.00  0.00    -0.204 NA
ATOM     15  H   UNL     1      -6.867  -5.725   6.501  0.00  0.00    +0.144 HD
ATOM     16  H   UNL     1      -8.243  -6.406   5.818  0.00  0.00    +0.144 HD
ENDBRANCH  11  14
ENDBRANCH   8  11
ENDBRANCH   3   5
BRANCH   1  17
ATOM     17  C   UNL     1      -0.316  -0.600   4.759  0.00  0.00    +0.019 C 
BRANCH  17  18
ATOM     18  N   UNL     1       0.591  -0.713   3.609  0.00  0.00    +0.385 N 
ATOM     19  H   UNL     1       0.746  -1.687   3.396  0.00  0.00    -0.081 HD
BRANCH  18  20
ATOM     20  C   UNL     1      -0.008  -0.047   2.445  0.00  0.00    -0.078 C 
BRANCH  20  21
ATOM     21  C   UNL     1       0.864  -0.292   1.212  0.00  0.00    -0.016 C 
BRANCH  21  23
ATOM     22  C   UNL     1       0.082   1.810   0.111  0.00  0.00    +0.007 C 
ATOM     23  C   UNL     1       0.174   0.289  -0.024  0.00  0.00    -0.019 C 
ATOM     24  C   UNL     1       0.984  -0.064  -1.274  0.00  0.00    +0.007 C 
ENDBRANCH  21  23
ENDBRANCH  20  21
ENDBRANCH  18  20
BRANCH  18  25
ATOM     25  C   UNL     1       1.874  -0.073   3.932  0.00  0.00    -0.078 C 
BRANCH  25  26
ATOM     26  C   UNL     1       2.566  -0.855   5.050  0.00  0.00    -0.016 C 
BRANCH  26  27
ATOM     27  C   UNL     1       3.957  -0.268   5.297  0.00  0.00    -0.019 C 
ATOM     28  C   UNL     1       3.821   1.161   5.826  0.00  0.00    +0.007 C 
ATOM     29  C   UNL     1       4.697  -1.125   6.326  0.00  0.00    +0.007 C 
ENDBRANCH  26  27
ENDBRANCH  25  26
ENDBRANCH  18  25
ENDBRANCH  17  18
ENDBRANCH   1  17
TORSDOF 11
