REMARK  Name = ZINC09390348
REMARK  7 active torsions:
REMARK  status: ('A' for Active; 'I' for Inactive)
REMARK    1  A    between atoms: C_1  and  C_2
REMARK    2  A    between atoms: C_5  and  N_8
REMARK    3  A    between atoms: C_9  and  C_11
REMARK    4  A    between atoms: C_11  and  C_13
REMARK    5  A    between atoms: C_11  and  N_55
REMARK    6  A    between atoms: C_19  and  C_20
REMARK    7  A    between atoms: C_19  and  N_55
REMARK                            x       y       z     vdW  Elec       q    Type
REMARK                         _______ _______ _______ _____ _____    ______ ____
ROOT
ATOM      1  C   UNL     1      -2.569   4.140   0.252  0.00  0.00    +0.048 C 
ENDROOT
BRANCH   1   2
ATOM      2  C   UNL     1      -3.414   3.862  -0.965  0.00  0.00    -0.053 A 
ATOM      3  C   UNL     1      -3.185   4.556  -2.138  0.00  0.00    +0.002 A 
ATOM      4  C   UNL     1      -3.958   4.298  -3.255  0.00  0.00    +0.000 A 
ATOM      5  C   UNL     1      -4.965   3.353  -3.196  0.00  0.00    +0.000 A 
ATOM      6  C   UNL     1      -5.196   2.663  -2.021  0.00  0.00    +0.000 A 
ATOM      7  C   UNL     1      -4.421   2.917  -0.905  0.00  0.00    +0.002 A 
ENDBRANCH   1   2
BRANCH   1   9
ATOM      8  N   UNL     1      -1.237   2.069   0.019  0.00  0.00    -0.287 N 
ATOM      9  C   UNL     1      -1.255   3.412   0.128  0.00  0.00    +0.207 C 
ATOM     10  O   UNL     1      -0.215   4.035   0.127  0.00  0.00    -0.277 OA
ATOM     11  H   UNL     1      -2.070   1.577  -0.047  0.00  0.00    +0.155 HD
BRANCH   8  16
ATOM     12  C   UNL     1       3.707  -0.712  -0.068  0.00  0.00    +0.044 C 
ATOM     13  C   UNL     1       2.394   0.028  -0.043  0.00  0.00    -0.050 A 
ATOM     14  C   UNL     1       1.294  -0.540   0.572  0.00  0.00    +0.005 A 
ATOM     15  C   UNL     1       0.089   0.135   0.596  0.00  0.00    +0.023 A 
ATOM     16  C   UNL     1      -0.017   1.385   0.002  0.00  0.00    +0.033 A 
ATOM     17  C   UNL     1       1.091   1.953  -0.615  0.00  0.00    +0.023 A 
ATOM     18  C   UNL     1       2.292   1.273  -0.635  0.00  0.00    +0.005 A 
ENDBRANCH   8  16
ENDBRANCH   1   9
BRANCH   1  19
ATOM     19  N   UNL     1      -2.312   5.590   0.352  0.00  0.00    +0.392 N 
ATOM     20  H   UNL     1      -2.216   5.982  -0.592  0.00  0.00    -0.084 HD
ATOM     21  H   UNL     1      -1.443   5.744   0.877  0.00  0.00    -0.084 HD
BRANCH  19  22
ATOM     22  C   UNL     1      -3.426   6.261   1.047  0.00  0.00    -0.045 C 
BRANCH  22  23
ATOM     23  C   UNL     1      -3.137   7.737   1.135  0.00  0.00    -0.059 A 
ATOM     24  C   UNL     1      -2.456   8.242   2.229  0.00  0.00    +0.051 A 
ATOM     25  C   UNL     1      -2.187   9.598   2.303  0.00  0.00    +0.164 A 
ATOM     26  C   UNL     1      -2.608  10.448   1.290  0.00  0.00    +0.180 A 
ATOM     27  C   UNL     1      -3.294   9.940   0.199  0.00  0.00    +0.086 A 
ATOM     28  C   UNL     1      -3.556   8.582   0.125  0.00  0.00    +0.025 A 
ATOM     29 CL   UNL     1      -3.820  11.000  -1.071  0.00  0.00    -0.080 Cl
ATOM     30  O   UNL     1      -2.344  11.784   1.377  0.00  0.00    -0.487 OA
ATOM     31  C   UNL     1      -0.969  12.157   1.261  0.00  0.00    +0.232 C 
ATOM     32  C   UNL     1      -0.265  12.044   2.603  0.00  0.00    +0.082 C 
ATOM     33  C   UNL     1      -0.201  10.610   3.105  0.00  0.00    +0.232 C 
ATOM     34  O   UNL     1      -1.512  10.109   3.374  0.00  0.00    -0.488 OA
ENDBRANCH  22  23
ENDBRANCH  19  22
ENDBRANCH   1  19
TORSDOF 6
