REMARK  Name = ZINC36309422
REMARK  15 active torsions:
REMARK  status: ('A' for Active; 'I' for Inactive)
REMARK    1  A    between atoms: C_1  and  C_2
REMARK    2  A    between atoms: C_2  and  C_3
REMARK    3  A    between atoms: C_3  and  C_4
REMARK    4  A    between atoms: C_4  and  C_6
REMARK    5  A    between atoms: C_4  and  O_34
REMARK    6  A    between atoms: C_6  and  N_7
REMARK    7  A    between atoms: N_7  and  C_8
REMARK    8  A    between atoms: N_7  and  C_11
REMARK    9  A    between atoms: C_8  and  C_9
REMARK   10  A    between atoms: C_11  and  C_12
REMARK   11  A    between atoms: C_22  and  C_24
REMARK   12  A    between atoms: C_24  and  O_25
REMARK   13  A    between atoms: O_25  and  C_26
REMARK   14  A    between atoms: C_29  and  C_33
REMARK   15  A    between atoms: C_31  and  C_32
REMARK                            x       y       z     vdW  Elec       q    Type
REMARK                         _______ _______ _______ _____ _____    ______ ____
ROOT
ATOM      1  C   UNL     1       3.360  -6.213  -2.311  0.00  0.00    +0.200 C 
ATOM      2  O   UNL     1       2.748  -6.513  -1.308  0.00  0.00    -0.278 OA
ATOM      3  N   UNL     1       4.387  -6.980  -2.728  0.00  0.00    -0.292 N 
ATOM      4  C   UNL     1       5.140  -6.622  -3.940  0.00  0.00    +0.113 C 
ATOM      5  C   UNL     1       6.582  -6.285  -3.531  0.00  0.00    +0.061 C 
ATOM      6  C   UNL     1       7.046  -7.296  -2.534  0.00  0.00    -0.004 A 
ATOM      7  C   UNL     1       6.289  -8.164  -1.808  0.00  0.00    -0.014 A 
ATOM      8  C   UNL     1       6.970  -9.008  -0.932  0.00  0.00    +0.013 A 
ATOM      9  C   UNL     1       8.318  -8.941  -0.840  0.00  0.00    +0.046 A 
ATOM     10  S   UNL     1       8.704  -7.652  -2.015  0.00  0.00    -0.101 S 
ATOM     11  C   UNL     1       4.775  -8.180  -1.976  0.00  0.00    +0.144 C 
ENDROOT
BRANCH   1  12
ATOM     12  C   UNL     1       2.972  -4.984  -3.091  0.00  0.00    +0.019 C 
BRANCH  12  13
ATOM     13  N   UNL     1       1.823  -4.336  -2.444  0.00  0.00    +0.389 N 
ATOM     14  H   UNL     1       2.025  -4.191  -1.466  0.00  0.00    -0.081 HD
BRANCH  13  15
ATOM     15  C   UNL     1       1.563  -3.042  -3.089  0.00  0.00    -0.046 C 
BRANCH  15  16
ATOM     16  C   UNL     1       0.474  -2.296  -2.315  0.00  0.00    +0.098 C 
BRANCH  16  17
ATOM     17  O   UNL     1      -0.767  -2.993  -2.449  0.00  0.00    -0.394 OA
ATOM     18  H   UNL     1      -1.073  -3.079  -3.362  0.00  0.00    +0.210 HD
ENDBRANCH  16  17
BRANCH  16  19
ATOM     19  C   UNL     1       0.327  -0.881  -2.877  0.00  0.00    +0.029 C 
BRANCH  19  21
ATOM     20  C   UNL     1      -0.819   1.320  -2.588  0.00  0.00    +0.004 C 
ATOM     21  C   UNL     1      -0.673  -0.095  -2.026  0.00  0.00    -0.001 C 
ENDBRANCH  19  21
ENDBRANCH  16  19
ENDBRANCH  15  16
ENDBRANCH  13  15
BRANCH  13  22
ATOM     22  C   UNL     1       0.638  -5.195  -2.576  0.00  0.00    -0.051 C 
BRANCH  22  23
ATOM     23  C   UNL     1       0.244  -5.288  -4.028  0.00  0.00    -0.053 C 
ATOM     24  C   UNL     1       0.159  -6.458  -4.610  0.00  0.00    +0.002 C 
ENDBRANCH  22  23
ENDBRANCH  13  22
ENDBRANCH  12  13
ENDBRANCH   1  12
BRANCH  11  25
ATOM     25  C   UNL     1       4.357  -9.433  -2.748  0.00  0.00    +0.256 C 
BRANCH  25  26
ATOM     26  O   UNL     1       5.091  -9.505  -3.972  0.00  0.00    -0.490 OA
BRANCH  26  27
ATOM     27  C   UNL     1       4.837 -10.566  -4.782  0.00  0.00    +0.124 A 
ATOM     28  C   UNL     1       3.897 -11.516  -4.410  0.00  0.00    +0.046 A 
ATOM     29  C   UNL     1       3.640 -12.593  -5.235  0.00  0.00    +0.007 A 
ATOM     30  C   UNL     1       4.320 -12.726  -6.432  0.00  0.00    -0.050 A 
ATOM     31  C   UNL     1       5.258 -11.782  -6.805  0.00  0.00    +0.010 A 
ATOM     32  C   UNL     1       5.514 -10.699  -5.986  0.00  0.00    -0.009 A 
ATOM     33  C   UNL     1       6.532  -9.667  -6.396  0.00  0.00    +0.047 C 
ATOM     34  C   UNL     1       4.039 -13.903  -7.330  0.00  0.00    +0.044 C 
ENDBRANCH  26  27
ENDBRANCH  25  26
ENDBRANCH  11  25
TORSDOF 12
