REMARK  Name = ZINC05649814
REMARK  7 active torsions:
REMARK  status: ('A' for Active; 'I' for Inactive)
REMARK    1  A    between atoms: C_5  and  C_7
REMARK    2  A    between atoms: C_7  and  C_9
REMARK    3  A    between atoms: C_7  and  N_19
REMARK    4  A    between atoms: C_10  and  O_18
REMARK    5  A    between atoms: C_14  and  C_16
REMARK    6  A    between atoms: C_16  and  O_17
REMARK    7  A    between atoms: N_19  and  C_21
REMARK                            x       y       z     vdW  Elec       q    Type
REMARK                         _______ _______ _______ _____ _____    ______ ____
ROOT
ATOM      1  C   UNL     1      -1.298  -0.765   0.010  0.00  0.00    +0.174 C 
ENDROOT
BRANCH   1   6
ATOM      2  C   UNL     1      -3.477   0.239   2.926  0.00  0.00    +0.000 A 
ATOM      3  C   UNL     1      -3.016  -0.606   3.919  0.00  0.00    +0.001 A 
ATOM      4  C   UNL     1      -2.000  -1.502   3.648  0.00  0.00    +0.020 A 
ATOM      5  C   UNL     1      -1.443  -1.554   2.382  0.00  0.00    +0.046 A 
ATOM      6  C   UNL     1      -1.905  -0.709   1.389  0.00  0.00    -0.001 A 
ATOM      7  C   UNL     1      -2.918   0.191   1.663  0.00  0.00    +0.007 A 
ATOM      8 CL   UNL     1      -0.167  -2.680   2.041  0.00  0.00    -0.083 Cl
ENDBRANCH   1   6
BRANCH   1   9
ATOM      9  C   UNL     1       0.002  -0.004   0.002  0.00  0.00    +0.175 A 
ATOM     10  C   UNL     1       1.171  -0.681  -0.012  0.00  0.00    +0.205 A 
ATOM     11  C   UNL     1       2.390   0.052  -0.020  0.00  0.00    +0.227 A 
ATOM     12  O   UNL     1       3.468  -0.522  -0.033  0.00  0.00    -0.284 OA
ATOM     13  C   UNL     1       2.318   1.468  -0.012  0.00  0.00    +0.098 A 
ATOM     14  C   UNL     1       1.108   2.061   0.003  0.00  0.00    +0.134 A 
ATOM     15  O   UNL     1      -0.016   1.336   0.009  0.00  0.00    -0.456 OA
BRANCH  10  16
ATOM     16  O   UNL     1       1.183  -2.042  -0.019  0.00  0.00    -0.501 OA
ATOM     17  H   UNL     1       1.177  -2.431  -0.904  0.00  0.00    +0.292 HD
ENDBRANCH  10  16
BRANCH  14  18
ATOM     18  C   UNL     1       1.020   3.566   0.011  0.00  0.00    +0.230 C 
BRANCH  18  19
ATOM     19  O   UNL     1       0.979   4.048  -1.334  0.00  0.00    -0.387 OA
ATOM     20  H   UNL     1       0.922   5.011  -1.405  0.00  0.00    +0.210 HD
ENDBRANCH  18  19
ENDBRANCH  14  18
ENDBRANCH   1   9
BRANCH   1  21
ATOM     21  N   UNL     1      -2.223  -0.164  -0.954  0.00  0.00    -0.317 N 
ATOM     22  H   UNL     1      -2.126   0.769  -1.202  0.00  0.00    +0.148 HD
BRANCH  21  23
ATOM     23  C   UNL     1      -3.238  -0.930  -1.515  0.00  0.00    +0.097 A 
ATOM     24  C   UNL     1      -3.371  -2.268  -1.155  0.00  0.00    +0.041 A 
ATOM     25  C   UNL     1      -4.386  -3.019  -1.720  0.00  0.00    +0.005 A 
ATOM     26  C   UNL     1      -5.237  -2.405  -2.630  0.00  0.00    +0.018 A 
ATOM     27  C   UNL     1      -5.047  -1.073  -2.941  0.00  0.00    +0.084 A 
ATOM     28  N   UNL     1      -4.064  -0.303  -2.401  0.00  0.00    -0.350 N 
ATOM     29  H   UNL     1      -3.952   0.688  -2.644  0.00  0.00    +0.166 HD
ENDBRANCH  21  23
ENDBRANCH   1  21
TORSDOF 7
