REMARK  Name = ZINC67184632
REMARK  10 active torsions:
REMARK  status: ('A' for Active; 'I' for Inactive)
REMARK    1  A    between atoms: C_1  and  N_2
REMARK    2  A    between atoms: C_3  and  C_5
REMARK    3  A    between atoms: C_5  and  O_6
REMARK    4  A    between atoms: O_6  and  C_7
REMARK    5  A    between atoms: C_12  and  C_13
REMARK    6  A    between atoms: C_13  and  N_14
REMARK    7  A    between atoms: N_14  and  C_15
REMARK    8  A    between atoms: C_15  and  C_16
REMARK    9  A    between atoms: C_16  and  C_17
REMARK   10  A    between atoms: C_17  and  N_18
REMARK                            x       y       z     vdW  Elec       q    Type
REMARK                         _______ _______ _______ _____ _____    ______ ____
ROOT
ATOM      1  N   UNL     1       3.894  -3.061  -4.057  0.00  0.00    +0.382 N 
ATOM      2  H   UNL     1       3.772  -2.562  -3.188  0.00  0.00    -0.085 HD
ATOM      3  H   UNL     1       4.523  -3.836  -3.914  0.00  0.00    -0.085 HD
ENDROOT
BRANCH   1   4
ATOM      4  C   UNL     1       2.594  -3.564  -4.519  0.00  0.00    -0.043 C 
BRANCH   4  10
ATOM      5  C   UNL     1       1.380  -3.977  -2.364  0.00  0.00    +0.123 A 
ATOM      6  C   UNL     1       0.846  -4.836  -1.415  0.00  0.00    +0.046 A 
ATOM      7  C   UNL     1       0.955  -6.203  -1.582  0.00  0.00    +0.004 A 
ATOM      8  C   UNL     1       1.595  -6.715  -2.696  0.00  0.00    +0.000 A 
ATOM      9  C   UNL     1       2.128  -5.862  -3.643  0.00  0.00    +0.005 A 
ATOM     10  C   UNL     1       2.017  -4.494  -3.483  0.00  0.00    -0.023 A 
BRANCH   5  11
ATOM     11  O   UNL     1       1.274  -2.632  -2.202  0.00  0.00    -0.483 OA
BRANCH  11  12
ATOM     12  C   UNL     1       0.606  -2.171  -1.026  0.00  0.00    +0.324 C 
BRANCH  12  15
ATOM     13  C   UNL     1      -0.018   1.461   0.010  0.00  0.00    +0.128 C 
ATOM     14  N   UNL     1       0.002  -0.004   0.002  0.00  0.00    -0.316 N 
ATOM     15  C   UNL     1       0.585  -0.664  -1.018  0.00  0.00    +0.250 C 
ATOM     16  O   UNL     1       1.093  -0.046  -1.929  0.00  0.00    -0.272 OA
ATOM     17  H   UNL     1      -0.404  -0.499   0.731  0.00  0.00    +0.148 HD
ENDBRANCH  12  15
ENDBRANCH  11  12
ENDBRANCH   5  11
ENDBRANCH   4  10
ENDBRANCH   1   4
BRANCH   1  18
ATOM     18  C   UNL     1       4.456  -2.154  -5.067  0.00  0.00    -0.081 C 
BRANCH  18  19
ATOM     19  C   UNL     1       5.810  -1.630  -4.586  0.00  0.00    +0.000 C 
BRANCH  19  20
ATOM     20  C   UNL     1       6.395  -0.686  -5.638  0.00  0.00    +0.116 C 
BRANCH  20  21
ATOM     21  N   UNL     1       7.692  -0.184  -5.177  0.00  0.00    -0.224 N 
ATOM     22  C   UNL     1       7.854   0.937  -4.441  0.00  0.00    +0.246 C 
ATOM     23  O   UNL     1       6.989   1.692  -4.051  0.00  0.00    -0.273 OA
ATOM     24  C   UNL     1       9.339   1.049  -4.209  0.00  0.00    +0.113 C 
ATOM     25  C   UNL     1       9.666   1.024  -2.710  0.00  0.00    +0.035 C 
ATOM     26  C   UNL     1      10.877   1.983  -2.575  0.00  0.00    +0.003 C 
ATOM     27  C   UNL     1      10.546   3.103  -3.594  0.00  0.00    +0.003 C 
ATOM     28  C   UNL     1       9.894   2.356  -4.779  0.00  0.00    +0.035 C 
ATOM     29  N   UNL     1       9.906  -0.116  -4.893  0.00  0.00    -0.285 N 
ATOM     30  C   UNL     1       8.863  -0.783  -5.427  0.00  0.00    +0.309 C 
ATOM     31  O   UNL     1       8.974  -1.811  -6.066  0.00  0.00    -0.252 OA
ATOM     32  H   UNL     1      10.843  -0.359  -4.948  0.00  0.00    +0.151 HD
ENDBRANCH  20  21
ENDBRANCH  19  20
ENDBRANCH  18  19
ENDBRANCH   1  18
TORSDOF 9
