REMARK  Name = ZINC16195594
REMARK  9 active torsions:
REMARK  status: ('A' for Active; 'I' for Inactive)
REMARK    1  A    between atoms: C_1  and  O_2
REMARK    2  A    between atoms: O_2  and  C_3
REMARK    3  A    between atoms: C_5  and  C_20
REMARK    4  A    between atoms: C_8  and  O_9
REMARK    5  A    between atoms: O_9  and  C_10
REMARK    6  A    between atoms: C_10  and  C_11
REMARK    7  A    between atoms: C_20  and  N_48
REMARK    8  A    between atoms: C_21  and  C_22
REMARK    9  A    between atoms: C_21  and  N_48
REMARK                            x       y       z     vdW  Elec       q    Type
REMARK                         _______ _______ _______ _____ _____    ______ ____
ROOT
ATOM      1  C   UNL     1      -0.398   7.654  -2.873  0.00  0.00    +0.163 A 
ATOM      2  C   UNL     1      -0.405   6.269  -2.920  0.00  0.00    +0.051 A 
ATOM      3  C   UNL     1      -1.445   5.562  -2.345  0.00  0.00    -0.060 A 
ATOM      4  C   UNL     1      -2.483   6.234  -1.728  0.00  0.00    +0.021 A 
ATOM      5  C   UNL     1      -2.481   7.617  -1.673  0.00  0.00    +0.063 A 
ATOM      6  C   UNL     1      -1.440   8.331  -2.247  0.00  0.00    +0.176 A 
ATOM      7 BR   UNL     1      -3.899   8.532  -0.821  0.00  0.00    -0.046 Br
ENDROOT
BRANCH   1   9
ATOM      8  C   UNL     1       1.661   7.589  -4.062  0.00  0.00    +0.277 C 
ATOM      9  O   UNL     1       0.625   8.350  -3.437  0.00  0.00    -0.491 OA
ENDBRANCH   1   9
BRANCH   6  10
ATOM     10  O   UNL     1      -1.438   9.690  -2.199  0.00  0.00    -0.483 OA
BRANCH  10  11
ATOM     11  C   UNL     1      -2.074  10.378  -3.278  0.00  0.00    +0.266 C 
BRANCH  11  12
ATOM     12  C   UNL     1      -1.973  11.865  -3.054  0.00  0.00    +0.008 A 
ATOM     13  C   UNL     1      -1.334  12.353  -1.929  0.00  0.00    +0.010 A 
ATOM     14  C   UNL     1      -1.241  13.716  -1.723  0.00  0.00    +0.020 A 
ATOM     15  C   UNL     1      -1.787  14.594  -2.643  0.00  0.00    +0.042 A 
ATOM     16  C   UNL     1      -2.426  14.107  -3.768  0.00  0.00    +0.040 A 
ATOM     17  C   UNL     1      -2.515  12.742  -3.977  0.00  0.00    +0.049 A 
ATOM     18 CL   UNL     1      -3.311  12.129  -5.392  0.00  0.00    -0.083 Cl
ATOM     19 CL   UNL     1      -1.671  16.307  -2.384  0.00  0.00    -0.083 Cl
ENDBRANCH  11  12
ENDBRANCH  10  11
ENDBRANCH   6  10
BRANCH   3  20
ATOM     20  C   UNL     1      -1.450   4.056  -2.398  0.00  0.00    -0.047 C 
BRANCH  20  21
ATOM     21  N   UNL     1      -0.755   3.529  -1.208  0.00  0.00    +0.383 N 
ATOM     22  H   UNL     1      -1.240   3.850  -0.362  0.00  0.00    -0.085 HD
ATOM     23  H   UNL     1       0.212   3.874  -1.200  0.00  0.00    -0.085 HD
BRANCH  21  24
ATOM     24  C   UNL     1      -0.745   2.054  -1.233  0.00  0.00    -0.050 C 
BRANCH  24  25
ATOM     25  C   UNL     1      -0.019   1.537   0.011  0.00  0.00    +0.101 C 
ATOM     26  C   UNL     1       0.002  -0.004   0.002  0.00  0.00    +0.032 C 
ATOM     27  C   UNL     1       1.508  -0.363   0.039  0.00  0.00    +0.030 C 
ATOM     28  C   UNL     1       2.138   0.935   0.603  0.00  0.00    +0.160 C 
ATOM     29  O   UNL     1       1.348   1.983  -0.000  0.00  0.00    -0.378 OA
ENDBRANCH  24  25
ENDBRANCH  21  24
ENDBRANCH  20  21
ENDBRANCH   3  20
TORSDOF 8
