REMARK  Name = ZINC65755038
REMARK  11 active torsions:
REMARK  status: ('A' for Active; 'I' for Inactive)
REMARK    1  A    between atoms: C_1  and  C_2
REMARK    2  A    between atoms: N_4  and  C_5
REMARK    3  A    between atoms: C_5  and  C_13
REMARK    4  A    between atoms: C_6  and  C_7
REMARK    5  A    between atoms: N_15  and  C_16
REMARK    6  A    between atoms: C_19  and  N_22
REMARK    7  A    between atoms: C_23  and  C_25
REMARK    8  A    between atoms: C_25  and  C_26
REMARK    9  A    between atoms: C_26  and  N_27
REMARK   10  A    between atoms: N_27  and  C_28
REMARK   11  A    between atoms: N_27  and  C_29
REMARK                            x       y       z     vdW  Elec       q    Type
REMARK                         _______ _______ _______ _____ _____    ______ ____
ROOT
ATOM      1  C   UNL     1       0.795  -2.755   0.462  0.00  0.00    +0.262 C 
ATOM      2  O   UNL     1       0.748  -3.943   0.718  0.00  0.00    -0.268 OA
ATOM      3  N   UNL     1       1.842  -2.254  -0.224  0.00  0.00    -0.280 N 
ATOM      4  H   UNL     1       1.919  -1.297  -0.359  0.00  0.00    +0.155 HD
ENDROOT
BRANCH   3   5
ATOM      5  C   UNL     1       2.816  -3.115  -0.741  0.00  0.00    +0.034 A 
ATOM      6  C   UNL     1       2.457  -4.379  -1.194  0.00  0.00    +0.025 A 
ATOM      7  C   UNL     1       3.418  -5.228  -1.703  0.00  0.00    +0.025 A 
ATOM      8  C   UNL     1       4.744  -4.820  -1.764  0.00  0.00    +0.033 A 
ATOM      9  C   UNL     1       5.103  -3.557  -1.311  0.00  0.00    +0.025 A 
ATOM     10  C   UNL     1       4.141  -2.705  -0.807  0.00  0.00    +0.025 A 
BRANCH   8  11
ATOM     11  N   UNL     1       5.719  -5.682  -2.281  0.00  0.00    -0.286 N 
ATOM     12  C   UNL     1       6.973  -5.654  -1.789  0.00  0.00    +0.215 C 
ATOM     13  O   UNL     1       7.235  -4.951  -0.836  0.00  0.00    -0.276 OA
ATOM     14  H   UNL     1       5.492  -6.300  -2.994  0.00  0.00    +0.155 HD
BRANCH  12  15
ATOM     15  C   UNL     1       8.051  -6.495  -2.423  0.00  0.00    +0.077 C 
BRANCH  15  16
ATOM     16  C   UNL     1       9.370  -6.279  -1.679  0.00  0.00    -0.070 C 
BRANCH  16  17
ATOM     17  N   UNL     1      10.421  -7.099  -2.297  0.00  0.00    +0.376 N 
ATOM     18  C   UNL     1      11.711  -6.803  -1.661  0.00  0.00    -0.097 C 
ATOM     19  C   UNL     1      10.101  -8.522  -2.117  0.00  0.00    -0.097 C 
ATOM     20  H   UNL     1      10.476  -6.889  -3.283  0.00  0.00    -0.083 HD
ENDBRANCH  16  17
ENDBRANCH  15  16
ENDBRANCH  12  15
ENDBRANCH   8  11
ENDBRANCH   3   5
BRANCH   1  21
ATOM     21  C   UNL     1      -0.289  -1.865   0.902  0.00  0.00    +0.097 C 
ATOM     22  C   UNL     1      -1.168  -1.373  -0.001  0.00  0.00    +0.036 C 
BRANCH  22  23
ATOM     23  C   UNL     1      -1.146  -1.858  -1.389  0.00  0.00    -0.023 A 
ATOM     24  C   UNL     1      -0.756  -3.172  -1.669  0.00  0.00    +0.008 A 
ATOM     25  C   UNL     1      -0.739  -3.620  -2.973  0.00  0.00    +0.001 A 
ATOM     26  C   UNL     1      -1.106  -2.773  -4.004  0.00  0.00    +0.000 A 
ATOM     27  C   UNL     1      -1.493  -1.472  -3.736  0.00  0.00    +0.001 A 
ATOM     28  C   UNL     1      -1.521  -1.010  -2.437  0.00  0.00    +0.008 A 
ENDBRANCH  22  23
BRANCH  21  32
ATOM     29  C   UNL     1       0.463  -1.448   4.566  0.00  0.00    +0.109 C 
ATOM     30  C   UNL     1       0.540  -1.902   3.131  0.00  0.00    +0.214 C 
ATOM     31  O   UNL     1       1.459  -2.605   2.765  0.00  0.00    -0.276 OA
ATOM     32  N   UNL     1      -0.411  -1.526   2.253  0.00  0.00    -0.282 N 
ATOM     33  H   UNL     1      -1.181  -1.022   2.559  0.00  0.00    +0.155 HD
ENDBRANCH  21  32
ENDBRANCH   1  21
TORSDOF 8
