REMARK  Name = ZINC14182121
REMARK  10 active torsions:
REMARK  status: ('A' for Active; 'I' for Inactive)
REMARK    1  A    between atoms: C_1  and  C_2
REMARK    2  A    between atoms: C_2  and  N_60
REMARK    3  A    between atoms: C_3  and  C_4
REMARK    4  A    between atoms: C_3  and  N_60
REMARK    5  A    between atoms: N_6  and  C_7
REMARK    6  A    between atoms: C_15  and  C_16
REMARK    7  A    between atoms: C_15  and  N_60
REMARK    8  A    between atoms: N_21  and  C_22
REMARK    9  A    between atoms: C_27  and  C_32
REMARK   10  A    between atoms: C_29  and  C_31
REMARK                            x       y       z     vdW  Elec       q    Type
REMARK                         _______ _______ _______ _____ _____    ______ ____
ROOT
ATOM      1  C   UNL     1      -1.315   2.623   2.667  0.00  0.00    +0.020 C 
ENDROOT
BRANCH   1   2
ATOM      2  C   UNL     1      -2.486   1.679   2.570  0.00  0.00    +0.204 C 
ATOM      3  O   UNL     1      -2.517   0.839   1.697  0.00  0.00    -0.277 OA
ATOM      4  N   UNL     1      -3.499   1.770   3.454  0.00  0.00    -0.242 N 
ATOM      5  C   UNL     1      -4.547   0.926   3.368  0.00  0.00    +0.306 C 
ATOM      6  O   UNL     1      -4.577   0.083   2.492  0.00  0.00    -0.252 OA
ATOM      7  N   UNL     1      -5.560   1.017   4.252  0.00  0.00    -0.296 N 
ATOM      8  H   UNL     1      -3.475   2.443   4.152  0.00  0.00    +0.159 HD
ATOM      9  H   UNL     1      -5.535   1.689   4.950  0.00  0.00    +0.151 HD
BRANCH   7  10
ATOM     10  C   UNL     1      -6.698   0.099   4.157  0.00  0.00    +0.078 C 
ATOM     11  C   UNL     1      -7.716   0.650   3.157  0.00  0.00    +0.022 C 
ATOM     12  C   UNL     1      -8.204   2.022   3.629  0.00  0.00    +0.002 C 
ATOM     13  C   UNL     1      -8.863   1.884   5.003  0.00  0.00    +0.003 C 
ATOM     14  C   UNL     1      -7.845   1.333   6.003  0.00  0.00    -0.009 C 
ATOM     15  C   UNL     1      -7.357  -0.039   5.532  0.00  0.00    +0.009 C 
ATOM     16  C   UNL     1      -6.339  -0.590   6.532  0.00  0.00    +0.009 C 
ATOM     17  C   UNL     1      -8.503   1.195   7.377  0.00  0.00    +0.008 C 
ENDBRANCH   7  10
ENDBRANCH   1   2
BRANCH   1  18
ATOM     18  N   UNL     1      -0.368   2.321   1.573  0.00  0.00    +0.391 N 
ATOM     19  H   UNL     1      -0.879   2.309   0.683  0.00  0.00    -0.080 HD
BRANCH  18  21
ATOM     20  C   UNL     1       0.970   0.955   3.139  0.00  0.00    -0.017 C 
ATOM     21  C   UNL     1       0.249   0.996   1.791  0.00  0.00    -0.081 C 
ENDBRANCH  18  21
BRANCH  18  22
ATOM     22  C   UNL     1       0.680   3.362   1.510  0.00  0.00    +0.020 C 
BRANCH  22  23
ATOM     23  C   UNL     1       1.356   3.286   0.166  0.00  0.00    +0.201 C 
ATOM     24  O   UNL     1       1.011   2.448  -0.640  0.00  0.00    -0.278 OA
ATOM     25  N   UNL     1       2.344   4.150  -0.141  0.00  0.00    -0.283 N 
ATOM     26  H   UNL     1       2.638   4.803   0.513  0.00  0.00    +0.155 HD
BRANCH  25  27
ATOM     27  C   UNL     1       2.948   4.104  -1.405  0.00  0.00    +0.105 A 
ATOM     28  C   UNL     1       4.310   4.348  -1.536  0.00  0.00    +0.147 A 
ATOM     29  C   UNL     1       4.903   4.297  -2.785  0.00  0.00    +0.040 A 
ATOM     30  C   UNL     1       4.140   4.013  -3.903  0.00  0.00    +0.006 A 
ATOM     31  C   UNL     1       2.784   3.776  -3.778  0.00  0.00    +0.040 A 
ATOM     32  C   UNL     1       2.185   3.820  -2.531  0.00  0.00    +0.147 A 
ATOM     33  F   UNL     1       0.859   3.589  -2.410  0.00  0.00    -0.203 F 
ATOM     34  F   UNL     1       5.055   4.630  -0.445  0.00  0.00    -0.203 F 
ENDBRANCH  25  27
ENDBRANCH  22  23
ENDBRANCH  18  22
ENDBRANCH   1  18
TORSDOF 7
