REMARK  Name = ZINC39222419
REMARK  9 active torsions:
REMARK  status: ('A' for Active; 'I' for Inactive)
REMARK    1  A    between atoms: C_1  and  C_2
REMARK    2  A    between atoms: C_2  and  C_4
REMARK    3  A    between atoms: C_2  and  N_22
REMARK    4  A    between atoms: C_4  and  O_6
REMARK    5  A    between atoms: O_6  and  C_7
REMARK    6  A    between atoms: C_7  and  C_8
REMARK    7  A    between atoms: N_10  and  C_11
REMARK    8  A    between atoms: C_12  and  C_19
REMARK    9  A    between atoms: C_23  and  C_25
REMARK                            x       y       z     vdW  Elec       q    Type
REMARK                         _______ _______ _______ _____ _____    ______ ____
ROOT
ATOM      1  C   UNL     1      -4.370  -0.276  -2.106  0.00  0.00    +0.255 C 
ATOM      2  O   UNL     1      -3.852   0.435  -2.940  0.00  0.00    -0.272 OA
ATOM      3  N   UNL     1      -5.656  -0.655  -2.248  0.00  0.00    -0.277 N 
ATOM      4  H   UNL     1      -6.071  -1.224  -1.581  0.00  0.00    +0.155 HD
ENDROOT
BRANCH   3   5
ATOM      5  C   UNL     1      -6.385  -0.232  -3.349  0.00  0.00    +0.084 A 
ATOM      6  C   UNL     1      -7.704  -0.513  -3.655  0.00  0.00    +0.068 A 
ATOM      7  C   UNL     1      -8.243   0.061  -4.886  0.00  0.00    -0.023 A 
ATOM      8  C   UNL     1      -7.361   0.805  -5.577  0.00  0.00    -0.004 A 
ATOM      9  S   UNL     1      -5.873   0.746  -4.612  0.00  0.00    -0.077 S 
ATOM     10  C   UNL     1      -7.966   1.367  -6.835  0.00  0.00    +0.043 C 
ATOM     11  C   UNL     1      -9.238   0.522  -7.068  0.00  0.00    +0.010 C 
ATOM     12  C   UNL     1      -9.573   0.057  -5.637  0.00  0.00    +0.037 C 
BRANCH   6  13
ATOM     13  C   UNL     1      -8.527  -1.354  -2.780  0.00  0.00    +0.244 C 
ATOM     14  O   UNL     1      -9.176  -0.847  -1.883  0.00  0.00    -0.270 OA
ATOM     15  N   UNL     1      -8.566  -2.688  -2.968  0.00  0.00    -0.325 N 
ATOM     16  H   UNL     1      -8.049  -3.092  -3.683  0.00  0.00    +0.145 HD
ATOM     17  H   UNL     1      -9.110  -3.244  -2.389  0.00  0.00    +0.145 HD
ENDBRANCH   6  13
ENDBRANCH   3   5
BRANCH   1  18
ATOM     18  C   UNL     1      -3.577  -0.737  -0.910  0.00  0.00    +0.328 C 
BRANCH  18  19
ATOM     19  O   UNL     1      -2.252  -0.207  -0.984  0.00  0.00    -0.454 OA
BRANCH  19  20
ATOM     20  C   UNL     1      -1.412  -0.526   0.013  0.00  0.00    +0.328 C 
ATOM     21  O   UNL     1      -1.789  -1.230   0.919  0.00  0.00    -0.249 OA
BRANCH  20  23
ATOM     22  C   UNL     1      -0.019   1.526   0.010  0.00  0.00    +0.040 C 
ATOM     23  C   UNL     1       0.002  -0.004   0.002  0.00  0.00    +0.179 C 
BRANCH  23  24
ATOM     24  N   UNL     1       0.711  -0.489   1.189  0.00  0.00    -0.296 N 
ATOM     25  C   UNL     1       2.054  -0.600   1.174  0.00  0.00    +0.280 C 
ATOM     26  O   UNL     1       2.678  -0.296   0.174  0.00  0.00    -0.267 OA
ATOM     27  H   UNL     1       0.213  -0.731   1.986  0.00  0.00    +0.150 HD
BRANCH  25  28
ATOM     28  C   UNL     1       2.763  -1.086   2.362  0.00  0.00    +0.189 A 
ATOM     29  C   UNL     1       4.114  -1.240   2.482  0.00  0.00    +0.054 A 
ATOM     30  C   UNL     1       4.351  -1.724   3.778  0.00  0.00    +0.042 A 
ATOM     31  C   UNL     1       3.149  -1.844   4.384  0.00  0.00    +0.196 A 
ATOM     32  O   UNL     1       2.195  -1.453   3.529  0.00  0.00    -0.458 OA
ENDBRANCH  25  28
ENDBRANCH  23  24
ENDBRANCH  20  23
ENDBRANCH  19  20
ENDBRANCH  18  19
ENDBRANCH   1  18
TORSDOF 8
