REMARK  Name = ZINC65546302
REMARK  6 active torsions:
REMARK  status: ('A' for Active; 'I' for Inactive)
REMARK    1  A    between atoms: C_7  and  C_10
REMARK    2  A    between atoms: C_10  and  C_11
REMARK    3  A    between atoms: C_11  and  N_12
REMARK    4  A    between atoms: C_13  and  C_15
REMARK    5  A    between atoms: C_17  and  N_33
REMARK    6  A    between atoms: C_22  and  C_27
REMARK                            x       y       z     vdW  Elec       q    Type
REMARK                         _______ _______ _______ _____ _____    ______ ____
ROOT
ATOM      1  C   UNL     1      -1.752  -6.557  -2.622  0.00  0.00    +0.155 C 
ATOM      2  C   UNL     1      -2.527  -6.653  -3.957  0.00  0.00    +0.102 C 
ATOM      3  C   UNL     1      -1.986  -7.670  -4.914  0.00  0.00    -0.021 C 
ATOM      4  C   UNL     1      -2.558  -8.056  -6.067  0.00  0.00    +0.005 C 
ATOM      5  C   UNL     1      -1.937  -9.154  -6.815  0.00  0.00    +0.025 C 
ATOM      6  C   UNL     1      -1.019  -9.950  -6.211  0.00  0.00    +0.054 C 
ATOM      7  N   UNL     1      -0.671  -9.692  -4.877  0.00  0.00    -0.327 N 
ATOM      8  C   UNL     1      -0.656  -8.285  -4.466  0.00  0.00    +0.158 C 
ATOM      9  S   UNL     1      -0.820  -8.154  -2.636  0.00  0.00    -0.120 S 
ATOM     10  H   UNL     1      -0.451 -10.406  -4.260  0.00  0.00    +0.147 HD
ENDROOT
BRANCH   6  11
ATOM     11  C   UNL     1      -0.398 -11.071  -6.945  0.00  0.00    +0.085 A 
ATOM     12  C   UNL     1      -0.754 -11.311  -8.274  0.00  0.00    +0.029 A 
ATOM     13  C   UNL     1      -0.163 -12.364  -8.948  0.00  0.00    +0.004 A 
ATOM     14  C   UNL     1       0.765 -13.146  -8.273  0.00  0.00    +0.020 A 
ATOM     15  C   UNL     1       1.071 -12.853  -6.957  0.00  0.00    +0.111 A 
ATOM     16  N   UNL     1       0.499 -11.841  -6.338  0.00  0.00    -0.254 NA
ENDBRANCH   6  11
BRANCH   1  18
ATOM     17  N   UNL     1      -0.458  -4.798  -1.460  0.00  0.00    -0.314 N 
ATOM     18  C   UNL     1      -0.811  -5.380  -2.623  0.00  0.00    +0.228 C 
ATOM     19  O   UNL     1      -0.371  -4.957  -3.671  0.00  0.00    -0.275 OA
ATOM     20  H   UNL     1      -0.810  -5.136  -0.622  0.00  0.00    +0.149 HD
BRANCH  17  21
ATOM     21  C   UNL     1       0.457  -3.653  -1.462  0.00  0.00    +0.108 C 
BRANCH  21  22
ATOM     22  C   UNL     1       0.691  -3.186  -0.024  0.00  0.00    +0.052 C 
BRANCH  22  29
ATOM     23  C   UNL     1      -0.016   1.348   0.009  0.00  0.00    +0.001 A 
ATOM     24  C   UNL     1       1.166   2.101   0.002  0.00  0.00    +0.002 A 
ATOM     25  C   UNL     1       2.391   1.535  -0.013  0.00  0.00    +0.026 A 
ATOM     26  C   UNL     1       2.529   0.120  -0.022  0.00  0.00    +0.043 A 
ATOM     27  N   UNL     1       3.587  -0.654  -0.037  0.00  0.00    -0.380 N 
ATOM     28  C   UNL     1       3.143  -2.053  -0.041  0.00  0.00    +0.144 C 
ATOM     29  C   UNL     1       1.631  -2.008  -0.025  0.00  0.00    -0.040 C 
ATOM     30  C   UNL     1       1.295  -0.698  -0.014  0.00  0.00    -0.001 A 
ATOM     31  C   UNL     1       0.002  -0.004   0.002  0.00  0.00    +0.010 A 
ATOM     32  H   UNL     1       4.509  -0.353  -0.045  0.00  0.00    +0.160 HD
ENDBRANCH  22  29
ENDBRANCH  21  22
ENDBRANCH  17  21
ENDBRANCH   1  18
BRANCH   2  33
ATOM     33  N   UNL     1      -3.925  -6.993  -3.662  0.00  0.00    -0.323 NA
ATOM     34  H   UNL     1      -4.466  -7.065  -4.510  0.00  0.00    +0.119 HD
ATOM     35  H   UNL     1      -3.984  -7.843  -3.122  0.00  0.00    +0.119 HD
ENDBRANCH   2  33
TORSDOF 6
