REMARK  Name = ZINC43415367
REMARK  11 active torsions:
REMARK  status: ('A' for Active; 'I' for Inactive)
REMARK    1  A    between atoms: C_1  and  C_2
REMARK    2  A    between atoms: C_2  and  C_4
REMARK    3  A    between atoms: C_2  and  O_12
REMARK    4  A    between atoms: N_6  and  C_7
REMARK    5  A    between atoms: C_7  and  C_8
REMARK    6  A    between atoms: C_8  and  C_9
REMARK    7  A    between atoms: C_9  and  C_10
REMARK    8  A    between atoms: C_9  and  C_11
REMARK    9  A    between atoms: O_12  and  C_13
REMARK   10  A    between atoms: C_14  and  N_22
REMARK   11  A    between atoms: C_16  and  C_20
REMARK                            x       y       z     vdW  Elec       q    Type
REMARK                         _______ _______ _______ _____ _____    ______ ____
ROOT
ATOM      1  O   UNL     1      -1.332  -0.499   0.130  0.00  0.00    -0.477 OA
ENDROOT
BRANCH   1   2
ATOM      2  C   UNL     1      -1.828  -0.619   1.389  0.00  0.00    +0.155 A 
ATOM      3  C   UNL     1      -2.602   0.407   1.933  0.00  0.00    +0.069 A 
ATOM      4  C   UNL     1      -3.107   0.286   3.215  0.00  0.00    +0.045 A 
ATOM      5  C   UNL     1      -2.841  -0.866   3.961  0.00  0.00    +0.055 A 
ATOM      6  C   UNL     1      -2.066  -1.888   3.410  0.00  0.00    +0.037 A 
ATOM      7  C   UNL     1      -1.569  -1.764   2.129  0.00  0.00    +0.058 A 
ATOM      8  I   UNL     1      -0.414  -3.304   1.302  0.00  0.00    -0.040 I 
BRANCH   3   9
ATOM      9  N   UNL     1      -2.865   1.559   1.183  0.00  0.00    -0.355 N 
ATOM     10  H   UNL     1      -2.510   1.644   0.284  0.00  0.00    +0.142 HD
ATOM     11  H   UNL     1      -3.403   2.272   1.561  0.00  0.00    +0.142 HD
ENDBRANCH   3   9
BRANCH   5  12
ATOM     12  C   UNL     1      -3.362  -0.996   5.289  0.00  0.00    +0.099 C 
ATOM     13  N   UNL     1      -3.775  -1.099   6.342  0.00  0.00    -0.191 NA
ENDBRANCH   5  12
ENDBRANCH   1   2
BRANCH   1  15
ATOM     14  C   UNL     1      -0.001   1.504  -0.104  0.00  0.00    +0.062 C 
ATOM     15  C   UNL     1       0.009  -0.022   0.003  0.00  0.00    +0.256 C 
BRANCH  15  16
ATOM     16  C   UNL     1       0.636  -0.609  -1.236  0.00  0.00    +0.254 C 
ATOM     17  O   UNL     1      -0.029  -1.288  -1.988  0.00  0.00    -0.272 OA
ATOM     18  N   UNL     1       1.936  -0.378  -1.506  0.00  0.00    -0.312 N 
ATOM     19  H   UNL     1       2.468   0.165  -0.904  0.00  0.00    +0.149 HD
BRANCH  18  20
ATOM     20  C   UNL     1       2.546  -0.948  -2.710  0.00  0.00    +0.104 C 
BRANCH  20  21
ATOM     21  C   UNL     1       4.018  -0.538  -2.780  0.00  0.00    +0.022 C 
BRANCH  21  22
ATOM     22  C   UNL     1       4.654  -1.133  -4.037  0.00  0.00    -0.016 C 
ATOM     23  C   UNL     1       6.090  -0.623  -4.173  0.00  0.00    +0.007 C 
ATOM     24  C   UNL     1       4.664  -2.660  -3.930  0.00  0.00    +0.007 C 
ENDBRANCH  21  22
ENDBRANCH  20  21
ENDBRANCH  18  20
ENDBRANCH  15  16
ENDBRANCH   1  15
TORSDOF 8
