REMARK  Name = ZINC67637855
REMARK  11 active torsions:
REMARK  status: ('A' for Active; 'I' for Inactive)
REMARK    1  A    between atoms: C_1  and  C_2
REMARK    2  A    between atoms: C_2  and  N_3
REMARK    3  A    between atoms: N_3  and  C_4
REMARK    4  A    between atoms: N_3  and  C_5
REMARK    5  A    between atoms: C_5  and  C_6
REMARK    6  A    between atoms: C_10  and  C_12
REMARK    7  A    between atoms: C_12  and  N_13
REMARK    8  A    between atoms: N_16  and  C_17
REMARK    9  A    between atoms: C_17  and  C_18
REMARK   10  A    between atoms: C_18  and  C_20
REMARK   11  A    between atoms: C_18  and  O_30
REMARK                            x       y       z     vdW  Elec       q    Type
REMARK                         _______ _______ _______ _____ _____    ______ ____
ROOT
ATOM      1  N   UNL     1       1.095  -2.427   6.705  0.00  0.00    -0.295 N 
ATOM      2  C   UNL     1       0.539  -2.525   7.928  0.00  0.00    +0.300 C 
ATOM      3  O   UNL     1       0.097  -3.591   8.312  0.00  0.00    -0.253 OA
ATOM      4  N   UNL     1       0.472  -1.442   8.727  0.00  0.00    -0.297 N 
ATOM      5  H   UNL     1       1.448  -1.577   6.399  0.00  0.00    +0.151 HD
ATOM      6  H   UNL     1       0.824  -0.591   8.421  0.00  0.00    +0.150 HD
ENDROOT
BRANCH   1   7
ATOM      7  C   UNL     1       1.168  -3.605   5.837  0.00  0.00    +0.141 C 
BRANCH   7  12
ATOM      8  C   UNL     1       1.671  -2.440   2.281  0.00  0.00    -0.064 A 
ATOM      9  C   UNL     1       3.044  -2.543   2.148  0.00  0.00    +0.002 A 
ATOM     10  C   UNL     1       3.809  -2.990   3.209  0.00  0.00    +0.001 A 
ATOM     11  C   UNL     1       3.202  -3.333   4.403  0.00  0.00    +0.005 A 
ATOM     12  C   UNL     1       1.830  -3.230   4.536  0.00  0.00    -0.030 A 
ATOM     13  C   UNL     1       1.065  -2.779   3.476  0.00  0.00    +0.007 A 
BRANCH   8  14
ATOM     14  C   UNL     1       0.837  -1.953   1.124  0.00  0.00    -0.043 C 
BRANCH  14  15
ATOM     15  N   UNL     1       0.713  -0.491   1.192  0.00  0.00    +0.380 N 
ATOM     16  C   UNL     1      -0.040  -0.119   2.398  0.00  0.00    -0.096 C 
ATOM     17  H   UNL     1       1.632  -0.076   1.228  0.00  0.00    -0.082 HD
BRANCH  15  19
ATOM     18  C   UNL     1      -0.019   1.526   0.010  0.00  0.00    -0.017 C 
ATOM     19  C   UNL     1       0.002  -0.004   0.002  0.00  0.00    -0.082 C 
ENDBRANCH  15  19
ENDBRANCH  14  15
ENDBRANCH   8  14
ENDBRANCH   7  12
ENDBRANCH   1   7
BRANCH   4  20
ATOM     20  C   UNL     1      -0.133  -1.548  10.057  0.00  0.00    +0.141 C 
BRANCH  20  21
ATOM     21  C   UNL     1      -0.083  -0.185  10.751  0.00  0.00    +0.162 C 
BRANCH  21  22
ATOM     22  C   UNL     1      -0.592  -0.322  12.163  0.00  0.00    -0.017 A 
ATOM     23  C   UNL     1      -1.966  -0.362  12.396  0.00  0.00    +0.007 A 
ATOM     24  C   UNL     1      -2.459  -0.483  13.659  0.00  0.00    +0.009 A 
ATOM     25  C   UNL     1      -1.573  -0.571  14.746  0.00  0.00    -0.018 A 
ATOM     26  C   UNL     1      -2.044  -0.698  16.063  0.00  0.00    +0.008 A 
ATOM     27  C   UNL     1      -1.156  -0.780  17.091  0.00  0.00    +0.001 A 
ATOM     28  C   UNL     1       0.217  -0.741  16.858  0.00  0.00    +0.001 A 
ATOM     29  C   UNL     1       0.711  -0.618  15.595  0.00  0.00    +0.008 A 
ATOM     30  C   UNL     1      -0.176  -0.530  14.508  0.00  0.00    -0.018 A 
ATOM     31  C   UNL     1       0.296  -0.409  13.190  0.00  0.00    +0.014 A 
ENDBRANCH  21  22
BRANCH  21  32
ATOM     32  O   UNL     1      -0.901   0.743  10.037  0.00  0.00    -0.386 OA
ATOM     33  H   UNL     1      -1.832   0.486   9.981  0.00  0.00    +0.210 HD
ENDBRANCH  21  32
ENDBRANCH  20  21
ENDBRANCH   4  20
TORSDOF 9
