REMARK  Name = ZINC05025553
REMARK  5 active torsions:
REMARK  status: ('A' for Active; 'I' for Inactive)
REMARK    1  A    between atoms: C_1  and  N_47
REMARK    2  A    between atoms: C_10  and  N_21
REMARK    3  A    between atoms: C_11  and  N_13
REMARK    4  A    between atoms: N_13  and  C_14
REMARK    5  A    between atoms: C_14  and  C_15
REMARK                            x       y       z     vdW  Elec       q    Type
REMARK                         _______ _______ _______ _____ _____    ______ ____
ROOT
ATOM      1  C   UNL     1      -0.018   1.465   0.010  0.00  0.00    -0.096 C 
ATOM      2  C   UNL     1      -1.360  -0.549  -0.079  0.00  0.00    -0.060 C 
ATOM      3  C   UNL     1      -1.292  -2.075  -0.165  0.00  0.00    +0.089 C 
ATOM      4  N   UNL     1      -0.588  -2.599   1.014  0.00  0.00    -0.303 N 
ATOM      5  C   UNL     1       0.774  -2.054   1.095  0.00  0.00    +0.089 C 
ATOM      6  C   UNL     1       0.706  -0.528   1.181  0.00  0.00    -0.060 C 
ATOM      7  C   UNL     1      -0.569  -3.983   1.006  0.00  0.00    +0.221 A 
ATOM      8  N   UNL     1       0.595  -4.612   1.068  0.00  0.00    -0.197 NA
ATOM      9  C   UNL     1       0.651  -5.942   1.064  0.00  0.00    +0.154 A 
ATOM     10  C   UNL     1      -0.533  -6.670   0.992  0.00  0.00    +0.205 A 
ATOM     11  C   UNL     1      -1.736  -5.974   0.928  0.00  0.00    +0.156 A 
ATOM     12  N   UNL     1      -1.716  -4.643   0.942  0.00  0.00    -0.197 NA
ATOM     13  N   UNL     1       1.873  -6.593   1.129  0.00  0.00    -0.341 N 
ATOM     14  H   UNL     1       2.694  -6.079   1.179  0.00  0.00    +0.144 HD
ATOM     15  H   UNL     1       1.907  -7.562   1.126  0.00  0.00    +0.144 HD
ATOM     16  N   UNL     1       0.016  -0.013  -0.021  0.00  0.00    +0.380 N 
ATOM     17  H   UNL     1       0.528  -0.318  -0.857  0.00  0.00    -0.082 HD
ENDROOT
BRANCH  10  18
ATOM     18  N   UNL     1      -0.513  -8.150   0.984  0.00  0.00    +0.063 N 
ATOM     19  O   UNL     1      -0.564  -8.766   2.034  0.00  0.00    -0.126 OA
ATOM     20  O   UNL     1      -0.445  -8.753  -0.072  0.00  0.00    -0.126 OA
ENDBRANCH  10  18
BRANCH  11  21
ATOM     21  N   UNL     1      -2.940  -6.657   0.856  0.00  0.00    -0.325 N 
ATOM     22  H   UNL     1      -2.947  -7.627   0.849  0.00  0.00    +0.148 HD
BRANCH  21  23
ATOM     23  C   UNL     1      -4.201  -5.914   0.789  0.00  0.00    +0.134 C 
BRANCH  23  24
ATOM     24  C   UNL     1      -5.370  -6.899   0.716  0.00  0.00    +0.135 C 
ATOM     25  C   UNL     1      -6.701  -6.140   0.519  0.00  0.00    +0.035 C 
ATOM     26  C   UNL     1      -7.717  -6.938   1.366  0.00  0.00    +0.031 C 
ATOM     27  C   UNL     1      -6.880  -8.085   1.974  0.00  0.00    +0.160 C 
ATOM     28  O   UNL     1      -5.523  -7.591   1.974  0.00  0.00    -0.375 OA
ENDBRANCH  23  24
ENDBRANCH  21  23
ENDBRANCH  11  21
TORSDOF 4
