REMARK  Name = ZINC39969129
REMARK  5 active torsions:
REMARK  status: ('A' for Active; 'I' for Inactive)
REMARK    1  A    between atoms: C_1  and  N_2
REMARK    2  A    between atoms: C_3  and  C_23
REMARK    3  A    between atoms: C_7  and  S_9
REMARK    4  A    between atoms: S_9  and  C_10
REMARK    5  A    between atoms: C_10  and  C_11
REMARK                            x       y       z     vdW  Elec       q    Type
REMARK                         _______ _______ _______ _____ _____    ______ ____
ROOT
ATOM      1  C   UNL     1      -0.186   1.457   0.133  0.00  0.00    -0.090 C 
ATOM      2  N   UNL     1      -0.097  -0.009   0.074  0.00  0.00    +0.411 N 
ATOM      3  C   UNL     1      -1.429  -0.609   0.321  0.00  0.00    +0.086 C 
ATOM      4  N   UNL     1      -1.138  -1.824   1.126  0.00  0.00    -0.264 NA
ATOM      5  N   UNL     1      -0.040  -1.387   2.002  0.00  0.00    -0.261 NA
ATOM      6  C   UNL     1       0.788  -0.507   1.147  0.00  0.00    +0.077 C 
ATOM      7  H   UNL     1      -0.846  -2.588   0.535  0.00  0.00    +0.139 HD
ATOM      8  H   UNL     1      -0.394  -0.884   2.803  0.00  0.00    +0.140 HD
ATOM      9  H   UNL     1       0.253  -0.299  -0.827  0.00  0.00    -0.076 HD
ENDROOT
BRANCH   3  10
ATOM     10  C   UNL     1      -2.089  -0.982  -0.982  0.00  0.00    +0.108 A 
ATOM     11  C   UNL     1      -2.956  -1.990  -1.141  0.00  0.00    +0.052 A 
ATOM     12  C   UNL     1      -3.337  -1.982  -2.558  0.00  0.00    +0.020 A 
ATOM     13  C   UNL     1      -4.187  -2.759  -3.344  0.00  0.00    +0.011 A 
ATOM     14  C   UNL     1      -4.323  -2.481  -4.676  0.00  0.00    +0.001 A 
ATOM     15  C   UNL     1      -3.621  -1.430  -5.249  0.00  0.00    +0.004 A 
ATOM     16  C   UNL     1      -2.776  -0.651  -4.488  0.00  0.00    +0.047 A 
ATOM     17  C   UNL     1      -2.624  -0.917  -3.133  0.00  0.00    +0.135 A 
ATOM     18  O   UNL     1      -1.897  -0.346  -2.151  0.00  0.00    -0.460 OA
ENDBRANCH   3  10
BRANCH   6  19
ATOM     19  S   UNL     1       1.428   0.884   2.121  0.00  0.00    -0.152 S 
BRANCH  19  20
ATOM     20  C   UNL     1       2.804   0.166   3.060  0.00  0.00    +0.143 C 
BRANCH  20  21
ATOM     21  C   UNL     1       3.355   1.196   4.012  0.00  0.00    +0.120 A 
ATOM     22  N   UNL     1       4.401   0.847   4.805  0.00  0.00    -0.310 N 
ATOM     23  H   UNL     1       4.771  -0.048   4.746  0.00  0.00    +0.170 HD
ATOM     24  C   UNL     1       4.932   1.736   5.676  0.00  0.00    +0.259 A 
ATOM     25  O   UNL     1       5.870   1.437   6.391  0.00  0.00    -0.267 OA
ATOM     26  C   UNL     1       4.332   3.078   5.724  0.00  0.00    +0.065 A 
ATOM     27  C   UNL     1       4.804   4.066   6.585  0.00  0.00    +0.015 A 
ATOM     28  C   UNL     1       4.204   5.306   6.589  0.00  0.00    +0.001 A 
ATOM     29  C   UNL     1       3.136   5.577   5.743  0.00  0.00    +0.002 A 
ATOM     30  C   UNL     1       2.655   4.614   4.885  0.00  0.00    +0.028 A 
ATOM     31  C   UNL     1       3.246   3.350   4.862  0.00  0.00    +0.078 A 
ATOM     32  N   UNL     1       2.808   2.374   4.028  0.00  0.00    -0.233 NA
ENDBRANCH  20  21
ENDBRANCH  19  20
ENDBRANCH   6  19
TORSDOF 4
