REMARK  Name = ZINC23788849
REMARK  11 active torsions:
REMARK  status: ('A' for Active; 'I' for Inactive)
REMARK    1  A    between atoms: C_1  and  C_2
REMARK    2  A    between atoms: C_5  and  C_8
REMARK    3  A    between atoms: C_8  and  N_9
REMARK    4  A    between atoms: C_11  and  C_15
REMARK    5  A    between atoms: C_12  and  C_14
REMARK    6  A    between atoms: N_17  and  C_18
REMARK    7  A    between atoms: C_18  and  C_19
REMARK    8  A    between atoms: C_19  and  C_21
REMARK    9  A    between atoms: C_19  and  N_28
REMARK   10  A    between atoms: N_28  and  C_29
REMARK   11  A    between atoms: N_28  and  C_30
REMARK                            x       y       z     vdW  Elec       q    Type
REMARK                         _______ _______ _______ _____ _____    ______ ____
ROOT
ATOM      1  C   UNL     1       0.881   2.062   1.966  0.00  0.00    +0.249 C 
ATOM      2  O   UNL     1       0.593   0.881   1.944  0.00  0.00    -0.270 OA
ATOM      3  N   UNL     1       1.935   2.512   1.255  0.00  0.00    -0.312 N 
ATOM      4  H   UNL     1       2.195   3.580   1.274  0.00  0.00    +0.149 HD
ENDROOT
BRANCH   1   7
ATOM      5  N   UNL     1      -1.469   4.446   3.363  0.00  0.00    -0.248 N 
ATOM      6  C   UNL     1      -1.031   3.709   2.328  0.00  0.00    +0.140 A 
ATOM      7  C   UNL     1       0.075   3.003   2.763  0.00  0.00    +0.096 A 
ATOM      8  C   UNL     1       0.292   3.358   4.113  0.00  0.00    +0.074 A 
ATOM      9  N   UNL     1      -0.630   4.214   4.459  0.00  0.00    -0.174 NA
ATOM     10  C   UNL     1       1.395   2.839   5.000  0.00  0.00    +0.068 C 
ATOM     11 CL   UNL     1      -1.729   3.651   0.740  0.00  0.00    -0.062 Cl
BRANCH   5  12
ATOM     12  C   UNL     1      -2.625   5.345   3.345  0.00  0.00    +0.180 C 
BRANCH  12  17
ATOM     13  C   UNL     1      -0.930  10.628   1.729  0.00  0.00    +0.044 C 
ATOM     14  C   UNL     1      -1.373   9.251   2.151  0.00  0.00    -0.050 A 
ATOM     15  C   UNL     1      -1.779   8.334   1.199  0.00  0.00    +0.004 A 
ATOM     16  C   UNL     1      -2.184   7.070   1.586  0.00  0.00    +0.006 A 
ATOM     17  C   UNL     1      -2.183   6.723   2.924  0.00  0.00    -0.026 A 
ATOM     18  C   UNL     1      -1.782   7.641   3.876  0.00  0.00    +0.006 A 
ATOM     19  C   UNL     1      -1.373   8.904   3.489  0.00  0.00    +0.004 A 
ENDBRANCH  12  17
ENDBRANCH   5  12
ENDBRANCH   1   7
BRANCH   3  20
ATOM     20  C   UNL     1       2.733   1.577   0.458  0.00  0.00    +0.094 C 
BRANCH  20  21
ATOM     21  C   UNL     1       3.700   2.361  -0.431  0.00  0.00    -0.020 C 
BRANCH  21  22
ATOM     22  C   UNL     1       4.609   1.401  -1.154  0.00  0.00    -0.041 A 
ATOM     23  C   UNL     1       4.398   1.124  -2.491  0.00  0.00    +0.003 A 
ATOM     24  C   UNL     1       5.234   0.246  -3.156  0.00  0.00    +0.000 A 
ATOM     25  C   UNL     1       6.277  -0.361  -2.481  0.00  0.00    +0.001 A 
ATOM     26  C   UNL     1       6.486  -0.089  -1.142  0.00  0.00    +0.020 A 
ATOM     27  C   UNL     1       5.652   0.793  -0.478  0.00  0.00    +0.043 A 
ATOM     28 CL   UNL     1       5.913   1.136   1.204  0.00  0.00    -0.083 Cl
ENDBRANCH  21  22
BRANCH  21  29
ATOM     29  N   UNL     1       2.938   3.147  -1.411  0.00  0.00    +0.382 N 
ATOM     30  C   UNL     1       1.777   2.392  -1.901  0.00  0.00    -0.096 C 
ATOM     31  C   UNL     1       2.526   4.438  -0.845  0.00  0.00    -0.096 C 
ATOM     32  H   UNL     1       3.597   3.348  -2.268  0.00  0.00    -0.082 HD
ENDBRANCH  21  29
ENDBRANCH  20  21
ENDBRANCH   3  20
TORSDOF 7
