REMARK  Name = ZINC63571270
REMARK  3 active torsions:
REMARK  status: ('A' for Active; 'I' for Inactive)
REMARK    1  A    between atoms: C_5  and  C_7
REMARK    2  A    between atoms: N_24  and  C_25
REMARK    3  A    between atoms: C_29  and  C_31
REMARK                            x       y       z     vdW  Elec       q    Type
REMARK                         _______ _______ _______ _____ _____    ______ ____
ROOT
ATOM      1  C   UNL     1       0.502  -2.611  -0.999  0.00  0.00    +0.137 C 
ATOM      2  C   UNL     1       0.265  -3.637  -2.112  0.00  0.00    +0.131 C 
ATOM      3  C   UNL     1       0.320  -5.011  -1.456  0.00  0.00    -0.035 C 
ATOM      4  C   UNL     1       1.251  -5.700  -2.106  0.00  0.00    -0.001 A 
ATOM      5  C   UNL     1       1.706  -7.094  -1.978  0.00  0.00    +0.010 A 
ATOM      6  C   UNL     1       2.708  -7.476  -2.812  0.00  0.00    +0.001 A 
ATOM      7  C   UNL     1       3.296  -6.622  -3.750  0.00  0.00    +0.002 A 
ATOM      8  C   UNL     1       2.938  -5.327  -3.939  0.00  0.00    +0.026 A 
ATOM      9  C   UNL     1       1.890  -4.810  -3.123  0.00  0.00    +0.043 A 
ATOM     10  N   UNL     1       1.334  -3.612  -3.112  0.00  0.00    -0.375 N 
ATOM     11  C   UNL     1      -0.516  -5.368  -0.252  0.00  0.00    +0.052 C 
ATOM     12  C   UNL     1      -0.299  -4.251   0.785  0.00  0.00    +0.114 C 
ATOM     13  N   UNL     1      -0.390  -2.946   0.122  0.00  0.00    -0.276 N 
ATOM     14  C   UNL     1      -1.300  -2.045   0.543  0.00  0.00    +0.307 C 
ATOM     15  O   UNL     1      -1.436  -0.994  -0.053  0.00  0.00    -0.252 OA
ATOM     16  N   UNL     1      -2.059  -2.309   1.625  0.00  0.00    -0.269 N 
ATOM     17  H   UNL     1      -1.898  -3.111   2.146  0.00  0.00    +0.156 HD
ATOM     18  H   UNL     1       1.582  -2.849  -3.658  0.00  0.00    +0.160 HD
ENDROOT
BRANCH   1  23
ATOM     19  C   UNL     1      -0.931   0.206  -3.066  0.00  0.00    +0.000 A 
ATOM     20  C   UNL     1      -0.392   1.313  -2.437  0.00  0.00    +0.003 A 
ATOM     21  C   UNL     1       0.436   1.152  -1.343  0.00  0.00    +0.039 A 
ATOM     22  C   UNL     1       0.726  -0.119  -0.876  0.00  0.00    +0.128 A 
ATOM     23  C   UNL     1       0.186  -1.227  -1.506  0.00  0.00    +0.010 A 
ATOM     24  C   UNL     1      -0.642  -1.063  -2.600  0.00  0.00    +0.008 A 
ATOM     25  F   UNL     1       1.536  -0.277   0.194  0.00  0.00    -0.205 F 
ENDBRANCH   1  23
BRANCH  16  26
ATOM     26  C   UNL     1      -3.078  -1.425   1.998  0.00  0.00    +0.035 A 
ATOM     27  C   UNL     1      -2.914  -0.058   1.817  0.00  0.00    +0.023 A 
ATOM     28  C   UNL     1      -3.922   0.812   2.186  0.00  0.00    +0.002 A 
ATOM     29  C   UNL     1      -5.093   0.322   2.734  0.00  0.00    +0.012 A 
ATOM     30  C   UNL     1      -5.259  -1.038   2.915  0.00  0.00    +0.057 A 
ATOM     31  C   UNL     1      -4.258  -1.914   2.543  0.00  0.00    +0.035 A 
BRANCH  30  32
ATOM     32  C   UNL     1      -6.537  -1.567   3.514  0.00  0.00    +0.417 C 
ATOM     33  F   UNL     1      -7.394  -0.500   3.802  0.00  0.00    -0.166 F 
ATOM     34  F   UNL     1      -7.157  -2.430   2.603  0.00  0.00    -0.166 F 
ATOM     35  F   UNL     1      -6.247  -2.263   4.692  0.00  0.00    -0.166 F 
ENDBRANCH  30  32
ENDBRANCH  16  26
TORSDOF 3
