REMARK  Name = ZINC12689324
REMARK  7 active torsions:
REMARK  status: ('A' for Active; 'I' for Inactive)
REMARK    1  A    between atoms: C_1  and  C_2
REMARK    2  A    between atoms: C_2  and  C_4
REMARK    3  A    between atoms: C_9  and  N_10
REMARK    4  A    between atoms: C_11  and  C_13
REMARK    5  A    between atoms: C_13  and  N_14
REMARK    6  A    between atoms: N_17  and  S_20
REMARK    7  A    between atoms: S_20  and  C_23
REMARK                            x       y       z     vdW  Elec       q    Type
REMARK                         _______ _______ _______ _____ _____    ______ ____
ROOT
ATOM      1  N   UNL     1       1.201  -6.215  -0.642  0.00  0.00    -0.291 NA
ATOM      2  C   UNL     1       0.469  -6.837   0.470  0.00  0.00    +0.102 C 
ATOM      3  C   UNL     1       0.118  -8.282   0.101  0.00  0.00    +0.125 C 
ATOM      4  N   UNL     1       1.352  -8.976  -0.298  0.00  0.00    -0.174 NA
ATOM      5  C   UNL     1       2.210  -8.344  -1.311  0.00  0.00    +0.125 C 
ATOM      6  C   UNL     1       2.479  -6.896  -0.886  0.00  0.00    +0.102 C 
ENDROOT
BRANCH   4   7
ATOM      7  S   UNL     1       1.764 -10.431   0.377  0.00  0.00    +0.064 S 
ATOM      8  O   UNL     1       3.174 -10.556   0.244  0.00  0.00    -0.153 OA
ATOM      9  O   UNL     1       1.109 -10.496   1.636  0.00  0.00    -0.153 OA
BRANCH   7  10
ATOM     10  C   UNL     1       1.051 -11.692  -0.627  0.00  0.00    +0.144 A 
ATOM     11  C   UNL     1       1.866 -12.569  -1.317  0.00  0.00    +0.034 A 
ATOM     12  C   UNL     1       1.308 -13.559  -2.105  0.00  0.00    +0.043 A 
ATOM     13  C   UNL     1      -0.068 -13.673  -2.204  0.00  0.00    +0.161 A 
ATOM     14  C   UNL     1      -0.887 -12.794  -1.512  0.00  0.00    +0.195 A 
ATOM     15  C   UNL     1      -0.326 -11.806  -0.718  0.00  0.00    +0.187 A 
ATOM     16  F   UNL     1      -1.122 -10.952  -0.038  0.00  0.00    -0.200 F 
ATOM     17  F   UNL     1      -2.230 -12.904  -1.608  0.00  0.00    -0.199 F 
ATOM     18  F   UNL     1      -0.612 -14.640  -2.975  0.00  0.00    -0.202 F 
ENDBRANCH   7  10
ENDBRANCH   4   7
BRANCH   1  19
ATOM     19  C   UNL     1       1.406  -4.781  -0.400  0.00  0.00    +0.180 C 
BRANCH  19  21
ATOM     20  N   UNL     1       0.017  -2.745  -0.194  0.00  0.00    -0.284 N 
ATOM     21  C   UNL     1       0.074  -4.076  -0.398  0.00  0.00    +0.231 C 
ATOM     22  O   UNL     1      -0.946  -4.706  -0.580  0.00  0.00    -0.274 OA
ATOM     23  H   UNL     1       0.835  -2.232  -0.105  0.00  0.00    +0.155 HD
BRANCH  20  29
ATOM     24  C   UNL     1      -1.439  -1.125   0.874  0.00  0.00    +0.042 A 
ATOM     25  C   UNL     1      -2.684  -0.483   0.947  0.00  0.00    +0.062 A 
ATOM     26  C   UNL     1      -3.685  -0.820   0.061  0.00  0.00    +0.167 A 
ATOM     27  C   UNL     1      -3.462  -1.800  -0.911  0.00  0.00    +0.168 A 
ATOM     28  C   UNL     1      -2.235  -2.439  -0.990  0.00  0.00    +0.073 A 
ATOM     29  C   UNL     1      -1.218  -2.106  -0.109  0.00  0.00    +0.048 A 
ATOM     30  O   UNL     1      -4.599  -1.943  -1.651  0.00  0.00    -0.453 OA
ATOM     31  C   UNL     1      -5.647  -1.342  -0.868  0.00  0.00    +0.466 C 
ATOM     32  O   UNL     1      -4.962  -0.354  -0.076  0.00  0.00    -0.453 OA
BRANCH  24  34
ATOM     33  C   UNL     1      -0.571   0.365   2.784  0.00  0.00    +0.091 C 
ATOM     34  C   UNL     1      -0.373  -0.770   1.813  0.00  0.00    +0.162 C 
ATOM     35  O   UNL     1       0.670  -1.390   1.809  0.00  0.00    -0.292 OA
ENDBRANCH  24  34
ENDBRANCH  20  29
ENDBRANCH  19  21
ENDBRANCH   1  19
TORSDOF 6
