REMARK  Name = ZINC39695829
REMARK  8 active torsions:
REMARK  status: ('A' for Active; 'I' for Inactive)
REMARK    1  A    between atoms: C_1  and  C_2
REMARK    2  A    between atoms: C_7  and  C_12
REMARK    3  A    between atoms: C_12  and  C_14
REMARK    4  A    between atoms: C_12  and  N_15
REMARK    5  A    between atoms: C_16  and  C_18
REMARK    6  A    between atoms: C_29  and  C_31
REMARK    7  A    between atoms: C_34  and  C_42
REMARK    8  A    between atoms: C_36  and  C_38
REMARK                            x       y       z     vdW  Elec       q    Type
REMARK                         _______ _______ _______ _____ _____    ______ ____
ROOT
ATOM      1  C   UNL     1      -5.545   6.022  -8.548  0.00  0.00    +0.100 C 
ATOM      2  C   UNL     1      -4.513   6.803  -7.704  0.00  0.00    +0.121 C 
ATOM      3  N   UNL     1      -4.875   8.228  -7.893  0.00  0.00    -0.300 N 
ATOM      4  C   UNL     1      -6.358   8.235  -7.886  0.00  0.00    +0.115 C 
ATOM      5  C   UNL     1      -6.754   6.965  -8.664  0.00  0.00    -0.004 C 
ATOM      6  C   UNL     1      -7.987   6.324  -8.034  0.00  0.00    -0.010 C 
ATOM      7  C   UNL     1      -9.189   7.254  -8.213  0.00  0.00    -0.082 C 
ATOM      8  N   UNL     1      -9.416   7.494  -9.643  0.00  0.00    +0.379 N 
ATOM      9  C   UNL     1      -8.263   8.195 -10.222  0.00  0.00    -0.082 C 
ATOM     10  C   UNL     1      -7.021   7.304 -10.127  0.00  0.00    -0.010 C 
ATOM     11  C   UNL     1      -4.045   9.279  -8.040  0.00  0.00    +0.226 C 
ATOM     12  O   UNL     1      -4.498  10.394  -8.187  0.00  0.00    -0.275 OA
ATOM     13  H   UNL     1      -9.542   6.611 -10.115  0.00  0.00    -0.086 HD
ATOM     14  H   UNL     1     -10.244   8.058  -9.762  0.00  0.00    -0.086 HD
ENDROOT
BRANCH  11  15
ATOM     15  C   UNL     1      -2.552   9.069  -8.022  0.00  0.00    +0.150 C 
ATOM     16  C   UNL     1      -1.848  10.227  -7.336  0.00  0.00    +0.030 C 
ATOM     17  C   UNL     1      -1.323  10.980  -8.277  0.00  0.00    +0.092 C 
ATOM     18  O   UNL     1      -1.563  10.529  -9.529  0.00  0.00    -0.484 OA
ATOM     19  C   UNL     1      -1.964   9.146  -9.452  0.00  0.00    +0.292 C 
ATOM     20  C   UNL     1      -0.530  12.229  -7.989  0.00  0.00    +0.085 C 
BRANCH  19  21
ATOM     21  C   UNL     1      -3.030   8.824 -10.501  0.00  0.00    +0.427 C 
ATOM     22  F   UNL     1      -4.015   9.818 -10.485  0.00  0.00    -0.167 F 
ATOM     23  F   UNL     1      -2.438   8.774 -11.768  0.00  0.00    -0.167 F 
ATOM     24  F   UNL     1      -3.612   7.586 -10.210  0.00  0.00    -0.167 F 
ENDBRANCH  19  21
ENDBRANCH  11  15
BRANCH   1  26
ATOM     25  N   UNL     1      -6.326   3.675  -8.567  0.00  0.00    -0.305 N 
ATOM     26  C   UNL     1      -5.939   4.747  -7.848  0.00  0.00    +0.219 C 
ATOM     27  O   UNL     1      -5.907   4.686  -6.637  0.00  0.00    -0.275 OA
ATOM     28  H   UNL     1      -6.351   3.724  -9.535  0.00  0.00    +0.149 HD
BRANCH  25  29
ATOM     29  C   UNL     1      -6.709   2.436  -7.886  0.00  0.00    +0.136 C 
ATOM     30  C   UNL     1      -8.182   2.512  -7.479  0.00  0.00    +0.036 C 
BRANCH  29  37
ATOM     31  C   UNL     1      -5.576  -4.048 -11.358  0.00  0.00    +0.044 C 
ATOM     32  C   UNL     1      -5.829  -2.586 -11.097  0.00  0.00    -0.048 A 
ATOM     33  C   UNL     1      -5.974  -1.710 -12.163  0.00  0.00    +0.005 A 
ATOM     34  C   UNL     1      -6.204  -0.381 -11.948  0.00  0.00    +0.030 A 
ATOM     35  C   UNL     1      -6.295   0.106 -10.641  0.00  0.00    +0.089 A 
ATOM     36  N   UNL     1      -6.509   1.340 -10.115  0.00  0.00    -0.231 NA
ATOM     37  C   UNL     1      -6.504   1.268  -8.816  0.00  0.00    +0.128 A 
ATOM     38  H   UNL     1      -6.235  -0.333  -7.505  0.00  0.00    +0.167 HD
ATOM     39  N   UNL     1      -6.285  -0.015  -8.420  0.00  0.00    -0.340 N 
ATOM     40  C   UNL     1      -6.148  -0.779  -9.561  0.00  0.00    +0.067 A 
ATOM     41  C   UNL     1      -5.920  -2.128  -9.799  0.00  0.00    +0.031 A 
ENDBRANCH  29  37
ENDBRANCH  25  29
ENDBRANCH   1  26
TORSDOF 5
