REMARK  Name = ZINC39549599
REMARK  9 active torsions:
REMARK  status: ('A' for Active; 'I' for Inactive)
REMARK    1  A    between atoms: C_7  and  C_23
REMARK    2  A    between atoms: C_9  and  O_14
REMARK    3  A    between atoms: O_14  and  C_15
REMARK    4  A    between atoms: C_15  and  C_17
REMARK    5  A    between atoms: C_17  and  C_18
REMARK    6  A    between atoms: C_18  and  C_19
REMARK    7  A    between atoms: C_19  and  C_20
REMARK    8  A    between atoms: C_20  and  C_21
REMARK    9  A    between atoms: C_21  and  N_22
REMARK                            x       y       z     vdW  Elec       q    Type
REMARK                         _______ _______ _______ _____ _____    ______ ____
ROOT
ATOM      1  C   UNL     1      -0.203   1.289   0.302  0.00  0.00    +0.001 A 
ATOM      2  C   UNL     1       0.946   2.064   0.295  0.00  0.00    +0.002 A 
ATOM      3  C   UNL     1       2.182   1.466   0.183  0.00  0.00    +0.024 A 
ATOM      4  C   UNL     1       2.295   0.078   0.077  0.00  0.00    +0.043 A 
ATOM      5  C   UNL     1       1.141  -0.703   0.086  0.00  0.00    +0.022 A 
ATOM      6  C   UNL     1      -0.111  -0.079   0.198  0.00  0.00    +0.012 A 
ATOM      7  C   UNL     1       1.166  -2.171  -0.017  0.00  0.00    +0.080 C 
ATOM      8  N   UNL     1       2.018  -2.936   0.568  0.00  0.00    -0.232 NA
ATOM      9  C   UNL     1       3.084  -2.399   1.414  0.00  0.00    +0.381 C 
ATOM     10  C   UNL     1       3.999  -1.556   0.568  0.00  0.00    +0.281 C 
ATOM     11  O   UNL     1       5.156  -1.894   0.433  0.00  0.00    -0.269 OA
ATOM     12  N   UNL     1       3.572  -0.449  -0.036  0.00  0.00    -0.280 N 
ATOM     13  H   UNL     1       4.203   0.025  -0.600  0.00  0.00    +0.155 HD
ENDROOT
BRANCH   7  14
ATOM     14  C   UNL     1       0.131  -2.816  -0.858  0.00  0.00    +0.019 A 
ATOM     15  C   UNL     1      -0.831  -3.641  -0.275  0.00  0.00    +0.011 A 
ATOM     16  C   UNL     1      -1.792  -4.239  -1.063  0.00  0.00    +0.001 A 
ATOM     17  C   UNL     1      -1.804  -4.022  -2.430  0.00  0.00    +0.001 A 
ATOM     18  C   UNL     1      -0.854  -3.206  -3.015  0.00  0.00    +0.020 A 
ATOM     19  C   UNL     1       0.111  -2.596  -2.236  0.00  0.00    +0.050 A 
ATOM     20 CL   UNL     1       1.299  -1.566  -2.971  0.00  0.00    -0.083 Cl
ENDBRANCH   7  14
BRANCH   9  21
ATOM     21  O   UNL     1       2.514  -1.598   2.451  0.00  0.00    -0.430 OA
BRANCH  21  22
ATOM     22  C   UNL     1       1.917  -2.246   3.463  0.00  0.00    +0.309 C 
ATOM     23  O   UNL     1       1.879  -3.454   3.469  0.00  0.00    -0.251 OA
BRANCH  22  24
ATOM     24  C   UNL     1       1.293  -1.467   4.593  0.00  0.00    +0.121 C 
BRANCH  24  25
ATOM     25  C   UNL     1       0.686  -2.438   5.607  0.00  0.00    +0.011 C 
BRANCH  25  26
ATOM     26  C   UNL     1       0.053  -1.648   6.754  0.00  0.00    -0.001 C 
BRANCH  26  27
ATOM     27  C   UNL     1      -0.555  -2.619   7.769  0.00  0.00    -0.020 C 
BRANCH  27  28
ATOM     28  C   UNL     1      -1.188  -1.829   8.915  0.00  0.00    -0.086 C 
BRANCH  28  29
ATOM     29  N   UNL     1      -1.771  -2.761   9.889  0.00  0.00    +0.378 N 
ATOM     30  H   UNL     1      -2.478  -3.321   9.437  0.00  0.00    -0.090 HD
ATOM     31  H   UNL     1      -1.048  -3.362  10.254  0.00  0.00    -0.090 HD
ATOM     32  H   UNL     1      -2.189  -2.240  10.646  0.00  0.00    -0.090 HD
ENDBRANCH  28  29
ENDBRANCH  27  28
ENDBRANCH  26  27
ENDBRANCH  25  26
ENDBRANCH  24  25
ENDBRANCH  22  24
ENDBRANCH  21  22
ENDBRANCH   9  21
TORSDOF 9
