REMARK  Name = ZINC57898660
REMARK  13 active torsions:
REMARK  status: ('A' for Active; 'I' for Inactive)
REMARK    1  A    between atoms: C_1  and  C_2
REMARK    2  A    between atoms: C_5  and  C_8
REMARK    3  A    between atoms: C_8  and  O_9
REMARK    4  A    between atoms: O_9  and  C_10
REMARK    5  A    between atoms: C_13  and  C_17
REMARK    6  A    between atoms: C_15  and  N_16
REMARK    7  A    between atoms: C_17  and  C_18
REMARK    8  A    between atoms: C_18  and  C_19
REMARK    9  A    between atoms: C_19  and  N_20
REMARK   10  A    between atoms: N_20  and  C_21
REMARK   11  A    between atoms: N_20  and  C_22
REMARK   12  A    between atoms: C_22  and  C_23
REMARK   13  A    between atoms: C_23  and  O_24
REMARK                            x       y       z     vdW  Elec       q    Type
REMARK                         _______ _______ _______ _____ _____    ______ ____
ROOT
ATOM      1  C   UNL     1       1.123  -5.938  -0.653  0.00  0.00    +0.142 A 
ATOM      2  C   UNL     1       0.065  -6.830  -0.704  0.00  0.00    +0.048 A 
ATOM      3  C   UNL     1       0.301  -8.190  -0.614  0.00  0.00    +0.007 A 
ATOM      4  C   UNL     1       1.593  -8.663  -0.474  0.00  0.00    -0.045 A 
ATOM      5  C   UNL     1       2.654  -7.779  -0.424  0.00  0.00    +0.030 A 
ATOM      6  C   UNL     1       2.425  -6.414  -0.519  0.00  0.00    +0.067 A 
ENDROOT
BRANCH   6   7
ATOM      7  N   UNL     1       3.499  -5.517  -0.473  0.00  0.00    -0.355 N 
ATOM      8  H   UNL     1       3.337  -4.563  -0.536  0.00  0.00    +0.142 HD
ATOM      9  H   UNL     1       4.405  -5.850  -0.380  0.00  0.00    +0.142 HD
ENDBRANCH   6   7
BRANCH   1  10
ATOM     10  O   UNL     1       0.891  -4.601  -0.741  0.00  0.00    -0.486 OA
BRANCH  10  11
ATOM     11  C   UNL     1      -0.469  -4.185  -0.878  0.00  0.00    +0.264 C 
BRANCH  11  16
ATOM     12  C   UNL     1      -0.704   1.580  -1.190  0.00  0.00    +0.044 C 
ATOM     13  C   UNL     1      -0.642   0.077  -1.109  0.00  0.00    -0.050 A 
ATOM     14  C   UNL     1      -0.512  -0.673  -2.263  0.00  0.00    +0.004 A 
ATOM     15  C   UNL     1      -0.456  -2.053  -2.188  0.00  0.00    +0.007 A 
ATOM     16  C   UNL     1      -0.529  -2.682  -0.959  0.00  0.00    -0.010 A 
ATOM     17  C   UNL     1      -0.659  -1.931   0.195  0.00  0.00    +0.007 A 
ATOM     18  C   UNL     1      -0.711  -0.552   0.120  0.00  0.00    +0.004 A 
ENDBRANCH  11  16
ENDBRANCH  10  11
ENDBRANCH   1  10
BRANCH   4  19
ATOM     19  C   UNL     1       1.844 -10.146  -0.377  0.00  0.00    +0.033 C 
BRANCH  19  20
ATOM     20  C   UNL     1       2.057 -10.720  -1.779  0.00  0.00    -0.014 C 
BRANCH  20  21
ATOM     21  C   UNL     1       2.312 -12.226  -1.680  0.00  0.00    -0.079 C 
BRANCH  21  22
ATOM     22  N   UNL     1       2.517 -12.777  -3.026  0.00  0.00    +0.379 N 
ATOM     23  C   UNL     1       3.743 -12.213  -3.605  0.00  0.00    -0.096 C 
ATOM     24  H   UNL     1       1.729 -12.540  -3.610  0.00  0.00    -0.082 HD
BRANCH  22  25
ATOM     25  C   UNL     1       2.642 -14.238  -2.942  0.00  0.00    -0.051 C 
BRANCH  25  26
ATOM     26  C   UNL     1       1.310 -14.840  -2.490  0.00  0.00    +0.137 C 
BRANCH  26  27
ATOM     27  O   UNL     1       0.315 -14.596  -3.487  0.00  0.00    -0.397 OA
ATOM     28  H   UNL     1      -0.557 -14.951  -3.267  0.00  0.00    +0.209 HD
ENDBRANCH  26  27
ENDBRANCH  25  26
ENDBRANCH  22  25
ENDBRANCH  21  22
ENDBRANCH  20  21
ENDBRANCH  19  20
ENDBRANCH   4  19
TORSDOF 11
