REMARK  Name = ZINC66906218
REMARK  6 active torsions:
REMARK  status: ('A' for Active; 'I' for Inactive)
REMARK    1  A    between atoms: C_10  and  C_11
REMARK    2  A    between atoms: C_10  and  O_26
REMARK    3  A    between atoms: C_11  and  N_12
REMARK    4  A    between atoms: N_12  and  C_13
REMARK    5  A    between atoms: C_13  and  C_14
REMARK    6  A    between atoms: N_17  and  C_19
REMARK                            x       y       z     vdW  Elec       q    Type
REMARK                         _______ _______ _______ _____ _____    ______ ____
ROOT
ATOM      1  N   UNL     1       4.733   1.481  -0.621  0.00  0.00    +0.384 N 
ATOM      2  H   UNL     1       3.800   1.863  -0.595  0.00  0.00    -0.085 HD
ATOM      3  H   UNL     1       5.160   1.575   0.289  0.00  0.00    -0.085 HD
ENDROOT
BRANCH   1   4
ATOM      4  C   UNL     1       4.671   0.060  -0.987  0.00  0.00    -0.042 C 
BRANCH   4  14
ATOM      5  C   UNL     1       3.660  -4.803  -1.138  0.00  0.00    +0.000 A 
ATOM      6  C   UNL     1       3.645  -3.812  -2.101  0.00  0.00    +0.000 A 
ATOM      7  C   UNL     1       3.670  -2.486  -1.720  0.00  0.00    +0.006 A 
ATOM      8  C   UNL     1       3.712  -2.139  -0.375  0.00  0.00    -0.015 A 
ATOM      9  C   UNL     1       3.731  -3.127   0.584  0.00  0.00    -0.042 A 
ATOM     10  C   UNL     1       3.702  -4.461   0.198  0.00  0.00    +0.004 A 
ATOM     11  C   UNL     1       3.793  -2.824   2.058  0.00  0.00    +0.035 C 
ATOM     12  C   UNL     1       3.389  -1.376   2.327  0.00  0.00    +0.008 C 
ATOM     13  C   UNL     1       4.209  -0.466   1.406  0.00  0.00    +0.038 C 
ATOM     14  C   UNL     1       3.729  -0.673  -0.029  0.00  0.00    +0.076 C 
BRANCH  14  15
ATOM     15  O   UNL     1       2.410  -0.141  -0.167  0.00  0.00    -0.386 OA
ATOM     16  H   UNL     1       2.044  -0.221  -1.058  0.00  0.00    +0.211 HD
ENDBRANCH  14  15
ENDBRANCH   4  14
ENDBRANCH   1   4
BRANCH   1  17
ATOM     17  C   UNL     1       5.533   2.208  -1.615  0.00  0.00    -0.044 C 
BRANCH  17  18
ATOM     18  C   UNL     1       5.597   3.666  -1.239  0.00  0.00    -0.027 A 
ATOM     19  C   UNL     1       4.694   4.659  -1.635  0.00  0.00    +0.136 A 
ATOM     20  N   UNL     1       5.079   5.795  -1.111  0.00  0.00    -0.175 NA
ATOM     21  N   UNL     1       6.240   5.562  -0.363  0.00  0.00    -0.240 N 
ATOM     22  C   UNL     1       6.534   4.245  -0.453  0.00  0.00    +0.116 A 
BRANCH  21  23
ATOM     23  C   UNL     1       6.965   6.523   0.356  0.00  0.00    +0.066 A 
ATOM     24  C   UNL     1       8.108   6.153   1.053  0.00  0.00    +0.030 A 
ATOM     25  C   UNL     1       8.821   7.101   1.760  0.00  0.00    +0.040 A 
ATOM     26  C   UNL     1       8.397   8.419   1.775  0.00  0.00    +0.124 A 
ATOM     27  C   UNL     1       7.257   8.790   1.081  0.00  0.00    +0.040 A 
ATOM     28  C   UNL     1       6.545   7.846   0.368  0.00  0.00    +0.030 A 
ATOM     29  F   UNL     1       9.096   9.345   2.467  0.00  0.00    -0.205 F 
ENDBRANCH  21  23
ENDBRANCH  17  18
ENDBRANCH   1  17
TORSDOF 6
