REMARK  Name = ZINC04585201
REMARK  4 active torsions:
REMARK  status: ('A' for Active; 'I' for Inactive)
REMARK    1  A    between atoms: C_7  and  C_20
REMARK    2  A    between atoms: C_8  and  N_19
REMARK    3  A    between atoms: C_9  and  C_10
REMARK    4  A    between atoms: C_10  and  C_12
REMARK                            x       y       z     vdW  Elec       q    Type
REMARK                         _______ _______ _______ _____ _____    ______ ____
ROOT
ATOM      1  C   UNL     1      -0.050   1.079  -0.009  0.00  0.00    +0.003 A 
ATOM      2  C   UNL     1       1.155   1.793  -0.023  0.00  0.00    +0.018 A 
ATOM      3  C   UNL     1       1.144   3.146  -0.011  0.00  0.00    +0.092 A 
ATOM      4  N   UNL     1      -0.031   3.834   0.015  0.00  0.00    -0.311 N 
ATOM      5  C   UNL     1      -1.219   3.162   0.029  0.00  0.00    +0.061 A 
ATOM      6  C   UNL     1      -1.233   1.762   0.011  0.00  0.00    +0.027 A 
ATOM      7  C   UNL     1      -2.266   4.112   0.054  0.00  0.00    +0.083 A 
ATOM      8  C   UNL     1      -1.669   5.388   0.055  0.00  0.00    +0.067 A 
ATOM      9  C   UNL     1      -0.288   5.198   0.031  0.00  0.00    +0.116 A 
ENDROOT
BRANCH   7  10
ATOM     10  C   UNL     1      -3.700   3.825   0.075  0.00  0.00    +0.245 C 
ATOM     11  O   UNL     1      -4.279   3.696   1.139  0.00  0.00    -0.270 OA
ATOM     12  N   UNL     1      -4.380   3.702  -1.082  0.00  0.00    -0.325 N 
ATOM     13  H   UNL     1      -3.919   3.805  -1.929  0.00  0.00    +0.145 HD
ATOM     14  H   UNL     1      -5.331   3.511  -1.068  0.00  0.00    +0.145 HD
ENDBRANCH   7  10
BRANCH   8  15
ATOM     15  N   UNL     1      -2.330   6.605   0.076  0.00  0.00    -0.356 N 
ATOM     16  H   UNL     1      -3.298   6.632   0.018  0.00  0.00    +0.142 HD
ATOM     17  H   UNL     1      -1.825   7.430   0.150  0.00  0.00    +0.142 HD
ENDBRANCH   8  15
BRANCH   9  18
ATOM     18  C   UNL     1       0.683   6.218   0.024  0.00  0.00    +0.212 C 
ATOM     19  O   UNL     1       1.029   6.723  -1.030  0.00  0.00    -0.285 OA
BRANCH  18  20
ATOM     20  C   UNL     1       1.283   6.676   1.297  0.00  0.00    +0.024 A 
ATOM     21  C   UNL     1       0.970   6.028   2.492  0.00  0.00    +0.013 A 
ATOM     22  C   UNL     1       1.536   6.457   3.675  0.00  0.00    +0.016 A 
ATOM     23  C   UNL     1       2.406   7.535   3.678  0.00  0.00    +0.018 A 
ATOM     24  C   UNL     1       2.716   8.185   2.496  0.00  0.00    +0.016 A 
ATOM     25  C   UNL     1       2.160   7.762   1.307  0.00  0.00    +0.013 A 
ATOM     26 BR   UNL     1       3.173   8.120   5.304  0.00  0.00    -0.050 Br
ENDBRANCH  18  20
ENDBRANCH   9  18
TORSDOF 4
