REMARK  Name = ZINC21817934
REMARK  4 active torsions:
REMARK  status: ('A' for Active; 'I' for Inactive)
REMARK    1  A    between atoms: C_3  and  C_11
REMARK    2  A    between atoms: C_6  and  C_7
REMARK    3  A    between atoms: C_11  and  O_12
REMARK    4  A    between atoms: O_12  and  C_13
REMARK                            x       y       z     vdW  Elec       q    Type
REMARK                         _______ _______ _______ _____ _____    ______ ____
ROOT
ATOM      1  C   UNL     1       1.174   1.780   0.000  0.00  0.00    +0.012 A 
ATOM      2  C   UNL     1      -0.013   1.076   0.008  0.00  0.00    +0.010 A 
ATOM      3  C   UNL     1      -1.220   1.749   0.017  0.00  0.00    +0.025 A 
ATOM      4  C   UNL     1      -1.247   3.135   0.030  0.00  0.00    +0.130 A 
ATOM      5  C   UNL     1      -0.065   3.850   0.022  0.00  0.00    +0.050 A 
ATOM      6  C   UNL     1       1.155   3.175   0.008  0.00  0.00    +0.015 A 
ATOM      7  F   UNL     1      -2.430   3.787   0.044  0.00  0.00    -0.205 F 
ENDROOT
BRANCH   6   8
ATOM      8  C   UNL     1       2.426   3.935   0.000  0.00  0.00    +0.094 C 
ATOM      9  N   UNL     1       3.564   3.302  -0.013  0.00  0.00    -0.387 N 
ATOM     10  N   UNL     1       2.404   5.313   0.007  0.00  0.00    -0.345 N 
ATOM     11  H   UNL     1       4.508   3.867  -0.019  0.00  0.00    +0.157 HD
ATOM     12  H   UNL     1       3.348   5.878   0.002  0.00  0.00    +0.144 HD
ATOM     13  H   UNL     1       1.443   5.848   0.018  0.00  0.00    +0.144 HD
ATOM     14  H   UNL     1       3.581   2.202  -0.019  0.00  0.00    +0.157 HD
ENDBRANCH   6   8
BRANCH   3  15
ATOM     15  C   UNL     1      -2.512   0.973   0.019  0.00  0.00    +0.267 C 
BRANCH  15  16
ATOM     16  O   UNL     1      -2.227  -0.427   0.010  0.00  0.00    -0.486 OA
BRANCH  16  17
ATOM     17  C   UNL     1      -3.291  -1.273   0.011  0.00  0.00    +0.135 A 
ATOM     18  C   UNL     1      -4.582  -0.766   0.020  0.00  0.00    +0.048 A 
ATOM     19  C   UNL     1      -5.662  -1.628   0.020  0.00  0.00    +0.023 A 
ATOM     20  C   UNL     1      -5.457  -2.996   0.011  0.00  0.00    +0.042 A 
ATOM     21  C   UNL     1      -4.170  -3.505   0.002  0.00  0.00    +0.039 A 
ATOM     22  C   UNL     1      -3.087  -2.646  -0.004  0.00  0.00    +0.061 A 
ATOM     23 BR   UNL     1      -1.328  -3.341  -0.023  0.00  0.00    -0.046 Br
ATOM     24 CL   UNL     1      -6.815  -4.077   0.012  0.00  0.00    -0.084 Cl
ENDBRANCH  16  17
ENDBRANCH  15  16
ENDBRANCH   3  15
TORSDOF 4
