REMARK  Name = ZINC09067281
REMARK  8 active torsions:
REMARK  status: ('A' for Active; 'I' for Inactive)
REMARK    1  A    between atoms: C_1  and  C_2
REMARK    2  A    between atoms: C_2  and  C_3
REMARK    3  A    between atoms: C_3  and  C_4
REMARK    4  A    between atoms: C_4  and  C_5
REMARK    5  A    between atoms: C_5  and  C_29
REMARK    6  A    between atoms: N_8  and  C_12
REMARK    7  A    between atoms: C_12  and  C_13
REMARK    8  A    between atoms: N_18  and  C_19
REMARK                            x       y       z     vdW  Elec       q    Type
REMARK                         _______ _______ _______ _____ _____    ______ ____
ROOT
ATOM      1  C   UNL     1       1.149   3.593   0.010  0.00  0.00    +0.138 C 
ATOM      2  C   UNL     1       1.001   4.131  -1.399  0.00  0.00    +0.251 C 
ATOM      3  O   UNL     1       1.765   3.974  -2.327  0.00  0.00    -0.272 OA
ATOM      4  N   UNL     1      -0.156   4.823  -1.405  0.00  0.00    -0.215 N 
ATOM      5  C   UNL     1      -0.753   4.796  -0.208  0.00  0.00    +0.310 C 
ATOM      6  O   UNL     1      -1.808   5.349   0.033  0.00  0.00    -0.252 OA
ATOM      7  N   UNL     1      -0.054   4.090   0.699  0.00  0.00    -0.281 N 
ATOM      8  H   UNL     1      -0.296   3.937   1.626  0.00  0.00    +0.152 HD
ENDROOT
BRANCH   1   9
ATOM      9  C   UNL     1       1.171   2.086   0.002  0.00  0.00    -0.015 A 
ATOM     10  C   UNL     1      -0.017   1.378   0.010  0.00  0.00    +0.009 A 
ATOM     11  C   UNL     1       0.002  -0.004   0.002  0.00  0.00    +0.039 A 
ATOM     12  C   UNL     1       1.211  -0.679  -0.013  0.00  0.00    +0.123 A 
ATOM     13  C   UNL     1       2.399   0.031  -0.021  0.00  0.00    +0.039 A 
ATOM     14  C   UNL     1       2.378   1.413  -0.013  0.00  0.00    +0.009 A 
ATOM     15  F   UNL     1       1.230  -2.030  -0.020  0.00  0.00    -0.205 F 
ENDBRANCH   1   9
BRANCH   1  16
ATOM     16  C   UNL     1       2.414   4.144   0.671  0.00  0.00    +0.040 C 
BRANCH  16  17
ATOM     17  C   UNL     1       2.311   5.667   0.779  0.00  0.00    +0.003 C 
BRANCH  17  19
ATOM     18  C   UNL     1       3.473   7.741   1.548  0.00  0.00    +0.004 C 
ATOM     19  C   UNL     1       3.576   6.218   1.440  0.00  0.00    -0.003 C 
ENDBRANCH  17  19
ENDBRANCH  16  17
ENDBRANCH   1  16
BRANCH   4  20
ATOM     20  C   UNL     1      -0.693   5.518  -2.577  0.00  0.00    +0.214 C 
BRANCH  20  21
ATOM     21  C   UNL     1      -0.176   6.933  -2.603  0.00  0.00    +0.238 C 
ATOM     22  O   UNL     1       0.568   7.323  -1.729  0.00  0.00    -0.274 OA
ATOM     23  N   UNL     1      -0.540   7.765  -3.599  0.00  0.00    -0.239 N 
ATOM     24  C   UNL     1      -0.078   9.031  -3.622  0.00  0.00    +0.306 C 
ATOM     25  O   UNL     1       0.668   9.422  -2.746  0.00  0.00    -0.252 OA
ATOM     26  N   UNL     1      -0.443   9.863  -4.618  0.00  0.00    -0.294 N 
ATOM     27  H   UNL     1      -1.136   7.454  -4.298  0.00  0.00    +0.159 HD
ATOM     28  H   UNL     1      -1.038   9.552  -5.317  0.00  0.00    +0.151 HD
BRANCH  26  29
ATOM     29  C   UNL     1       0.060  11.239  -4.643  0.00  0.00    +0.037 C 
ATOM     30  C   UNL     1       1.588  11.223  -4.716  0.00  0.00    +0.029 C 
ATOM     31  C   UNL     1       2.113  12.659  -4.743  0.00  0.00    -0.008 C 
ATOM     32  C   UNL     1       1.552  13.385  -5.968  0.00  0.00    +0.007 C 
ATOM     33  C   UNL     1       0.024  13.402  -5.894  0.00  0.00    -0.008 C 
ATOM     34  C   UNL     1      -0.501  11.965  -5.868  0.00  0.00    +0.029 C 
ATOM     35  C   UNL     1      -0.418  14.130  -4.623  0.00  0.00    +0.007 C 
ATOM     36  C   UNL     1       0.143  13.404  -3.399  0.00  0.00    -0.008 C 
ATOM     37  C   UNL     1       1.672  13.387  -3.472  0.00  0.00    +0.007 C 
ATOM     38  C   UNL     1      -0.382  11.967  -3.372  0.00  0.00    +0.029 C 
ENDBRANCH  26  29
ENDBRANCH  20  21
ENDBRANCH   4  20
TORSDOF 7
