REMARK  Name = ZINC44987482
REMARK  5 active torsions:
REMARK  status: ('A' for Active; 'I' for Inactive)
REMARK    1  A    between atoms: C_1  and  C_2
REMARK    2  A    between atoms: C_12  and  N_14
REMARK    3  A    between atoms: N_14  and  C_15
REMARK    4  A    between atoms: C_15  and  C_16
REMARK    5  A    between atoms: C_18  and  C_21
REMARK                            x       y       z     vdW  Elec       q    Type
REMARK                         _______ _______ _______ _____ _____    ______ ____
ROOT
ATOM      1  C   UNL     1      -0.018   1.503   0.010  0.00  0.00    +0.044 C 
ATOM      2  C   UNL     1       0.002  -0.004   0.002  0.00  0.00    -0.047 A 
ATOM      3  C   UNL     1       0.006  -0.691  -1.200  0.00  0.00    +0.007 A 
ATOM      4  C   UNL     1       0.024  -2.068  -1.204  0.00  0.00    -0.028 A 
ATOM      5  C   UNL     1       0.040  -2.783  -0.014  0.00  0.00    +0.071 A 
ATOM      6  C   UNL     1       0.036  -2.085   1.194  0.00  0.00    +0.145 A 
ATOM      7  C   UNL     1       0.023  -0.703   1.195  0.00  0.00    +0.043 A 
ATOM      8  F   UNL     1       0.051  -2.760   2.363  0.00  0.00    -0.204 F 
ATOM      9  N   UNL     1       0.057  -4.155  -0.276  0.00  0.00    -0.284 N 
ATOM     10  C   UNL     1       0.054  -4.421  -1.593  0.00  0.00    +0.208 C 
ATOM     11  O   UNL     1       0.067  -5.520  -2.106  0.00  0.00    -0.277 OA
ATOM     12  C   UNL     1       0.033  -3.092  -2.316  0.00  0.00    +0.050 C 
ATOM     13  H   UNL     1       0.070  -4.837   0.414  0.00  0.00    +0.155 HD
ENDROOT
BRANCH  12  14
ATOM     14  N   UNL     1      -1.180  -2.971  -3.136  0.00  0.00    +0.394 N 
ATOM     15  H   UNL     1      -1.988  -3.203  -2.577  0.00  0.00    -0.084 HD
ATOM     16  H   UNL     1      -1.265  -2.024  -3.474  0.00  0.00    -0.084 HD
BRANCH  14  17
ATOM     17  C   UNL     1      -1.093  -3.892  -4.277  0.00  0.00    -0.003 C 
BRANCH  17  18
ATOM     18  C   UNL     1      -2.338  -3.769  -5.118  0.00  0.00    +0.121 A 
ATOM     19  C   UNL     1      -2.511  -2.929  -6.156  0.00  0.00    +0.068 A 
ATOM     20  C   UNL     1      -3.807  -3.127  -6.667  0.00  0.00    +0.081 A 
ATOM     21  N   UNL     1      -4.384  -4.054  -5.957  0.00  0.00    -0.083 NA
ATOM     22  O   UNL     1      -3.465  -4.481  -4.968  0.00  0.00    -0.361 OA
ATOM     23  C   UNL     1      -4.420  -2.394  -7.832  0.00  0.00    +0.069 C 
ENDBRANCH  17  18
ENDBRANCH  14  17
ENDBRANCH  12  14
TORSDOF 3
