REMARK  Name = ZINC60343170
REMARK  10 active torsions:
REMARK  status: ('A' for Active; 'I' for Inactive)
REMARK    1  A    between atoms: C_1  and  C_2
REMARK    2  A    between atoms: C_2  and  C_4
REMARK    3  A    between atoms: C_2  and  N_26
REMARK    4  A    between atoms: N_10  and  C_11
REMARK    5  A    between atoms: C_11  and  C_12
REMARK    6  A    between atoms: C_27  and  O_29
REMARK    7  A    between atoms: O_29  and  C_30
REMARK    8  A    between atoms: C_30  and  C_31
REMARK    9  A    between atoms: C_30  and  C_32
REMARK   10  A    between atoms: C_30  and  C_33
REMARK                            x       y       z     vdW  Elec       q    Type
REMARK                         _______ _______ _______ _____ _____    ______ ____
ROOT
ATOM      1  C   UNL     1       0.521  -0.616   1.159  0.00  0.00    -0.048 C 
ATOM      2  C   UNL     1       0.540  -2.141   1.035  0.00  0.00    -0.014 C 
ATOM      3  C   UNL     1       1.354  -2.732   2.190  0.00  0.00    -0.003 C 
ATOM      4  C   UNL     1       0.751  -2.264   3.518  0.00  0.00    -0.019 C 
ATOM      5  C   UNL     1       0.724  -0.735   3.550  0.00  0.00    -0.078 C 
ATOM      6  N   UNL     1      -0.091  -0.234   2.437  0.00  0.00    +0.387 N 
ATOM      7  H   UNL     1      -1.018  -0.628   2.496  0.00  0.00    -0.081 HD
ENDROOT
BRANCH   1   9
ATOM      8  C   UNL     1       0.322  -0.454  -1.326  0.00  0.00    +0.026 C 
ATOM      9  C   UNL     1      -0.292  -0.022   0.007  0.00  0.00    +0.060 C 
BRANCH   9  10
ATOM     10  N   UNL     1      -1.674  -0.501   0.086  0.00  0.00    -0.280 N 
ATOM     11  C   UNL     1      -2.671   0.223  -0.460  0.00  0.00    +0.401 C 
ATOM     12  O   UNL     1      -2.423   1.274  -1.018  0.00  0.00    -0.226 OA
ATOM     13  H   UNL     1      -1.872  -1.340   0.531  0.00  0.00    +0.152 HD
BRANCH  11  14
ATOM     14  O   UNL     1      -3.941  -0.217  -0.387  0.00  0.00    -0.445 OA
BRANCH  14  15
ATOM     15  C   UNL     1      -4.947   0.601  -0.988  0.00  0.00    +0.107 C 
ATOM     16  C   UNL     1      -4.652   0.760  -2.480  0.00  0.00    +0.055 C 
ATOM     17  C   UNL     1      -6.316  -0.057  -0.806  0.00  0.00    +0.055 C 
ATOM     18  C   UNL     1      -4.950   1.978  -0.319  0.00  0.00    +0.055 C 
ENDBRANCH  14  15
ENDBRANCH  11  14
ENDBRANCH   9  10
ENDBRANCH   1   9
BRANCH   6  19
ATOM     19  C   UNL     1      -0.179   1.231   2.517  0.00  0.00    -0.003 C 
BRANCH  19  20
ATOM     20  C   UNL     1      -0.957   1.621   3.748  0.00  0.00    +0.094 A 
ATOM     21  N   UNL     1      -1.165   2.935   4.016  0.00  0.00    -0.312 N 
ATOM     22  H   UNL     1      -0.809   3.606   3.411  0.00  0.00    +0.170 HD
ATOM     23  C   UNL     1      -1.855   3.328   5.104  0.00  0.00    +0.260 A 
ATOM     24  O   UNL     1      -2.033   4.512   5.332  0.00  0.00    -0.267 OA
ATOM     25  C   UNL     1      -2.375   2.328   5.988  0.00  0.00    +0.075 A 
ATOM     26  C   UNL     1      -3.150   2.523   7.222  0.00  0.00    -0.023 A 
ATOM     27  C   UNL     1      -3.527   1.415   7.884  0.00  0.00    -0.004 A 
ATOM     28  S   UNL     1      -2.887   0.064   6.921  0.00  0.00    -0.073 S 
ATOM     29  C   UNL     1      -2.111   0.999   5.630  0.00  0.00    +0.116 A 
ATOM     30  N   UNL     1      -1.424   0.687   4.533  0.00  0.00    -0.229 NA
ATOM     31  C   UNL     1      -4.307   1.737   9.130  0.00  0.00    +0.043 C 
ATOM     32  C   UNL     1      -4.008   3.227   9.402  0.00  0.00    +0.010 C 
ATOM     33  C   UNL     1      -3.671   3.742   7.989  0.00  0.00    +0.037 C 
ENDBRANCH  19  20
ENDBRANCH   6  19
TORSDOF 6
