REMARK  Name = ZINC14927218
REMARK  12 active torsions:
REMARK  status: ('A' for Active; 'I' for Inactive)
REMARK    1  A    between atoms: C_1  and  C_2
REMARK    2  A    between atoms: C_2  and  C_3
REMARK    3  A    between atoms: C_2  and  N_4
REMARK    4  A    between atoms: N_4  and  C_5
REMARK    5  A    between atoms: N_4  and  C_25
REMARK    6  A    between atoms: C_5  and  C_6
REMARK    7  A    between atoms: C_6  and  C_8
REMARK    8  A    between atoms: C_9  and  N_24
REMARK    9  A    between atoms: N_10  and  C_17
REMARK   10  A    between atoms: N_13  and  C_16
REMARK   11  A    between atoms: C_17  and  C_18
REMARK   12  A    between atoms: C_25  and  C_26
REMARK                            x       y       z     vdW  Elec       q    Type
REMARK                         _______ _______ _______ _____ _____    ______ ____
ROOT
ATOM      1  C   UNL     1      -3.724   1.908  -1.681  0.00  0.00    +0.118 A 
ATOM      2  C   UNL     1      -3.705   3.310  -1.780  0.00  0.00    +0.116 A 
ATOM      3  N   UNL     1      -4.495   3.917  -2.713  0.00  0.00    -0.277 N 
ATOM      4  C   UNL     1      -5.284   3.203  -3.531  0.00  0.00    +0.333 A 
ATOM      5  O   UNL     1      -5.968   3.790  -4.346  0.00  0.00    -0.246 OA
ATOM      6  N   UNL     1      -5.343   1.862  -3.484  0.00  0.00    -0.263 N 
ATOM      7  C   UNL     1      -4.597   1.167  -2.600  0.00  0.00    +0.269 A 
ATOM      8  O   UNL     1      -4.649  -0.048  -2.563  0.00  0.00    -0.267 OA
ATOM      9  C   UNL     1      -6.226   1.144  -4.407  0.00  0.00    +0.157 C 
ENDROOT
BRANCH   2  10
ATOM     10  N   UNL     1      -2.913   4.051  -0.958  0.00  0.00    -0.344 N 
ATOM     11  H   UNL     1      -2.211   3.621  -0.445  0.00  0.00    +0.144 HD
ATOM     12  H   UNL     1      -3.050   5.008  -0.885  0.00  0.00    +0.144 HD
ENDBRANCH   2  10
BRANCH   1  13
ATOM     13  C   UNL     1      -2.925   1.234  -0.733  0.00  0.00    +0.155 C 
ATOM     14  O   UNL     1      -2.280   1.868   0.079  0.00  0.00    -0.294 OA
BRANCH  13  15
ATOM     15  C   UNL     1      -2.872  -0.272  -0.727  0.00  0.00    +0.003 C 
BRANCH  15  16
ATOM     16  N   UNL     1      -1.857  -0.722   0.235  0.00  0.00    +0.392 N 
ATOM     17  H   UNL     1      -2.034  -0.300   1.134  0.00  0.00    -0.080 HD
BRANCH  16  19
ATOM     18  C   UNL     1       0.531  -0.769   0.778  0.00  0.00    -0.013 C 
ATOM     19  C   UNL     1      -0.524  -0.325  -0.238  0.00  0.00    -0.074 C 
ATOM     20  C   UNL     1      -0.243  -0.988  -1.588  0.00  0.00    -0.013 C 
ENDBRANCH  16  19
BRANCH  16  21
ATOM     21  C   UNL     1      -1.916  -2.185   0.361  0.00  0.00    +0.019 C 
BRANCH  21  22
ATOM     22  C   UNL     1      -1.296  -2.602   1.669  0.00  0.00    +0.194 C 
ATOM     23  O   UNL     1      -0.976  -1.762   2.484  0.00  0.00    -0.278 OA
ATOM     24  N   UNL     1      -1.097  -3.908   1.935  0.00  0.00    -0.331 N 
ATOM     25  H   UNL     1      -1.353  -4.580   1.283  0.00  0.00    +0.145 HD
ATOM     26  H   UNL     1      -0.698  -4.177   2.777  0.00  0.00    +0.145 HD
ENDBRANCH  21  22
ENDBRANCH  16  21
ENDBRANCH  15  16
ENDBRANCH  13  15
ENDBRANCH   1  13
BRANCH   3  27
ATOM     27  C   UNL     1      -4.483   5.378  -2.824  0.00  0.00    +0.163 C 
BRANCH  27  28
ATOM     28  C   UNL     1      -3.422   5.798  -3.809  0.00  0.00    -0.028 A 
ATOM     29  C   UNL     1      -2.134   6.046  -3.373  0.00  0.00    +0.005 A 
ATOM     30  C   UNL     1      -1.161   6.432  -4.276  0.00  0.00    +0.000 A 
ATOM     31  C   UNL     1      -1.476   6.569  -5.615  0.00  0.00    +0.000 A 
ATOM     32  C   UNL     1      -2.764   6.320  -6.051  0.00  0.00    +0.000 A 
ATOM     33  C   UNL     1      -3.736   5.931  -5.148  0.00  0.00    +0.005 A 
ENDBRANCH  27  28
ENDBRANCH   3  27
TORSDOF 9
