REMARK  Name = ZINC45313490
REMARK  10 active torsions:
REMARK  status: ('A' for Active; 'I' for Inactive)
REMARK    1  A    between atoms: C_1  and  C_2
REMARK    2  A    between atoms: C_2  and  C_4
REMARK    3  A    between atoms: C_2  and  N_11
REMARK    4  A    between atoms: C_12  and  C_14
REMARK    5  A    between atoms: C_14  and  C_16
REMARK    6  A    between atoms: C_14  and  N_17
REMARK    7  A    between atoms: N_17  and  C_18
REMARK    8  A    between atoms: N_17  and  C_19
REMARK    9  A    between atoms: C_19  and  C_20
REMARK   10  A    between atoms: N_22  and  C_23
REMARK                            x       y       z     vdW  Elec       q    Type
REMARK                         _______ _______ _______ _____ _____    ______ ____
ROOT
ATOM      1  N   UNL     1      -0.103  -1.116   4.755  0.00  0.00    +0.391 N 
ATOM      2  C   UNL     1       0.594  -1.476   5.997  0.00  0.00    -0.094 C 
ATOM      3  H   UNL     1      -0.452  -0.172   4.826  0.00  0.00    -0.080 HD
ENDROOT
BRANCH   1   4
ATOM      4  C   UNL     1       0.833  -1.207   3.625  0.00  0.00    +0.016 C 
ATOM      5  C   UNL     1       2.027  -0.284   3.877  0.00  0.00    -0.004 C 
BRANCH   4   7
ATOM      6  N   UNL     1       0.517  -1.305   1.174  0.00  0.00    -0.310 N 
ATOM      7  C   UNL     1       0.132  -0.789   2.358  0.00  0.00    +0.200 C 
ATOM      8  O   UNL     1      -0.777   0.012   2.404  0.00  0.00    -0.278 OA
ATOM      9  H   UNL     1       1.244  -1.946   1.137  0.00  0.00    +0.149 HD
BRANCH   6  11
ATOM     10  C   UNL     1       0.463   0.394  -0.584  0.00  0.00    +0.033 C 
ATOM     11  C   UNL     1      -0.164  -0.898  -0.058  0.00  0.00    +0.100 C 
BRANCH  11  12
ATOM     12  C   UNL     1      -0.020  -1.984  -1.093  0.00  0.00    -0.027 A 
ATOM     13  C   UNL     1       1.177  -2.663  -1.220  0.00  0.00    +0.008 A 
ATOM     14  C   UNL     1       1.310  -3.659  -2.169  0.00  0.00    +0.038 A 
ATOM     15  C   UNL     1       0.243  -3.977  -2.992  0.00  0.00    +0.123 A 
ATOM     16  C   UNL     1      -0.955  -3.297  -2.864  0.00  0.00    +0.038 A 
ATOM     17  C   UNL     1      -1.088  -2.304  -1.911  0.00  0.00    +0.008 A 
ATOM     18  F   UNL     1       0.372  -4.951  -3.920  0.00  0.00    -0.205 F 
ENDBRANCH  11  12
ENDBRANCH   6  11
ENDBRANCH   4   7
ENDBRANCH   1   4
BRANCH   1  19
ATOM     19  C   UNL     1      -1.224  -2.039   4.537  0.00  0.00    +0.020 C 
BRANCH  19  20
ATOM     20  C   UNL     1      -2.265  -1.827   5.606  0.00  0.00    +0.201 C 
ATOM     21  O   UNL     1      -2.089  -0.989   6.465  0.00  0.00    -0.278 OA
ATOM     22  N   UNL     1      -3.390  -2.568   5.608  0.00  0.00    -0.287 N 
ATOM     23  H   UNL     1      -3.562  -3.192   4.885  0.00  0.00    +0.155 HD
BRANCH  22  24
ATOM     24  C   UNL     1      -4.312  -2.437   6.653  0.00  0.00    +0.035 A 
ATOM     25  C   UNL     1      -4.999  -3.552   7.118  0.00  0.00    +0.025 A 
ATOM     26  C   UNL     1      -5.908  -3.421   8.149  0.00  0.00    +0.023 A 
ATOM     27  C   UNL     1      -6.136  -2.181   8.720  0.00  0.00    +0.059 A 
ATOM     28  C   UNL     1      -5.453  -1.068   8.258  0.00  0.00    +0.061 A 
ATOM     29  C   UNL     1      -4.538  -1.195   7.230  0.00  0.00    +0.044 A 
ATOM     30 CL   UNL     1      -5.742   0.486   8.975  0.00  0.00    -0.082 Cl
ATOM     31 CL   UNL     1      -7.279  -2.021  10.016  0.00  0.00    -0.082 Cl
ENDBRANCH  22  24
ENDBRANCH  19  20
ENDBRANCH   1  19
TORSDOF 7
