REMARK  Name = ZINC55090372
REMARK  12 active torsions:
REMARK  status: ('A' for Active; 'I' for Inactive)
REMARK    1  A    between atoms: C_1  and  C_2
REMARK    2  A    between atoms: C_2  and  C_3
REMARK    3  A    between atoms: C_3  and  C_5
REMARK    4  A    between atoms: C_3  and  N_18
REMARK    5  A    between atoms: N_7  and  C_8
REMARK    6  A    between atoms: C_10  and  C_16
REMARK    7  A    between atoms: C_10  and  C_17
REMARK    8  A    between atoms: C_12  and  C_14
REMARK    9  A    between atoms: C_12  and  C_15
REMARK   10  A    between atoms: N_18  and  C_19
REMARK   11  A    between atoms: C_23  and  O_25
REMARK   12  A    between atoms: O_25  and  C_26
REMARK                            x       y       z     vdW  Elec       q    Type
REMARK                         _______ _______ _______ _____ _____    ______ ____
ROOT
ATOM      1  C   UNL     1       0.479  -2.102  -1.183  0.00  0.00    +0.233 C 
ATOM      2  O   UNL     1      -0.099  -2.781  -2.005  0.00  0.00    -0.274 OA
ATOM      3  N   UNL     1       1.201  -2.692  -0.210  0.00  0.00    -0.311 N 
ATOM      4  H   UNL     1       1.663  -2.149   0.448  0.00  0.00    +0.149 HD
ENDROOT
BRANCH   3   5
ATOM      5  C   UNL     1       1.289  -4.156  -0.145  0.00  0.00    +0.070 C 
ATOM      6  C   UNL     1       0.103  -4.696   0.657  0.00  0.00    +0.009 C 
ATOM      7  C   UNL     1       0.186  -6.219   0.744  0.00  0.00    -0.072 C 
ATOM      8  N   UNL     1       1.467  -6.669   1.269  0.00  0.00    +0.386 N 
ATOM      9  C   UNL     1       2.671  -6.068   0.720  0.00  0.00    -0.072 C 
ATOM     10  C   UNL     1       2.576  -4.553   0.576  0.00  0.00    +0.009 C 
ATOM     11  C   UNL     1       3.828  -6.363   1.704  0.00  0.00    -0.010 C 
ATOM     12  C   UNL     1       3.056  -6.696  -0.622  0.00  0.00    -0.010 C 
ATOM     13  C   UNL     1      -0.130  -6.844  -0.615  0.00  0.00    -0.010 C 
ATOM     14  C   UNL     1      -0.912  -6.683   1.728  0.00  0.00    -0.010 C 
ATOM     15  H   UNL     1       1.467  -6.522   2.282  0.00  0.00    -0.084 HD
ATOM     16  H   UNL     1       1.527  -7.683   1.146  0.00  0.00    -0.084 HD
ENDBRANCH   3   5
BRANCH   1  17
ATOM     17  C   UNL     1       0.389  -0.599  -1.249  0.00  0.00    +0.156 C 
BRANCH  17  19
ATOM     18  C   UNL     1      -0.208   1.462   0.031  0.00  0.00    +0.006 C 
ATOM     19  C   UNL     1      -0.231  -0.068   0.045  0.00  0.00    +0.028 C 
ENDBRANCH  17  19
BRANCH  17  20
ATOM     20  N   UNL     1      -0.447  -0.210  -2.387  0.00  0.00    -0.333 N 
ATOM     21  H   UNL     1      -1.117  -0.823  -2.729  0.00  0.00    +0.147 HD
BRANCH  20  22
ATOM     22  C   UNL     1      -0.280   1.044  -2.980  0.00  0.00    +0.031 A 
ATOM     23  C   UNL     1       0.683   1.920  -2.494  0.00  0.00    +0.023 A 
ATOM     24  C   UNL     1       0.848   3.160  -3.080  0.00  0.00    +0.005 A 
ATOM     25  C   UNL     1       0.057   3.532  -4.151  0.00  0.00    +0.046 A 
ATOM     26  C   UNL     1      -0.906   2.661  -4.640  0.00  0.00    +0.122 A 
ATOM     27  C   UNL     1      -1.072   1.414  -4.058  0.00  0.00    +0.068 A 
BRANCH  26  28
ATOM     28  O   UNL     1      -1.683   3.028  -5.693  0.00  0.00    -0.495 OA
ATOM     29  C   UNL     1      -1.454   4.326  -6.247  0.00  0.00    +0.277 C 
ENDBRANCH  26  28
ENDBRANCH  20  22
ENDBRANCH  17  20
ENDBRANCH   1  17
TORSDOF 6
