REMARK  Name = ZINC33457565
REMARK  7 active torsions:
REMARK  status: ('A' for Active; 'I' for Inactive)
REMARK    1  A    between atoms: C_1  and  O_2
REMARK    2  A    between atoms: O_2  and  C_3
REMARK    3  A    between atoms: C_5  and  C_23
REMARK    4  A    between atoms: C_8  and  O_9
REMARK    5  A    between atoms: O_9  and  C_10
REMARK    6  A    between atoms: C_13  and  C_19
REMARK    7  A    between atoms: C_15  and  N_16
REMARK                            x       y       z     vdW  Elec       q    Type
REMARK                         _______ _______ _______ _____ _____    ______ ____
ROOT
ATOM      1  C   UNL     1       2.990   5.820  -0.526  0.00  0.00    +0.163 A 
ATOM      2  C   UNL     1       3.089   7.190  -0.394  0.00  0.00    +0.057 A 
ATOM      3  C   UNL     1       1.946   7.989  -0.541  0.00  0.00    -0.021 A 
ATOM      4  C   UNL     1       0.711   7.390  -0.828  0.00  0.00    +0.012 A 
ATOM      5  C   UNL     1       0.624   6.024  -0.964  0.00  0.00    +0.050 A 
ATOM      6  C   UNL     1       1.758   5.234  -0.817  0.00  0.00    +0.170 A 
ENDROOT
BRANCH   3   7
ATOM      7  C   UNL     1       2.042   9.443  -0.396  0.00  0.00    +0.024 C 
ATOM      8  C   UNL     1       1.067  10.132   0.290  0.00  0.00    +0.081 C 
ATOM      9  C   UNL     1       1.020  11.622   0.301  0.00  0.00    +0.152 C 
ATOM     10  N   UNL     1       2.087  12.373   0.256  0.00  0.00    -0.283 NA
ATOM     11  N   UNL     1      -0.291  12.141   0.367  0.00  0.00    -0.152 N 
ATOM     12  C   UNL     1      -1.277  11.322   0.873  0.00  0.00    +0.180 C 
ATOM     13  N   UNL     1      -1.164  10.072   1.246  0.00  0.00    -0.152 NA
ATOM     14  C   UNL     1       0.004   9.432   1.052  0.00  0.00    +0.273 C 
ATOM     15  O   UNL     1       0.183   8.309   1.496  0.00  0.00    -0.268 OA
ATOM     16  S   UNL     1      -2.698  12.383   0.837  0.00  0.00    -0.041 S 
ATOM     17  C   UNL     1      -1.902  13.816   0.125  0.00  0.00    +0.179 C 
ATOM     18  N   UNL     1      -0.674  13.409  -0.016  0.00  0.00    -0.173 NA
ATOM     19  H   UNL     1       1.989  13.469   0.267  0.00  0.00    +0.188 HD
ENDBRANCH   3   7
BRANCH   1  21
ATOM     20  C   UNL     1       5.324   5.709  -0.082  0.00  0.00    +0.277 C 
ATOM     21  O   UNL     1       4.096   5.042  -0.379  0.00  0.00    -0.491 OA
ENDBRANCH   1  21
BRANCH   6  22
ATOM     22  O   UNL     1       1.665   3.886  -0.952  0.00  0.00    -0.450 OA
BRANCH  22  23
ATOM     23  C   UNL     1       0.472   3.364  -1.340  0.00  0.00    +0.159 A 
ATOM     24  C   UNL     1      -0.445   2.943  -0.388  0.00  0.00    +0.049 A 
ATOM     25  C   UNL     1      -1.657   2.413  -0.784  0.00  0.00    +0.016 A 
ATOM     26  C   UNL     1      -1.959   2.306  -2.130  0.00  0.00    +0.057 A 
ATOM     27  C   UNL     1      -1.045   2.720  -3.081  0.00  0.00    +0.048 A 
ATOM     28  C   UNL     1       0.169   3.252  -2.689  0.00  0.00    +0.169 A 
BRANCH  26  29
ATOM     29  C   UNL     1      -3.284   1.733  -2.560  0.00  0.00    +0.417 C 
ATOM     30  F   UNL     1      -3.166   0.347  -2.711  0.00  0.00    -0.166 F 
ATOM     31  F   UNL     1      -4.252   2.016  -1.590  0.00  0.00    -0.166 F 
ATOM     32  F   UNL     1      -3.666   2.304  -3.779  0.00  0.00    -0.166 F 
ENDBRANCH  26  29
BRANCH  28  33
ATOM     33  N   UNL     1       1.145   3.700  -3.708  0.00  0.00    +0.060 N 
ATOM     34  O   UNL     1       0.878   3.600  -4.892  0.00  0.00    -0.126 OA
ATOM     35  O   UNL     1       2.215   4.168  -3.362  0.00  0.00    -0.126 OA
ENDBRANCH  28  33
ENDBRANCH  22  23
ENDBRANCH   6  22
TORSDOF 6
