REMARK  Name = ZINC65527418
REMARK  7 active torsions:
REMARK  status: ('A' for Active; 'I' for Inactive)
REMARK    1  A    between atoms: C_1  and  C_2
REMARK    2  A    between atoms: C_2  and  C_4
REMARK    3  A    between atoms: C_2  and  N_16
REMARK    4  A    between atoms: N_7  and  C_9
REMARK    5  A    between atoms: C_25  and  C_27
REMARK    6  A    between atoms: C_27  and  C_28
REMARK    7  A    between atoms: C_28  and  N_29
REMARK                            x       y       z     vdW  Elec       q    Type
REMARK                         _______ _______ _______ _____ _____    ______ ____
ROOT
ATOM      1  N   UNL     1       0.711  -0.489   1.189  0.00  0.00    -0.322 N 
ATOM      2  C   UNL     1       0.036  -0.637   2.382  0.00  0.00    +0.130 A 
ATOM      3  C   UNL     1       0.704  -1.099   3.543  0.00  0.00    +0.040 A 
ATOM      4  C   UNL     1       2.064  -1.425   3.539  0.00  0.00    +0.013 A 
ATOM      5  C   UNL     1       2.653  -1.865   4.688  0.00  0.00    +0.001 A 
ATOM      6  C   UNL     1       1.919  -1.994   5.863  0.00  0.00    +0.002 A 
ATOM      7  C   UNL     1       0.591  -1.684   5.900  0.00  0.00    +0.028 A 
ATOM      8  C   UNL     1      -0.045  -1.229   4.738  0.00  0.00    +0.076 A 
ATOM      9  N   UNL     1      -1.348  -0.910   4.719  0.00  0.00    -0.232 NA
ATOM     10  C   UNL     1      -1.914  -0.487   3.614  0.00  0.00    +0.130 A 
ATOM     11  N   UNL     1      -1.254  -0.345   2.476  0.00  0.00    -0.217 NA
ATOM     12  H   UNL     1       1.654  -0.707   1.135  0.00  0.00    +0.148 HD
ENDROOT
BRANCH   1  14
ATOM     13  C   UNL     1      -0.019   1.526   0.010  0.00  0.00    +0.033 C 
ATOM     14  C   UNL     1       0.002  -0.004   0.002  0.00  0.00    +0.102 C 
BRANCH  14  15
ATOM     15  C   UNL     1       0.707  -0.490  -1.238  0.00  0.00    +0.010 A 
ATOM     16  C   UNL     1       2.092  -0.565  -1.421  0.00  0.00    +0.140 A 
ATOM     17  N   UNL     1       2.322  -1.035  -2.621  0.00  0.00    -0.174 NA
ATOM     18  N   UNL     1       1.089  -1.274  -3.241  0.00  0.00    -0.240 N 
ATOM     19  C   UNL     1       0.113  -0.936  -2.369  0.00  0.00    +0.120 A 
BRANCH  18  20
ATOM     20  C   UNL     1       0.901  -1.779  -4.536  0.00  0.00    +0.066 A 
ATOM     21  C   UNL     1      -0.383  -1.963  -5.030  0.00  0.00    +0.030 A 
ATOM     22  C   UNL     1      -0.567  -2.460  -6.305  0.00  0.00    +0.040 A 
ATOM     23  C   UNL     1       0.529  -2.776  -7.091  0.00  0.00    +0.124 A 
ATOM     24  C   UNL     1       1.811  -2.594  -6.599  0.00  0.00    +0.040 A 
ATOM     25  C   UNL     1       1.998  -2.091  -5.327  0.00  0.00    +0.030 A 
ATOM     26  F   UNL     1       0.348  -3.262  -8.338  0.00  0.00    -0.205 F 
ENDBRANCH  18  20
ENDBRANCH  14  15
ENDBRANCH   1  14
BRANCH  10  27
ATOM     27  C   UNL     1      -3.381  -0.142   3.644  0.00  0.00    +0.057 C 
BRANCH  27  28
ATOM     28  C   UNL     1      -3.550   1.335   4.007  0.00  0.00    -0.079 C 
BRANCH  28  29
ATOM     29  N   UNL     1      -4.979   1.672   4.035  0.00  0.00    +0.378 N 
ATOM     30  H   UNL     1      -5.383   1.500   3.127  0.00  0.00    -0.090 HD
ATOM     31  H   UNL     1      -5.446   1.101   4.724  0.00  0.00    -0.090 HD
ATOM     32  H   UNL     1      -5.091   2.646   4.275  0.00  0.00    -0.090 HD
ENDBRANCH  28  29
ENDBRANCH  27  28
ENDBRANCH  10  27
TORSDOF 6
