REMARK  Name = ZINC08587193
REMARK  10 active torsions:
REMARK  status: ('A' for Active; 'I' for Inactive)
REMARK    1  A    between atoms: C_1  and  C_2
REMARK    2  A    between atoms: C_5  and  C_8
REMARK    3  A    between atoms: C_17  and  C_19
REMARK    4  A    between atoms: C_20  and  C_26
REMARK    5  A    between atoms: C_29  and  O_36
REMARK    6  A    between atoms: C_30  and  O_34
REMARK    7  A    between atoms: C_31  and  O_32
REMARK    8  A    between atoms: O_32  and  C_33
REMARK    9  A    between atoms: O_34  and  C_35
REMARK   10  A    between atoms: O_36  and  C_37
REMARK                            x       y       z     vdW  Elec       q    Type
REMARK                         _______ _______ _______ _____ _____    ______ ____
ROOT
ATOM      1  C   UNL     1       0.059  -4.255  -0.021  0.00  0.00    +0.095 A 
ATOM      2  C   UNL     1       0.173  -4.962  -1.224  0.00  0.00    +0.163 A 
ATOM      3  N   UNL     1       0.188  -6.282  -1.194  0.00  0.00    -0.152 NA
ATOM      4  N   UNL     1       0.099  -6.912  -0.076  0.00  0.00    -0.109 NA
ATOM      5  C   UNL     1      -0.010  -6.267   1.077  0.00  0.00    +0.273 A 
ATOM      6  N   UNL     1      -0.026  -4.943   1.116  0.00  0.00    -0.208 NA
ATOM      7  N   UNL     1      -0.104  -6.991   2.265  0.00  0.00    -0.182 N 
ATOM      8  C   UNL     1      -0.091  -8.337   2.381  0.00  0.00    +0.136 A 
ATOM      9  C   UNL     1      -0.193  -8.637   3.713  0.00  0.00    +0.023 A 
ATOM     10  C   UNL     1      -0.281  -7.444   4.416  0.00  0.00    +0.066 A 
ATOM     11  N   UNL     1      -0.224  -6.454   3.557  0.00  0.00    -0.167 NA
ATOM     12  C   UNL     1      -0.414  -7.308   5.911  0.00  0.00    +0.068 C 
ATOM     13  C   UNL     1      -0.190 -10.056   4.222  0.00  0.00    +0.067 C 
ATOM     14  C   UNL     1      -0.769 -10.960   3.129  0.00  0.00    +0.109 C 
ATOM     15  C   UNL     1      -0.210 -10.608   1.779  0.00  0.00    +0.219 C 
ATOM     16  O   UNL     1       0.045 -11.501   0.998  0.00  0.00    -0.275 OA
ATOM     17  N   UNL     1       0.017  -9.330   1.409  0.00  0.00    -0.270 N 
ATOM     18  H   UNL     1       0.248  -9.109   0.494  0.00  0.00    +0.156 HD
ENDROOT
BRANCH   1  23
ATOM     19  C   UNL     1      -0.018   1.503   0.010  0.00  0.00    +0.044 C 
ATOM     20  C   UNL     1       0.002  -0.004   0.002  0.00  0.00    -0.050 A 
ATOM     21  C   UNL     1       0.006  -0.686  -1.201  0.00  0.00    +0.004 A 
ATOM     22  C   UNL     1       0.024  -2.066  -1.215  0.00  0.00    +0.010 A 
ATOM     23  C   UNL     1       0.040  -2.772  -0.013  0.00  0.00    +0.002 A 
ATOM     24  C   UNL     1       0.036  -2.079   1.196  0.00  0.00    +0.010 A 
ATOM     25  C   UNL     1       0.023  -0.699   1.198  0.00  0.00    +0.004 A 
ENDBRANCH   1  23
BRANCH  13  26
ATOM     26  C   UNL     1      -1.039 -10.152   5.464  0.00  0.00    +0.006 A 
ATOM     27  C   UNL     1      -2.382  -9.828   5.409  0.00  0.00    +0.011 A 
ATOM     28  C   UNL     1      -3.164  -9.914   6.545  0.00  0.00    +0.050 A 
ATOM     29  C   UNL     1      -2.604 -10.327   7.745  0.00  0.00    +0.165 A 
ATOM     30  C   UNL     1      -1.255 -10.655   7.804  0.00  0.00    +0.204 A 
ATOM     31  C   UNL     1      -0.473 -10.572   6.658  0.00  0.00    +0.169 A 
BRANCH  31  32
ATOM     32  O   UNL     1       0.847 -10.896   6.709  0.00  0.00    -0.491 OA
ATOM     33  C   UNL     1       1.762  -9.844   7.022  0.00  0.00    +0.277 C 
ENDBRANCH  31  32
BRANCH  30  34
ATOM     34  O   UNL     1      -0.702 -11.060   8.980  0.00  0.00    -0.488 OA
ATOM     35  C   UNL     1      -0.720 -12.463   9.255  0.00  0.00    +0.277 C 
ENDBRANCH  30  34
BRANCH  29  36
ATOM     36  O   UNL     1      -3.375 -10.411   8.863  0.00  0.00    -0.491 OA
ATOM     37  C   UNL     1      -4.753 -10.059   8.728  0.00  0.00    +0.277 C 
ENDBRANCH  29  36
ENDBRANCH  13  26
TORSDOF 5
