REMARK  Name = ZINC43548295
REMARK  10 active torsions:
REMARK  status: ('A' for Active; 'I' for Inactive)
REMARK    1  A    between atoms: C_1  and  C_2
REMARK    2  A    between atoms: N_9  and  C_10
REMARK    3  A    between atoms: C_12  and  C_32
REMARK    4  A    between atoms: C_15  and  O_31
REMARK    5  A    between atoms: C_17  and  C_21
REMARK    6  A    between atoms: C_21  and  C_23
REMARK    7  A    between atoms: C_21  and  C_24
REMARK    8  A    between atoms: N_26  and  C_27
REMARK    9  A    between atoms: N_26  and  C_28
REMARK   10  A    between atoms: C_28  and  C_29
REMARK                            x       y       z     vdW  Elec       q    Type
REMARK                         _______ _______ _______ _____ _____    ______ ____
ROOT
ATOM      1  C   UNL     1       1.446   2.816   1.680  0.00  0.00    +0.014 C 
ATOM      2  C   UNL     1       0.921   1.381   1.593  0.00  0.00    +0.039 C 
ATOM      3  C   UNL     1      -0.487   1.321   2.163  0.00  0.00    +0.031 A 
ATOM      4  C   UNL     1      -0.872   0.281   2.945  0.00  0.00    +0.013 A 
ATOM      5  S   UNL     1      -2.552   0.687   3.330  0.00  0.00    -0.059 S 
ATOM      6  C   UNL     1      -2.630   2.136   2.474  0.00  0.00    +0.136 A 
ATOM      7  N   UNL     1      -1.426   2.242   1.955  0.00  0.00    -0.340 N 
ATOM      8  N   UNL     1      -3.702   3.006   2.347  0.00  0.00    -0.328 N 
ATOM      9  C   UNL     1      -4.972   2.704   3.011  0.00  0.00    +0.127 C 
ATOM     10  C   UNL     1      -0.055  -0.894   3.359  0.00  0.00    +0.051 C 
ATOM     11  C   UNL     1       1.211  -0.944   2.500  0.00  0.00    -0.022 C 
ATOM     12  C   UNL     1       1.835   0.452   2.401  0.00  0.00    +0.033 C 
ATOM     13  C   UNL     1       3.165   0.318   1.640  0.00  0.00    +0.123 C 
ATOM     14  C   UNL     1       2.873  -0.191   0.227  0.00  0.00    +0.029 C 
ATOM     15  C   UNL     1       2.192  -1.558   0.294  0.00  0.00    +0.007 C 
ATOM     16  C   UNL     1       0.891  -1.450   1.095  0.00  0.00    +0.008 C 
ATOM     17  C   UNL     1       2.227  -1.882   3.155  0.00  0.00    +0.012 C 
ATOM     18  H   UNL     1      -3.611   3.814   1.819  0.00  0.00    +0.148 HD
ATOM     19  H   UNL     1      -1.216   3.013   1.405  0.00  0.00    +0.167 HD
ENDROOT
BRANCH  14  20
ATOM     20  C   UNL     1       4.186  -0.319  -0.548  0.00  0.00    +0.078 C 
ATOM     21  C   UNL     1       3.900  -0.856  -1.952  0.00  0.00    +0.017 C 
BRANCH  20  22
ATOM     22  C   UNL     1       5.106  -1.268   0.175  0.00  0.00    +0.219 C 
ATOM     23  O   UNL     1       4.653  -2.064   0.971  0.00  0.00    -0.275 OA
ATOM     24  N   UNL     1       6.433  -1.234  -0.062  0.00  0.00    -0.301 N 
ATOM     25  C   UNL     1       6.991  -0.215  -0.955  0.00  0.00    +0.132 C 
BRANCH  24  26
ATOM     26  C   UNL     1       7.316  -2.214   0.574  0.00  0.00    +0.134 C 
BRANCH  26  27
ATOM     27  C   UNL     1       7.445  -3.425  -0.315  0.00  0.00    -0.016 C 
ATOM     28  C   UNL     1       8.630  -3.841  -0.687  0.00  0.00    +0.005 C 
ENDBRANCH  26  27
ENDBRANCH  24  26
ENDBRANCH  20  22
ENDBRANCH  14  20
BRANCH  13  29
ATOM     29  O   UNL     1       3.808   1.593   1.570  0.00  0.00    -0.391 OA
ATOM     30  H   UNL     1       4.630   1.591   1.061  0.00  0.00    +0.210 HD
ENDBRANCH  13  29
TORSDOF 5
