REMARK  Name = ZINC22734290
REMARK  11 active torsions:
REMARK  status: ('A' for Active; 'I' for Inactive)
REMARK    1  A    between atoms: C_1  and  C_2
REMARK    2  A    between atoms: C_2  and  O_3
REMARK    3  A    between atoms: O_3  and  C_4
REMARK    4  A    between atoms: C_7  and  N_10
REMARK    5  A    between atoms: C_11  and  C_13
REMARK    6  A    between atoms: N_15  and  C_16
REMARK    7  A    between atoms: C_16  and  C_17
REMARK    8  A    between atoms: C_17  and  C_19
REMARK    9  A    between atoms: C_17  and  N_29
REMARK   10  A    between atoms: N_27  and  C_28
REMARK   11  A    between atoms: N_32  and  C_35
REMARK                            x       y       z     vdW  Elec       q    Type
REMARK                         _______ _______ _______ _____ _____    ______ ____
ROOT
ATOM      1  C   UNL     1       5.171  -6.499   0.110  0.00  0.00    +0.104 C 
ENDROOT
BRANCH   1   2
ATOM      2  C   UNL     1       5.054  -7.988  -0.093  0.00  0.00    -0.028 A 
ATOM      3  C   UNL     1       4.756  -8.494  -1.346  0.00  0.00    +0.007 A 
ATOM      4  C   UNL     1       4.650  -9.856  -1.538  0.00  0.00    +0.024 A 
ATOM      5  C   UNL     1       4.832 -10.731  -0.468  0.00  0.00    +0.033 A 
ATOM      6  C   UNL     1       5.130 -10.212   0.787  0.00  0.00    -0.025 A 
ATOM      7  C   UNL     1       5.238  -8.850   0.972  0.00  0.00    +0.010 A 
ATOM      8  C   UNL     1       5.285 -11.374   1.748  0.00  0.00    +0.056 C 
ATOM      9  C   UNL     1       5.447 -12.584   0.800  0.00  0.00    +0.109 C 
ATOM     10  N   UNL     1       4.759 -12.129  -0.427  0.00  0.00    -0.332 N 
ATOM     11  C   UNL     1       5.369 -12.723  -1.624  0.00  0.00    +0.129 C 
ENDBRANCH   1   2
BRANCH   1  12
ATOM     12  N   UNL     1       5.868  -5.901  -1.036  0.00  0.00    -0.297 NA
ATOM     13  C   UNL     1       7.188  -6.517  -1.230  0.00  0.00    +0.066 C 
ATOM     14  C   UNL     1       7.847  -5.924  -2.477  0.00  0.00    -0.064 C 
ATOM     15  N   UNL     1       7.965  -4.468  -2.320  0.00  0.00    +0.379 N 
ATOM     16  C   UNL     1       6.645  -3.852  -2.127  0.00  0.00    -0.064 C 
ATOM     17  C   UNL     1       5.987  -4.445  -0.879  0.00  0.00    +0.066 C 
ATOM     18  C   UNL     1       8.662  -3.870  -3.467  0.00  0.00    -0.096 C 
ATOM     19  H   UNL     1       8.567  -4.271  -1.421  0.00  0.00    -0.082 HD
ENDBRANCH   1  12
BRANCH   1  20
ATOM     20  C   UNL     1       3.773  -5.890   0.232  0.00  0.00    +0.128 C 
BRANCH  20  23
ATOM     21  C   UNL     1       1.826  -6.104   1.681  0.00  0.00    +0.299 C 
ATOM     22  O   UNL     1       1.217  -5.381   0.921  0.00  0.00    -0.265 OA
ATOM     23  N   UNL     1       3.111  -6.420   1.427  0.00  0.00    -0.306 N 
ATOM     24  H   UNL     1       3.664  -7.075   2.116  0.00  0.00    +0.149 HD
BRANCH  21  26
ATOM     25  N   UNL     1      -0.134  -6.329   3.154  0.00  0.00    -0.278 N 
ATOM     26  C   UNL     1       1.152  -6.644   2.900  0.00  0.00    +0.303 C 
ATOM     27  O   UNL     1       1.761  -7.368   3.660  0.00  0.00    -0.265 OA
ATOM     28  H   UNL     1      -0.711  -5.742   2.424  0.00  0.00    +0.155 HD
BRANCH  25  32
ATOM     29  C   UNL     1      -1.922  -7.575   6.706  0.00  0.00    +0.121 A 
ATOM     30  C   UNL     1      -0.575  -7.241   6.688  0.00  0.00    +0.047 A 
ATOM     31  C   UNL     1       0.018  -6.829   5.512  0.00  0.00    +0.027 A 
ATOM     32  C   UNL     1      -0.734  -6.747   4.346  0.00  0.00    +0.034 A 
ATOM     33  C   UNL     1      -2.082  -7.082   4.366  0.00  0.00    +0.027 A 
ATOM     34  C   UNL     1      -2.673  -7.495   5.543  0.00  0.00    +0.047 A 
BRANCH  29  35
ATOM     35  O   UNL     1      -2.505  -7.982   7.865  0.00  0.00    -0.492 OA
BRANCH  35  37
ATOM     36  C   UNL     1      -4.370  -8.742   9.200  0.00  0.00    +0.048 C 
ATOM     37  C   UNL     1      -3.895  -8.310   7.812  0.00  0.00    +0.225 C 
ENDBRANCH  35  37
ENDBRANCH  29  35
ENDBRANCH  25  32
ENDBRANCH  21  26
ENDBRANCH  20  23
ENDBRANCH   1  20
TORSDOF 8
