REMARK  Name = ZINC26462694
REMARK  6 active torsions:
REMARK  status: ('A' for Active; 'I' for Inactive)
REMARK    1  A    between atoms: C_2  and  C_3
REMARK    2  A    between atoms: C_3  and  N_4
REMARK    3  A    between atoms: C_8  and  C_10
REMARK    4  A    between atoms: C_10  and  N_11
REMARK    5  A    between atoms: C_15  and  C_17
REMARK    6  A    between atoms: N_19  and  C_20
REMARK                            x       y       z     vdW  Elec       q    Type
REMARK                         _______ _______ _______ _____ _____    ______ ____
ROOT
ATOM      1  N   UNL     1       2.492   1.193  -0.747  0.00  0.00    +0.393 N 
ATOM      2  C   UNL     1       2.250  -0.139  -0.152  0.00  0.00    -0.077 C 
ATOM      3  C   UNL     1       0.756  -0.205   0.217  0.00  0.00    -0.020 C 
ATOM      4  C   UNL     1       0.183   1.177  -0.174  0.00  0.00    -0.008 C 
ATOM      5  C   UNL     1       1.440   2.082  -0.190  0.00  0.00    +0.020 C 
ATOM      6  H   UNL     1       2.457   1.157  -1.845  0.00  0.00    -0.080 HD
ENDROOT
BRANCH   5   7
ATOM      7  C   UNL     1       1.224   3.276  -1.084  0.00  0.00    +0.204 C 
ATOM      8  O   UNL     1       1.934   3.443  -2.053  0.00  0.00    -0.277 OA
ATOM      9  N   UNL     1       0.243   4.157  -0.807  0.00  0.00    -0.287 N 
ATOM     10  H   UNL     1      -0.346   4.052   0.116  0.00  0.00    +0.155 HD
BRANCH   9  11
ATOM     11  C   UNL     1      -0.026   5.206  -1.693  0.00  0.00    +0.036 A 
ATOM     12  C   UNL     1      -0.431   6.442  -1.205  0.00  0.00    +0.043 A 
ATOM     13  C   UNL     1      -0.691   7.478  -2.082  0.00  0.00    +0.044 A 
ATOM     14  C   UNL     1      -0.558   7.282  -3.446  0.00  0.00    +0.040 A 
ATOM     15  C   UNL     1      -0.160   6.050  -3.934  0.00  0.00    +0.044 A 
ATOM     16  C   UNL     1       0.107   5.012  -3.061  0.00  0.00    +0.043 A 
ATOM     17 CL   UNL     1       0.006   5.809  -5.646  0.00  0.00    -0.083 Cl
ATOM     18 CL   UNL     1      -1.192   9.025  -1.473  0.00  0.00    -0.083 Cl
ENDBRANCH   9  11
ENDBRANCH   5   7
BRANCH   1  19
ATOM     19  C   UNL     1       3.833   1.687  -0.405  0.00  0.00    +0.020 C 
BRANCH  19  24
ATOM     20  N   UNL     1       8.414   0.415  -1.112  0.00  0.00    -0.296 N 
ATOM     21  C   UNL     1       7.107   0.223  -1.379  0.00  0.00    +0.306 C 
ATOM     22  O   UNL     1       6.766  -0.654  -2.147  0.00  0.00    -0.252 OA
ATOM     23  N   UNL     1       6.178   1.004  -0.793  0.00  0.00    -0.242 N 
ATOM     24  C   UNL     1       4.871   0.813  -1.060  0.00  0.00    +0.204 C 
ATOM     25  O   UNL     1       4.531  -0.063  -1.826  0.00  0.00    -0.277 OA
ATOM     26  H   UNL     1       8.723   1.209  -0.416  0.00  0.00    +0.151 HD
ATOM     27  H   UNL     1       6.487   1.799  -0.097  0.00  0.00    +0.159 HD
BRANCH  20  28
ATOM     28  C   UNL     1       9.424  -0.434  -1.749  0.00  0.00    +0.132 C 
BRANCH  28  30
ATOM     29  C   UNL     1      11.602  -0.898  -0.747  0.00  0.00    +0.005 C 
ATOM     30  C   UNL     1      10.796  -0.017  -1.286  0.00  0.00    -0.016 C 
ENDBRANCH  28  30
ENDBRANCH  20  28
ENDBRANCH  19  24
ENDBRANCH   1  19
TORSDOF 6
