REMARK  Name = ZINC39760492
REMARK  9 active torsions:
REMARK  status: ('A' for Active; 'I' for Inactive)
REMARK    1  A    between atoms: C_1  and  C_2
REMARK    2  A    between atoms: C_2  and  C_3
REMARK    3  A    between atoms: C_2  and  C_4
REMARK    4  A    between atoms: C_4  and  N_5
REMARK    5  A    between atoms: C_9  and  C_11
REMARK    6  A    between atoms: C_11  and  S_12
REMARK    7  A    between atoms: S_12  and  C_13
REMARK    8  A    between atoms: C_17  and  C_22
REMARK    9  A    between atoms: N_18  and  C_19
REMARK                            x       y       z     vdW  Elec       q    Type
REMARK                         _______ _______ _______ _____ _____    ______ ____
ROOT
ATOM      1  C   UNL     1      -5.239  -8.702  -0.525  0.00  0.00    +0.237 C 
ATOM      2  N   UNL     1      -4.573  -9.177  -1.750  0.00  0.00    -0.237 N 
ATOM      3  N   UNL     1      -3.330  -9.683  -1.356  0.00  0.00    -0.169 NA
ATOM      4  C   UNL     1      -3.161  -9.576  -0.064  0.00  0.00    +0.147 C 
ATOM      5  N   UNL     1      -4.274  -8.988   0.549  0.00  0.00    -0.282 N 
ATOM      6  H   UNL     1      -4.928  -9.145  -2.652  0.00  0.00    +0.171 HD
ENDROOT
BRANCH   4   7
ATOM      7  C   UNL     1      -2.012 -10.000   0.622  0.00  0.00    +0.022 C 
ATOM      8  C   UNL     1      -0.835 -10.501   0.066  0.00  0.00    +0.006 A 
ATOM      9  C   UNL     1      -0.433 -10.732  -1.267  0.00  0.00    +0.010 A 
ATOM     10  C   UNL     1       0.801 -11.239  -1.520  0.00  0.00    +0.001 A 
ATOM     11  C   UNL     1       1.693 -11.541  -0.489  0.00  0.00    +0.002 A 
ATOM     12  C   UNL     1       1.374 -11.344   0.814  0.00  0.00    +0.026 A 
ATOM     13  C   UNL     1       0.102 -10.817   1.157  0.00  0.00    +0.043 A 
ATOM     14  N   UNL     1      -0.441 -10.538   2.326  0.00  0.00    -0.380 N 
ATOM     15  C   UNL     1      -1.789 -10.002   2.118  0.00  0.00    +0.152 C 
ATOM     16  H   UNL     1      -0.013 -10.663   3.187  0.00  0.00    +0.160 HD
ENDBRANCH   4   7
BRANCH   5  17
ATOM     17  C   UNL     1      -4.446  -8.710   1.977  0.00  0.00    +0.078 C 
ATOM     18  C   UNL     1      -5.793  -8.143   2.429  0.00  0.00    +0.024 C 
ATOM     19  C   UNL     1      -4.554  -7.244   2.404  0.00  0.00    +0.024 C 
ENDBRANCH   5  17
BRANCH   1  20
ATOM     20  S   UNL     1      -5.563  -6.920  -0.629  0.00  0.00    -0.109 S 
BRANCH  20  21
ATOM     21  C   UNL     1      -3.928  -6.193  -0.924  0.00  0.00    +0.168 C 
BRANCH  21  26
ATOM     22  N   UNL     1      -1.983  -1.844  -1.568  0.00  0.00    -0.299 N 
ATOM     23  C   UNL     1      -3.077  -2.600  -1.349  0.00  0.00    +0.306 C 
ATOM     24  O   UNL     1      -4.167  -2.074  -1.238  0.00  0.00    -0.252 OA
ATOM     25  N   UNL     1      -2.962  -3.939  -1.252  0.00  0.00    -0.240 N 
ATOM     26  C   UNL     1      -4.056  -4.695  -1.032  0.00  0.00    +0.230 C 
ATOM     27  O   UNL     1      -5.143  -4.170  -0.921  0.00  0.00    -0.274 OA
ATOM     28  H   UNL     1      -1.113  -2.264  -1.657  0.00  0.00    +0.150 HD
ATOM     29  H   UNL     1      -2.092  -4.359  -1.341  0.00  0.00    +0.159 HD
BRANCH  22  30
ATOM     30  C   UNL     1      -2.107  -0.388  -1.673  0.00  0.00    +0.108 C 
BRANCH  30  32
ATOM     31  C   UNL     1      -0.874   1.730  -2.156  0.00  0.00    +0.009 C 
ATOM     32  C   UNL     1      -0.728   0.225  -1.922  0.00  0.00    -0.000 C 
ATOM     33  C   UNL     1       0.165  -0.018  -0.704  0.00  0.00    +0.009 C 
ENDBRANCH  30  32
ENDBRANCH  22  30
ENDBRANCH  21  26
ENDBRANCH  20  21
ENDBRANCH   1  20
TORSDOF 7
