REMARK  Name = ZINC34836784
REMARK  13 active torsions:
REMARK  status: ('A' for Active; 'I' for Inactive)
REMARK    1  A    between atoms: C_1  and  C_2
REMARK    2  A    between atoms: C_2  and  C_3
REMARK    3  A    between atoms: C_4  and  C_22
REMARK    4  A    between atoms: C_5  and  N_15
REMARK    5  A    between atoms: N_6  and  C_8
REMARK    6  A    between atoms: C_12  and  C_14
REMARK    7  A    between atoms: N_18  and  C_21
REMARK    8  A    between atoms: C_22  and  N_23
REMARK    9  A    between atoms: N_23  and  C_24
REMARK   10  A    between atoms: N_23  and  C_26
REMARK   11  A    between atoms: C_24  and  C_25
REMARK   12  A    between atoms: C_26  and  C_27
REMARK   13  A    between atoms: C_30  and  C_32
REMARK                            x       y       z     vdW  Elec       q    Type
REMARK                         _______ _______ _______ _____ _____    ______ ____
ROOT
ATOM      1  C   UNL     1       0.528  -0.269  -0.932  0.00  0.00    +0.066 A 
ATOM      2  C   UNL     1       0.027  -0.642  -2.183  0.00  0.00    -0.001 A 
ATOM      3  C   UNL     1       1.042  -1.215  -2.886  0.00  0.00    +0.126 A 
ATOM      4  N   UNL     1       2.148  -1.198  -2.093  0.00  0.00    -0.218 N 
ATOM      5  N   UNL     1       1.794  -0.595  -0.879  0.00  0.00    -0.169 NA
ENDROOT
BRANCH   3   6
ATOM      6  N   UNL     1       0.964  -1.724  -4.179  0.00  0.00    -0.318 N 
ATOM      7  C   UNL     1       0.606  -3.131  -4.417  0.00  0.00    +0.088 C 
ATOM      8  C   UNL     1      -0.521  -3.176  -5.455  0.00  0.00    -0.060 C 
ATOM      9  N   UNL     1      -0.107  -2.444  -6.658  0.00  0.00    +0.380 N 
ATOM     10  C   UNL     1       0.080  -1.022  -6.339  0.00  0.00    -0.060 C 
ATOM     11  C   UNL     1       1.231  -0.869  -5.346  0.00  0.00    +0.088 C 
ATOM     12  C   UNL     1      -1.141  -2.580  -7.692  0.00  0.00    -0.096 C 
ATOM     13  H   UNL     1       0.761  -2.827  -7.002  0.00  0.00    -0.082 HD
ENDBRANCH   3   6
BRANCH   4  14
ATOM     14  C   UNL     1       3.416  -1.691  -2.432  0.00  0.00    +0.068 A 
ATOM     15  C   UNL     1       3.534  -2.898  -3.107  0.00  0.00    +0.028 A 
ATOM     16  C   UNL     1       4.784  -3.381  -3.441  0.00  0.00    +0.002 A 
ATOM     17  C   UNL     1       5.917  -2.664  -3.101  0.00  0.00    +0.003 A 
ATOM     18  C   UNL     1       5.802  -1.462  -2.428  0.00  0.00    -0.048 A 
ATOM     19  C   UNL     1       4.554  -0.971  -2.098  0.00  0.00    +0.031 A 
ATOM     20  C   UNL     1       7.039  -0.684  -2.060  0.00  0.00    +0.044 C 
ENDBRANCH   4  14
BRANCH   1  22
ATOM     21  C   UNL     1      -0.234   1.917  -0.044  0.00  0.00    +0.010 C 
ATOM     22  C   UNL     1      -0.256   0.402   0.166  0.00  0.00    +0.054 C 
ENDBRANCH   1  22
BRANCH   2  23
ATOM     23  C   UNL     1      -1.387  -0.447  -2.666  0.00  0.00    -0.037 C 
BRANCH  23  24
ATOM     24  N   UNL     1      -2.158  -1.676  -2.437  0.00  0.00    +0.385 N 
ATOM     25  H   UNL     1      -1.707  -2.447  -2.906  0.00  0.00    -0.081 HD
BRANCH  24  26
ATOM     26  C   UNL     1      -3.518  -1.508  -2.966  0.00  0.00    -0.081 C 
ATOM     27  C   UNL     1      -3.460  -1.380  -4.490  0.00  0.00    -0.017 C 
ENDBRANCH  24  26
BRANCH  24  28
ATOM     28  C   UNL     1      -2.224  -1.951  -0.996  0.00  0.00    -0.035 C 
BRANCH  28  29
ATOM     29  C   UNL     1      -2.908  -3.275  -0.768  0.00  0.00    -0.026 A 
ATOM     30  C   UNL     1      -2.363  -4.513  -0.684  0.00  0.00    +0.009 A 
ATOM     31  C   UNL     1      -3.193  -5.597  -0.467  0.00  0.00    +0.011 A 
ATOM     32  C   UNL     1      -4.527  -5.390  -0.345  0.00  0.00    -0.013 A 
ATOM     33  S   UNL     1      -4.644  -3.618  -0.530  0.00  0.00    -0.100 S 
ATOM     34  C   UNL     1      -5.626  -6.393  -0.108  0.00  0.00    +0.051 C 
ENDBRANCH  28  29
ENDBRANCH  24  28
ENDBRANCH  23  24
ENDBRANCH   2  23
TORSDOF 8
