REMARK  Name = ZINC09446493
REMARK  7 active torsions:
REMARK  status: ('A' for Active; 'I' for Inactive)
REMARK    1  A    between atoms: C_3  and  N_15
REMARK    2  A    between atoms: C_5  and  S_7
REMARK    3  A    between atoms: S_7  and  N_10
REMARK    4  A    between atoms: C_16  and  C_18
REMARK    5  A    between atoms: C_18  and  N_19
REMARK    6  A    between atoms: C_20  and  C_22
REMARK    7  A    between atoms: C_25  and  N_28
REMARK                            x       y       z     vdW  Elec       q    Type
REMARK                         _______ _______ _______ _____ _____    ______ ____
ROOT
ATOM      1  N   UNL     1      11.797  -1.692  -1.623  0.00  0.00    -0.284 N 
ATOM      2  C   UNL     1      10.474  -1.477  -1.483  0.00  0.00    +0.234 C 
ATOM      3  O   UNL     1       9.694  -2.398  -1.603  0.00  0.00    -0.274 OA
ATOM      4  H   UNL     1      12.426  -0.974  -1.450  0.00  0.00    +0.155 HD
ENDROOT
BRANCH   1   7
ATOM      5  C   UNL     1      13.922  -4.679  -1.907  0.00  0.00    +0.004 A 
ATOM      6  C   UNL     1      13.466  -3.434  -1.519  0.00  0.00    +0.023 A 
ATOM      7  C   UNL     1      12.264  -2.950  -2.017  0.00  0.00    +0.035 A 
ATOM      8  C   UNL     1      11.528  -3.716  -2.912  0.00  0.00    +0.052 A 
ATOM      9  C   UNL     1      11.991  -4.958  -3.299  0.00  0.00    +0.110 A 
ATOM     10  C   UNL     1      13.187  -5.440  -2.797  0.00  0.00    +0.029 A 
BRANCH   9  11
ATOM     11  S   UNL     1      11.059  -5.930  -4.435  0.00  0.00    +0.073 S 
ATOM     12  O   UNL     1      11.435  -7.283  -4.217  0.00  0.00    -0.150 OA
ATOM     13  O   UNL     1       9.711  -5.490  -4.336  0.00  0.00    -0.150 OA
BRANCH  11  14
ATOM     14  N   UNL     1      11.575  -5.535  -5.958  0.00  0.00    -0.205 N 
ATOM     15  C   UNL     1      12.860  -5.819  -6.341  0.00  0.00    +0.088 C 
ATOM     16  C   UNL     1      15.023  -6.567  -6.269  0.00  0.00    +0.114 C 
ATOM     17  C   UNL     1      14.966  -5.624  -7.494  0.00  0.00    +0.028 C 
ATOM     18  C   UNL     1      13.436  -5.508  -7.705  0.00  0.00    +0.072 C 
ATOM     19  H   UNL     1      10.969  -5.102  -6.579  0.00  0.00    +0.175 HD
ATOM     20  N   UNL     1      13.731  -6.395  -5.572  0.00  0.00    -0.375 N 
ATOM     21  H   UNL     1      13.548  -6.692  -4.606  0.00  0.00    +0.161 HD
ENDBRANCH  11  14
ENDBRANCH   9  11
ENDBRANCH   1   7
BRANCH   2  22
ATOM     22  C   UNL     1       9.964  -0.092  -1.179  0.00  0.00    +0.200 C 
BRANCH  22  23
ATOM     23  N   UNL     1       8.503  -0.122  -1.076  0.00  0.00    -0.303 N 
ATOM     24  C   UNL     1       7.823   1.011  -0.807  0.00  0.00    +0.244 C 
ATOM     25  O   UNL     1       8.422   2.057  -0.650  0.00  0.00    -0.270 OA
ATOM     26  H   UNL     1       8.025  -0.956  -1.201  0.00  0.00    +0.150 HD
BRANCH  24  27
ATOM     27  C   UNL     1       6.351   0.981  -0.704  0.00  0.00    +0.037 A 
ATOM     28  C   UNL     1       5.644   2.154  -0.425  0.00  0.00    +0.015 A 
ATOM     29  C   UNL     1       4.271   2.123  -0.330  0.00  0.00    +0.024 A 
ATOM     30  C   UNL     1       3.587   0.925  -0.511  0.00  0.00    +0.036 A 
ATOM     31  C   UNL     1       4.288  -0.246  -0.783  0.00  0.00    +0.024 A 
ATOM     32  C   UNL     1       5.660  -0.221  -0.885  0.00  0.00    +0.015 A 
BRANCH  30  33
ATOM     33  N   UNL     1       2.196   0.897  -0.414  0.00  0.00    -0.271 N 
ATOM     34  C   UNL     1       1.371   2.043  -0.016  0.00  0.00    +0.114 C 
ATOM     35  C   UNL     1      -0.065   1.692  -0.465  0.00  0.00    +0.029 C 
ATOM     36  C   UNL     1      -0.024   0.147  -0.477  0.00  0.00    +0.098 C 
ATOM     37  C   UNL     1       1.440  -0.183  -0.674  0.00  0.00    +0.220 C 
ATOM     38  O   UNL     1       1.868  -1.266  -1.016  0.00  0.00    -0.275 OA
ENDBRANCH  30  33
ENDBRANCH  24  27
ENDBRANCH  22  23
ENDBRANCH   2  22
TORSDOF 7
