REMARK  Name = ZINC40002617
REMARK  9 active torsions:
REMARK  status: ('A' for Active; 'I' for Inactive)
REMARK    1  A    between atoms: C_1  and  C_2
REMARK    2  A    between atoms: C_2  and  C_4
REMARK    3  A    between atoms: C_2  and  N_15
REMARK    4  A    between atoms: N_6  and  C_7
REMARK    5  A    between atoms: N_15  and  C_16
REMARK    6  A    between atoms: C_16  and  C_18
REMARK    7  A    between atoms: C_16  and  C_28
REMARK    8  A    between atoms: C_28  and  C_29
REMARK    9  A    between atoms: C_28  and  C_30
REMARK                            x       y       z     vdW  Elec       q    Type
REMARK                         _______ _______ _______ _____ _____    ______ ____
ROOT
ATOM      1  N   UNL     1      -1.405  -0.656   0.211  0.00  0.00    +0.391 N 
ATOM      2  H   UNL     1      -0.396  -0.667   0.206  0.00  0.00    -0.084 HD
ATOM      3  H   UNL     1      -1.751  -1.573   0.449  0.00  0.00    -0.084 HD
ENDROOT
BRANCH   1   5
ATOM      4  C   UNL     1      -3.397   0.203   1.347  0.00  0.00    -0.004 C 
ATOM      5  C   UNL     1      -1.878   0.318   1.204  0.00  0.00    +0.014 C 
BRANCH   5   6
ATOM      6  C   UNL     1      -1.225   0.038   2.533  0.00  0.00    +0.203 C 
ATOM      7  O   UNL     1      -0.443  -0.882   2.643  0.00  0.00    -0.277 OA
ATOM      8  N   UNL     1      -1.511   0.811   3.600  0.00  0.00    -0.285 N 
ATOM      9  H   UNL     1      -2.193   1.497   3.533  0.00  0.00    +0.155 HD
BRANCH   8  10
ATOM     10  C   UNL     1      -0.822   0.622   4.805  0.00  0.00    +0.069 A 
ATOM     11  C   UNL     1       0.437   0.039   4.803  0.00  0.00    +0.027 A 
ATOM     12  C   UNL     1       1.114  -0.146   5.993  0.00  0.00    +0.017 A 
ATOM     13  C   UNL     1       0.539   0.250   7.187  0.00  0.00    +0.021 A 
ATOM     14  C   UNL     1      -0.716   0.832   7.194  0.00  0.00    +0.055 A 
ATOM     15  C   UNL     1      -1.397   1.025   6.006  0.00  0.00    +0.146 A 
ATOM     16  F   UNL     1      -2.620   1.599   6.012  0.00  0.00    -0.204 F 
ATOM     17 BR   UNL     1       1.470  -0.006   8.813  0.00  0.00    -0.050 Br
ENDBRANCH   8  10
ENDBRANCH   5   6
ENDBRANCH   1   5
BRANCH   1  18
ATOM     18  C   UNL     1      -1.898  -0.277  -1.120  0.00  0.00    -0.037 C 
BRANCH  18  19
ATOM     19  C   UNL     1      -3.382  -0.524  -1.195  0.00  0.00    -0.057 A 
ATOM     20  C   UNL     1      -3.924  -1.654  -0.611  0.00  0.00    +0.006 A 
ATOM     21  C   UNL     1      -5.285  -1.885  -0.679  0.00  0.00    +0.049 A 
ATOM     22  C   UNL     1      -6.111  -0.983  -1.333  0.00  0.00    +0.162 A 
ATOM     23  C   UNL     1      -5.567   0.155  -1.918  0.00  0.00    +0.162 A 
ATOM     24  C   UNL     1      -4.200   0.382  -1.843  0.00  0.00    +0.051 A 
ATOM     25  O   UNL     1      -6.360   1.057  -2.558  0.00  0.00    -0.485 OA
ATOM     26  C   UNL     1      -7.669   0.612  -2.931  0.00  0.00    +0.270 C 
ATOM     27  C   UNL     1      -8.289  -0.115  -1.730  0.00  0.00    +0.270 C 
ATOM     28  O   UNL     1      -7.449  -1.225  -1.396  0.00  0.00    -0.485 OA
ENDBRANCH  18  19
BRANCH  18  29
ATOM     29  C   UNL     1      -1.187  -1.115  -2.184  0.00  0.00    -0.027 C 
ATOM     30  C   UNL     1      -1.621  -0.648  -3.575  0.00  0.00    +0.006 C 
ATOM     31  C   UNL     1       0.327  -0.946  -2.039  0.00  0.00    +0.006 C 
ENDBRANCH  18  29
ENDBRANCH   1  18
TORSDOF 6
