REMARK  Name = ZINC03348383
REMARK  8 active torsions:
REMARK  status: ('A' for Active; 'I' for Inactive)
REMARK    1  A    between atoms: C_1  and  C_2
REMARK    2  A    between atoms: C_2  and  C_4
REMARK    3  A    between atoms: C_2  and  N_41
REMARK    4  A    between atoms: N_6  and  C_7
REMARK    5  A    between atoms: C_16  and  C_17
REMARK    6  A    between atoms: C_16  and  N_41
REMARK    7  A    between atoms: C_20  and  S_23
REMARK    8  A    between atoms: S_23  and  N_26
REMARK                            x       y       z     vdW  Elec       q    Type
REMARK                         _______ _______ _______ _____ _____    ______ ____
ROOT
ATOM      1  N   UNL     1       1.244  -2.661  -1.429  0.00  0.00    +0.389 N 
ATOM      2  H   UNL     1       0.394  -2.319  -1.893  0.00  0.00    -0.084 HD
ATOM      3  H   UNL     1       2.070  -2.302  -1.922  0.00  0.00    -0.084 HD
ENDROOT
BRANCH   1   5
ATOM      4  C   UNL     1       2.703  -4.634  -1.379  0.00  0.00    -0.004 C 
ATOM      5  C   UNL     1       1.259  -4.135  -1.464  0.00  0.00    +0.014 C 
BRANCH   5   6
ATOM      6  C   UNL     1       0.641  -4.606  -2.756  0.00  0.00    +0.203 C 
ATOM      7  O   UNL     1       0.229  -3.797  -3.561  0.00  0.00    -0.277 OA
ATOM      8  N   UNL     1       0.546  -5.925  -3.017  0.00  0.00    -0.284 N 
ATOM      9  H   UNL     1       0.933  -6.569  -2.404  0.00  0.00    +0.155 HD
BRANCH   8  10
ATOM     10  C   UNL     1      -0.112  -6.365  -4.173  0.00  0.00    +0.072 A 
ATOM     11  C   UNL     1      -0.036  -5.619  -5.342  0.00  0.00    +0.029 A 
ATOM     12  C   UNL     1      -0.684  -6.054  -6.482  0.00  0.00    +0.043 A 
ATOM     13  C   UNL     1      -1.409  -7.233  -6.462  0.00  0.00    +0.161 A 
ATOM     14  C   UNL     1      -1.488  -7.981  -5.296  0.00  0.00    +0.195 A 
ATOM     15  C   UNL     1      -0.836  -7.551  -4.153  0.00  0.00    +0.182 A 
ATOM     16  F   UNL     1      -0.906  -8.281  -3.019  0.00  0.00    -0.200 F 
ATOM     17  F   UNL     1      -2.197  -9.130  -5.278  0.00  0.00    -0.199 F 
ATOM     18  F   UNL     1      -2.041  -7.656  -7.578  0.00  0.00    -0.202 F 
ENDBRANCH   8  10
ENDBRANCH   5   6
ENDBRANCH   1   5
BRANCH   1  19
ATOM     19  C   UNL     1       1.263  -2.181  -0.035  0.00  0.00    -0.046 C 
BRANCH  19  20
ATOM     20  C   UNL     1       1.248  -0.674  -0.030  0.00  0.00    -0.064 A 
ATOM     21  C   UNL     1       0.043   0.004  -0.007  0.00  0.00    +0.003 A 
ATOM     22  C   UNL     1       0.029   1.387  -0.003  0.00  0.00    +0.029 A 
ATOM     23  C   UNL     1       1.219   2.090  -0.021  0.00  0.00    +0.105 A 
ATOM     24  C   UNL     1       2.423   1.411  -0.045  0.00  0.00    +0.029 A 
ATOM     25  C   UNL     1       2.437   0.029  -0.049  0.00  0.00    +0.003 A 
BRANCH  23  26
ATOM     26  S   UNL     1       1.201   3.852  -0.015  0.00  0.00    +0.056 S 
ATOM     27  O   UNL     1       2.432   4.273  -0.586  0.00  0.00    -0.153 OA
ATOM     28  O   UNL     1      -0.058   4.247  -0.544  0.00  0.00    -0.153 OA
BRANCH  26  29
ATOM     29  N   UNL     1       1.222   4.337   1.568  0.00  0.00    -0.204 NA
ATOM     30  H   UNL     1       1.638   5.179   1.812  0.00  0.00    +0.144 HD
ATOM     31  H   UNL     1       0.819   3.779   2.252  0.00  0.00    +0.144 HD
ENDBRANCH  26  29
ENDBRANCH  23  26
ENDBRANCH  19  20
ENDBRANCH   1  19
TORSDOF 7
