REMARK  Name = ZINC59384929
REMARK  9 active torsions:
REMARK  status: ('A' for Active; 'I' for Inactive)
REMARK    1  A    between atoms: C_1  and  C_2
REMARK    2  A    between atoms: C_3  and  C_18
REMARK    3  A    between atoms: C_4  and  C_10
REMARK    4  A    between atoms: N_20  and  N_21
REMARK    5  A    between atoms: C_22  and  C_23
REMARK    6  A    between atoms: C_26  and  O_31
REMARK    7  A    between atoms: C_28  and  O_29
REMARK    8  A    between atoms: O_29  and  C_30
REMARK    9  A    between atoms: O_31  and  C_32
REMARK                            x       y       z     vdW  Elec       q    Type
REMARK                         _______ _______ _______ _____ _____    ______ ____
ROOT
ATOM      1  C   UNL     1      -0.870  -1.493  -2.476  0.00  0.00    +0.061 C 
ATOM      2  C   UNL     1      -0.281  -1.453  -1.089  0.00  0.00    +0.017 C 
ATOM      3  C   UNL     1      -1.020  -0.970  -0.068  0.00  0.00    +0.057 C 
ATOM      4  C   UNL     1      -0.390  -0.947   1.310  0.00  0.00    +0.141 C 
ATOM      5  N   UNL     1       0.987  -1.459   1.423  0.00  0.00    -0.315 N 
ATOM      6  C   UNL     1       1.596  -1.910   0.309  0.00  0.00    +0.135 C 
ATOM      7  S   UNL     1       3.196  -2.507   0.425  0.00  0.00    -0.019 S 
ATOM      8  N   UNL     1       0.989  -1.911  -0.885  0.00  0.00    -0.300 N 
ATOM      9  H   UNL     1       1.444  -1.470   2.278  0.00  0.00    +0.149 HD
ATOM     10  H   UNL     1       1.481  -2.253  -1.648  0.00  0.00    +0.154 HD
ENDROOT
BRANCH   4  11
ATOM     11  C   UNL     1      -1.263  -1.758   2.233  0.00  0.00    -0.004 A 
ATOM     12  C   UNL     1      -1.008  -3.104   2.420  0.00  0.00    +0.008 A 
ATOM     13  C   UNL     1      -1.809  -3.848   3.266  0.00  0.00    +0.020 A 
ATOM     14  C   UNL     1      -2.865  -3.246   3.927  0.00  0.00    +0.042 A 
ATOM     15  C   UNL     1      -3.119  -1.899   3.741  0.00  0.00    +0.040 A 
ATOM     16  C   UNL     1      -2.315  -1.154   2.897  0.00  0.00    +0.048 A 
ATOM     17 CL   UNL     1      -2.630   0.538   2.668  0.00  0.00    -0.083 Cl
ATOM     18 CL   UNL     1      -3.870  -4.181   4.990  0.00  0.00    -0.083 Cl
ENDBRANCH   4  11
BRANCH   3  19
ATOM     19  C   UNL     1      -2.339  -0.498  -0.278  0.00  0.00    +0.263 C 
ATOM     20  O   UNL     1      -2.553   0.698  -0.356  0.00  0.00    -0.269 OA
ATOM     21  N   UNL     1      -3.357  -1.374  -0.390  0.00  0.00    -0.203 N 
ATOM     22  H   UNL     1      -3.198  -2.322  -0.260  0.00  0.00    +0.178 HD
BRANCH  21  23
ATOM     23  N   UNL     1      -4.646  -0.915  -0.694  0.00  0.00    -0.187 NA
ATOM     24  C   UNL     1      -5.606  -1.765  -0.899  0.00  0.00    +0.142 C 
BRANCH  24  25
ATOM     25  C   UNL     1      -6.933  -1.288  -1.327  0.00  0.00    +0.036 A 
ATOM     26  C   UNL     1      -7.970  -2.200  -1.542  0.00  0.00    +0.016 A 
ATOM     27  C   UNL     1      -9.209  -1.750  -1.942  0.00  0.00    +0.046 A 
ATOM     28  C   UNL     1      -9.431  -0.391  -2.133  0.00  0.00    +0.124 A 
ATOM     29  C   UNL     1      -8.408   0.522  -1.922  0.00  0.00    +0.091 A 
ATOM     30  C   UNL     1      -7.161   0.083  -1.514  0.00  0.00    +0.132 A 
BRANCH  30  31
ATOM     31  O   UNL     1      -6.160   0.976  -1.301  0.00  0.00    -0.494 OA
ATOM     32  C   UNL     1      -6.466   2.355  -1.512  0.00  0.00    +0.277 C 
ENDBRANCH  30  31
BRANCH  28  33
ATOM     33  O   UNL     1     -10.656   0.045  -2.529  0.00  0.00    -0.495 OA
ATOM     34  C   UNL     1     -11.664  -0.948  -2.728  0.00  0.00    +0.277 C 
ENDBRANCH  28  33
ENDBRANCH  24  25
ENDBRANCH  21  23
ENDBRANCH   3  19
TORSDOF 6
