REMARK  Name = ZINC24789131
REMARK  16 active torsions:
REMARK  status: ('A' for Active; 'I' for Inactive)
REMARK    1  A    between atoms: C_1  and  C_2
REMARK    2  A    between atoms: C_2  and  O_3
REMARK    3  A    between atoms: O_3  and  C_4
REMARK    4  A    between atoms: C_4  and  C_6
REMARK    5  A    between atoms: C_7  and  C_33
REMARK    6  A    between atoms: C_9  and  N_11
REMARK    7  A    between atoms: C_12  and  C_14
REMARK    8  A    between atoms: C_14  and  S_15
REMARK    9  A    between atoms: S_15  and  C_16
REMARK   10  A    between atoms: C_19  and  C_22
REMARK   11  A    between atoms: N_20  and  N_21
REMARK   12  A    between atoms: C_22  and  O_23
REMARK   13  A    between atoms: O_23  and  C_24
REMARK   14  A    between atoms: C_27  and  C_30
REMARK   15  A    between atoms: C_30  and  C_31
REMARK   16  A    between atoms: C_30  and  C_32
REMARK                            x       y       z     vdW  Elec       q    Type
REMARK                         _______ _______ _______ _____ _____    ______ ____
ROOT
ATOM      1  C   UNL     1      -7.657   1.974   0.048  0.00  0.00    +0.209 A 
ATOM      2  N   UNL     1      -7.777   0.666   0.042  0.00  0.00    -0.121 NA
ATOM      3  N   UNL     1      -9.021   0.343   0.046  0.00  0.00    -0.128 NA
ATOM      4  C   UNL     1      -9.762   1.415   0.054  0.00  0.00    +0.189 A 
ATOM      5  N   UNL     1      -8.919   2.492   0.062  0.00  0.00    -0.225 N 
ENDROOT
BRANCH   5   6
ATOM      6  N   UNL     1      -9.269   3.812   0.078  0.00  0.00    -0.295 N 
ATOM      7  H   UNL     1     -10.331   4.100   0.088  0.00  0.00    +0.163 HD
ATOM      8  H   UNL     1      -8.489   4.588   0.080  0.00  0.00    +0.163 HD
ENDBRANCH   5   6
BRANCH   1   9
ATOM      9  S   UNL     1      -6.149   2.886   0.046  0.00  0.00    -0.075 S 
BRANCH   9  10
ATOM     10  C   UNL     1      -4.957   1.524   0.033  0.00  0.00    +0.173 C 
BRANCH  10  12
ATOM     11  N   UNL     1      -2.499   1.248   0.020  0.00  0.00    -0.279 N 
ATOM     12  C   UNL     1      -3.557   2.082   0.030  0.00  0.00    +0.228 C 
ATOM     13  O   UNL     1      -3.383   3.283   0.036  0.00  0.00    -0.275 OA
ATOM     14  H   UNL     1      -2.657   0.159   0.015  0.00  0.00    +0.155 HD
BRANCH  11  18
ATOM     15  C   UNL     1       1.056   3.174   0.009  0.00  0.00    +0.101 A 
ATOM     16  C   UNL     1       1.155   1.788   0.001  0.00  0.00    -0.028 A 
ATOM     17  C   UNL     1      -0.013   1.076   0.008  0.00  0.00    +0.035 A 
ATOM     18  C   UNL     1      -1.209   1.762   0.017  0.00  0.00    +0.073 A 
ATOM     19  S   UNL     1      -0.710   3.422   0.026  0.00  0.00    -0.067 S 
ATOM     20  C   UNL     1       2.495   1.098  -0.015  0.00  0.00    +0.045 C 
BRANCH  15  21
ATOM     21  C   UNL     1       2.091   4.141   0.003  0.00  0.00    +0.346 C 
ATOM     22  O   UNL     1       3.255   3.786  -0.010  0.00  0.00    -0.244 OA
BRANCH  21  23
ATOM     23  O   UNL     1       1.786   5.455   0.013  0.00  0.00    -0.461 OA
BRANCH  23  25
ATOM     24  C   UNL     1       2.343   7.807   0.019  0.00  0.00    +0.048 C 
ATOM     25  C   UNL     1       2.880   6.375   0.007  0.00  0.00    +0.229 C 
ENDBRANCH  23  25
ENDBRANCH  21  23
ENDBRANCH  15  21
ENDBRANCH  11  18
ENDBRANCH  10  12
ENDBRANCH   9  10
ENDBRANCH   1   9
BRANCH   4  26
ATOM     26  C   UNL     1     -11.268   1.459   0.061  0.00  0.00    +0.306 C 
BRANCH  26  27
ATOM     27  O   UNL     1     -11.739   1.466   1.411  0.00  0.00    -0.484 OA
BRANCH  27  28
ATOM     28  C   UNL     1     -13.085   1.504   1.595  0.00  0.00    +0.121 A 
ATOM     29  C   UNL     1     -13.935   1.541   0.499  0.00  0.00    +0.046 A 
ATOM     30  C   UNL     1     -15.303   1.574   0.689  0.00  0.00    +0.007 A 
ATOM     31  C   UNL     1     -15.824   1.583   1.970  0.00  0.00    -0.045 A 
ATOM     32  C   UNL     1     -14.979   1.552   3.063  0.00  0.00    +0.007 A 
ATOM     33  C   UNL     1     -13.610   1.513   2.879  0.00  0.00    +0.046 A 
BRANCH  31  34
ATOM     34  C   UNL     1     -17.317   1.626   2.174  0.00  0.00    +0.013 C 
ATOM     35  C   UNL     1     -17.883   2.896   1.535  0.00  0.00    +0.012 C 
ATOM     36  C   UNL     1     -17.956   0.399   1.522  0.00  0.00    +0.012 C 
ENDBRANCH  31  34
ENDBRANCH  27  28
ENDBRANCH  26  27
ENDBRANCH   4  26
TORSDOF 12
