REMARK  Name = ZINC12534795
REMARK  10 active torsions:
REMARK  status: ('A' for Active; 'I' for Inactive)
REMARK    1  A    between atoms: C_1  and  C_2
REMARK    2  A    between atoms: C_2  and  C_4
REMARK    3  A    between atoms: C_2  and  N_14
REMARK    4  A    between atoms: C_7  and  S_10
REMARK    5  A    between atoms: S_10  and  N_13
REMARK    6  A    between atoms: C_15  and  C_17
REMARK    7  A    between atoms: C_17  and  S_18
REMARK    8  A    between atoms: S_18  and  C_19
REMARK    9  A    between atoms: C_27  and  N_29
REMARK   10  A    between atoms: N_29  and  C_30
REMARK                            x       y       z     vdW  Elec       q    Type
REMARK                         _______ _______ _______ _____ _____    ______ ____
ROOT
ATOM      1  C   UNL     1       2.672   4.205  -0.857  0.00  0.00    +0.173 C 
ENDROOT
BRANCH   1   3
ATOM      2  N   UNL     1       4.022   6.250  -1.200  0.00  0.00    -0.308 N 
ATOM      3  C   UNL     1       2.804   5.694  -1.049  0.00  0.00    +0.224 C 
ATOM      4  O   UNL     1       1.812   6.393  -1.067  0.00  0.00    -0.275 OA
ATOM      5  H   UNL     1       4.815   5.691  -1.185  0.00  0.00    +0.149 HD
BRANCH   2   7
ATOM      6  C   UNL     1       4.165   8.388  -0.021  0.00  0.00    +0.033 C 
ATOM      7  C   UNL     1       4.149   7.697  -1.386  0.00  0.00    +0.100 C 
BRANCH   7   8
ATOM      8  C   UNL     1       5.433   7.999  -2.117  0.00  0.00    -0.027 A 
ATOM      9  C   UNL     1       6.584   7.299  -1.809  0.00  0.00    +0.007 A 
ATOM     10  C   UNL     1       7.760   7.572  -2.482  0.00  0.00    +0.029 A 
ATOM     11  C   UNL     1       7.787   8.553  -3.456  0.00  0.00    +0.105 A 
ATOM     12  C   UNL     1       6.636   9.256  -3.760  0.00  0.00    +0.029 A 
ATOM     13  C   UNL     1       5.459   8.979  -3.091  0.00  0.00    +0.007 A 
BRANCH  11  14
ATOM     14  S   UNL     1       9.287   8.906  -4.310  0.00  0.00    +0.056 S 
ATOM     15  O   UNL     1      10.089   7.736  -4.224  0.00  0.00    -0.153 OA
ATOM     16  O   UNL     1       8.920   9.488  -5.553  0.00  0.00    -0.153 OA
BRANCH  14  17
ATOM     17  N   UNL     1      10.074  10.083  -3.450  0.00  0.00    -0.204 NA
ATOM     18  H   UNL     1       9.679  10.436  -2.638  0.00  0.00    +0.144 HD
ATOM     19  H   UNL     1      10.930  10.419  -3.759  0.00  0.00    +0.144 HD
ENDBRANCH  14  17
ENDBRANCH  11  14
ENDBRANCH   7   8
ENDBRANCH   2   7
ENDBRANCH   1   3
BRANCH   1  20
ATOM     20  S   UNL     1       0.924   3.771  -0.685  0.00  0.00    -0.077 S 
BRANCH  20  21
ATOM     21  C   UNL     1       1.061   2.026  -0.480  0.00  0.00    +0.191 A 
ATOM     22  N   UNL     1       2.263   1.480  -0.495  0.00  0.00    -0.222 NA
ATOM     23  C   UNL     1       2.409   0.156  -0.343  0.00  0.00    +0.077 A 
ATOM     24  C   UNL     1       3.669  -0.457  -0.354  0.00  0.00    +0.028 A 
ATOM     25  C   UNL     1       3.763  -1.808  -0.196  0.00  0.00    +0.002 A 
ATOM     26  C   UNL     1       2.624  -2.590  -0.022  0.00  0.00    +0.001 A 
ATOM     27  C   UNL     1       1.383  -2.026  -0.006  0.00  0.00    +0.013 A 
ATOM     28  C   UNL     1       1.252  -0.642  -0.166  0.00  0.00    +0.041 A 
ATOM     29  C   UNL     1      -0.012  -0.001  -0.159  0.00  0.00    +0.135 A 
ATOM     30  N   UNL     1      -0.051   1.314  -0.317  0.00  0.00    -0.206 NA
BRANCH  29  31
ATOM     31  N   UNL     1      -1.173  -0.727   0.010  0.00  0.00    -0.299 N 
ATOM     32  H   UNL     1      -1.138  -1.696   0.044  0.00  0.00    +0.154 HD
BRANCH  31  33
ATOM     33  C   UNL     1      -2.399  -0.067   0.131  0.00  0.00    +0.032 A 
ATOM     34  C   UNL     1      -2.463   1.175   0.750  0.00  0.00    +0.023 A 
ATOM     35  C   UNL     1      -3.675   1.827   0.863  0.00  0.00    +0.002 A 
ATOM     36  C   UNL     1      -4.826   1.239   0.371  0.00  0.00    +0.000 A 
ATOM     37  C   UNL     1      -4.767  -0.000  -0.240  0.00  0.00    +0.002 A 
ATOM     38  C   UNL     1      -3.557  -0.655  -0.362  0.00  0.00    +0.023 A 
ENDBRANCH  31  33
ENDBRANCH  29  31
ENDBRANCH  20  21
ENDBRANCH   1  20
TORSDOF 9
