REMARK  Name = ZINC39021201
REMARK  10 active torsions:
REMARK  status: ('A' for Active; 'I' for Inactive)
REMARK    1  A    between atoms: C_1  and  O_2
REMARK    2  A    between atoms: O_2  and  C_3
REMARK    3  A    between atoms: C_6  and  C_9
REMARK    4  A    between atoms: C_11  and  C_15
REMARK    5  A    between atoms: C_19  and  S_23
REMARK    6  A    between atoms: N_21  and  N_22
REMARK    7  A    between atoms: S_23  and  C_24
REMARK    8  A    between atoms: C_24  and  C_25
REMARK    9  A    between atoms: N_27  and  C_28
REMARK   10  A    between atoms: C_33  and  C_34
REMARK                            x       y       z     vdW  Elec       q    Type
REMARK                         _______ _______ _______ _____ _____    ______ ____
ROOT
ATOM      1  C   UNL     1      -7.066  -4.865   1.348  0.00  0.00    +0.185 C 
ATOM      2  N   UNL     1      -6.864  -4.025   2.557  0.00  0.00    -0.234 NA
ATOM      3  N   UNL     1      -7.830  -4.583   3.516  0.00  0.00    -0.228 NA
ATOM      4  C   UNL     1      -9.014  -4.920   2.693  0.00  0.00    +0.214 C 
ATOM      5  N   UNL     1      -8.527  -5.105   1.308  0.00  0.00    -0.197 NA
ATOM      6  H   UNL     1      -5.920  -4.111   2.904  0.00  0.00    +0.143 HD
ATOM      7  H   UNL     1      -7.458  -5.405   3.967  0.00  0.00    +0.143 HD
ENDROOT
BRANCH   1  10
ATOM      8  C   UNL     1      -4.938  -2.600   0.098  0.00  0.00    +0.091 C 
ATOM      9  C   UNL     1      -5.104  -3.937   0.093  0.00  0.00    +0.034 C 
ATOM     10  C   UNL     1      -6.611  -4.117   0.094  0.00  0.00    +0.187 C 
ATOM     11  N   UNL     1      -7.114  -2.733   0.099  0.00  0.00    -0.176 NA
ATOM     12  N   UNL     1      -6.143  -1.973   0.107  0.00  0.00    -0.154 NA
BRANCH   8  16
ATOM     13  C   UNL     1      -1.172  -0.622   0.104  0.00  0.00    +0.120 A 
ATOM     14  C   UNL     1      -2.345   0.120   0.113  0.00  0.00    +0.046 A 
ATOM     15  C   UNL     1      -3.567  -0.518   0.111  0.00  0.00    +0.013 A 
ATOM     16  C   UNL     1      -3.624  -1.911   0.100  0.00  0.00    +0.002 A 
ATOM     17  C   UNL     1      -2.445  -2.654   0.091  0.00  0.00    +0.013 A 
ATOM     18  C   UNL     1      -1.226  -2.010   0.088  0.00  0.00    +0.046 A 
BRANCH  13  20
ATOM     19  C   UNL     1       0.013   1.438   0.123  0.00  0.00    +0.277 C 
ATOM     20  O   UNL     1       0.031   0.009   0.106  0.00  0.00    -0.495 OA
ENDBRANCH  13  20
ENDBRANCH   8  16
ENDBRANCH   1  10
BRANCH   5  21
ATOM     21  N   UNL     1      -8.823  -6.443   0.822  0.00  0.00    -0.264 NA
ATOM     22  H   UNL     1      -9.818  -6.606   0.795  0.00  0.00    +0.137 HD
ATOM     23  H   UNL     1      -8.406  -6.599  -0.083  0.00  0.00    +0.137 HD
ENDBRANCH   5  21
BRANCH   4  24
ATOM     24  S   UNL     1      -9.772  -6.455   3.293  0.00  0.00    -0.115 S 
BRANCH  24  25
ATOM     25  C   UNL     1      -8.442  -7.682   3.163  0.00  0.00    +0.168 C 
BRANCH  25  26
ATOM     26  C   UNL     1      -8.945  -9.021   3.637  0.00  0.00    +0.227 C 
ATOM     27  O   UNL     1     -10.088  -9.137   4.024  0.00  0.00    -0.275 OA
ATOM     28  N   UNL     1      -8.124 -10.090   3.630  0.00  0.00    -0.284 N 
ATOM     29  H   UNL     1      -7.236 -10.017   3.246  0.00  0.00    +0.155 HD
BRANCH  28  30
ATOM     30  C   UNL     1      -8.553 -11.305   4.176  0.00  0.00    +0.045 A 
ATOM     31  C   UNL     1      -9.543 -11.319   5.150  0.00  0.00    +0.024 A 
ATOM     32  C   UNL     1      -9.963 -12.519   5.687  0.00  0.00    +0.002 A 
ATOM     33  C   UNL     1      -9.400 -13.707   5.257  0.00  0.00    +0.001 A 
ATOM     34  C   UNL     1      -8.414 -13.696   4.288  0.00  0.00    +0.014 A 
ATOM     35  C   UNL     1      -7.993 -12.499   3.742  0.00  0.00    +0.076 A 
BRANCH  35  36
ATOM     36  C   UNL     1      -6.923 -12.489   2.680  0.00  0.00    +0.419 C 
ATOM     37  F   UNL     1      -6.520 -13.801   2.412  0.00  0.00    -0.166 F 
ATOM     38  F   UNL     1      -7.431 -11.909   1.512  0.00  0.00    -0.166 F 
ATOM     39  F   UNL     1      -5.827 -11.746   3.131  0.00  0.00    -0.166 F 
ENDBRANCH  35  36
ENDBRANCH  28  30
ENDBRANCH  25  26
ENDBRANCH  24  25
ENDBRANCH   4  24
TORSDOF 9
