REMARK  Name = ZINC59119922
REMARK  14 active torsions:
REMARK  status: ('A' for Active; 'I' for Inactive)
REMARK    1  A    between atoms: C_1  and  C_2
REMARK    2  A    between atoms: C_2  and  N_3
REMARK    3  A    between atoms: N_3  and  C_4
REMARK    4  A    between atoms: N_3  and  C_6
REMARK    5  A    between atoms: C_4  and  C_5
REMARK    6  A    between atoms: C_6  and  C_8
REMARK    7  A    between atoms: C_6  and  C_25
REMARK    8  A    between atoms: C_8  and  N_9
REMARK    9  A    between atoms: N_12  and  C_13
REMARK   10  A    between atoms: C_13  and  C_14
REMARK   11  A    between atoms: C_14  and  C_16
REMARK   12  A    between atoms: C_14  and  O_24
REMARK   13  A    between atoms: C_19  and  O_22
REMARK   14  A    between atoms: O_22  and  C_23
REMARK                            x       y       z     vdW  Elec       q    Type
REMARK                         _______ _______ _______ _____ _____    ______ ____
ROOT
ATOM      1  N   UNL     1       0.378  -1.917   1.463  0.00  0.00    -0.301 N 
ATOM      2  C   UNL     1       1.113  -2.370   2.497  0.00  0.00    +0.300 C 
ATOM      3  O   UNL     1       0.607  -3.095   3.332  0.00  0.00    -0.253 OA
ATOM      4  N   UNL     1       2.410  -2.020   2.607  0.00  0.00    -0.297 N 
ATOM      5  H   UNL     1       0.781  -1.339   0.797  0.00  0.00    +0.150 HD
ATOM      6  H   UNL     1       2.814  -1.442   1.941  0.00  0.00    +0.150 HD
ENDROOT
BRANCH   1   7
ATOM      7  C   UNL     1      -1.032  -2.298   1.344  0.00  0.00    +0.095 C 
BRANCH   7   8
ATOM      8  C   UNL     1      -1.656  -1.577   0.148  0.00  0.00    -0.020 C 
BRANCH   8   9
ATOM      9  C   UNL     1      -3.033  -2.132  -0.111  0.00  0.00    -0.052 A 
ATOM     10  C   UNL     1      -3.236  -3.066  -1.110  0.00  0.00    +0.009 A 
ATOM     11  C   UNL     1      -4.487  -3.546  -1.317  0.00  0.00    +0.045 A 
ATOM     12  S   UNL     1      -5.428  -2.670  -0.078  0.00  0.00    -0.105 S 
ATOM     13  C   UNL     1      -4.089  -1.728   0.636  0.00  0.00    +0.047 A 
ENDBRANCH   8   9
BRANCH   8  14
ATOM     14  N   UNL     1      -1.754  -0.141   0.439  0.00  0.00    +0.385 N 
ATOM     15  H   UNL     1      -2.205  -0.008   1.332  0.00  0.00    -0.081 HD
BRANCH  14  17
ATOM     16  C   UNL     1       0.234   0.341  -0.907  0.00  0.00    -0.017 C 
ATOM     17  C   UNL     1      -0.407   0.444   0.478  0.00  0.00    -0.081 C 
ENDBRANCH  14  17
BRANCH  14  18
ATOM     18  C   UNL     1      -2.544   0.519  -0.610  0.00  0.00    -0.081 C 
ATOM     19  C   UNL     1      -2.770   1.984  -0.233  0.00  0.00    -0.017 C 
ENDBRANCH  14  18
ENDBRANCH   8  14
ENDBRANCH   7   8
ENDBRANCH   1   7
BRANCH   4  20
ATOM     20  C   UNL     1       3.210  -2.513   3.731  0.00  0.00    +0.141 C 
BRANCH  20  21
ATOM     21  C   UNL     1       4.636  -1.971   3.618  0.00  0.00    +0.162 C 
BRANCH  21  22
ATOM     22  C   UNL     1       5.459  -2.478   4.774  0.00  0.00    -0.017 A 
ATOM     23  C   UNL     1       6.070  -3.716   4.697  0.00  0.00    +0.010 A 
ATOM     24  C   UNL     1       6.824  -4.183   5.756  0.00  0.00    +0.046 A 
ATOM     25  C   UNL     1       6.969  -3.408   6.898  0.00  0.00    +0.120 A 
ATOM     26  C   UNL     1       6.355  -2.166   6.973  0.00  0.00    +0.046 A 
ATOM     27  C   UNL     1       5.606  -1.701   5.909  0.00  0.00    +0.010 A 
BRANCH  25  28
ATOM     28  O   UNL     1       7.710  -3.865   7.941  0.00  0.00    -0.495 OA
ATOM     29  C   UNL     1       7.815  -3.015   9.084  0.00  0.00    +0.277 C 
ENDBRANCH  25  28
ENDBRANCH  21  22
BRANCH  21  30
ATOM     30  O   UNL     1       5.218  -2.413   2.390  0.00  0.00    -0.386 OA
ATOM     31  H   UNL     1       5.270  -3.374   2.303  0.00  0.00    +0.210 HD
ENDBRANCH  21  30
ENDBRANCH  20  21
ENDBRANCH   4  20
TORSDOF 11
