REMARK  Name = ZINC63375704
REMARK  8 active torsions:
REMARK  status: ('A' for Active; 'I' for Inactive)
REMARK    1  A    between atoms: C_1  and  C_2
REMARK    2  A    between atoms: C_2  and  C_3
REMARK    3  A    between atoms: C_3  and  N_4
REMARK    4  A    between atoms: C_5  and  C_7
REMARK    5  A    between atoms: C_10  and  N_13
REMARK    6  A    between atoms: C_29  and  C_34
REMARK    7  A    between atoms: C_38  and  O_40
REMARK    8  A    between atoms: O_40  and  C_41
REMARK                            x       y       z     vdW  Elec       q    Type
REMARK                         _______ _______ _______ _____ _____    ______ ____
ROOT
ATOM      1  N   UNL     1       1.399  -8.309  -2.402  0.00  0.00    -0.193 N 
ATOM      2  C   UNL     1       1.857  -9.081  -3.410  0.00  0.00    +0.248 C 
ATOM      3  O   UNL     1       2.291  -8.709  -4.479  0.00  0.00    -0.273 OA
ATOM      4  C   UNL     1       1.714 -10.508  -2.928  0.00  0.00    +0.169 C 
ATOM      5  C   UNL     1       0.810 -11.300  -3.889  0.00  0.00    +0.065 C 
ATOM      6  C   UNL     1       0.242 -12.449  -3.088  0.00  0.00    -0.034 C 
ATOM      7  C   UNL     1       0.257 -13.757  -3.322  0.00  0.00    -0.001 A 
ATOM      8  C   UNL     1       0.736 -14.540  -4.473  0.00  0.00    +0.010 A 
ATOM      9  C   UNL     1       0.614 -15.890  -4.372  0.00  0.00    +0.001 A 
ATOM     10  C   UNL     1       0.070 -16.532  -3.254  0.00  0.00    +0.002 A 
ATOM     11  C   UNL     1      -0.403 -15.890  -2.156  0.00  0.00    +0.026 A 
ATOM     12  C   UNL     1      -0.335 -14.466  -2.148  0.00  0.00    +0.043 A 
ATOM     13  N   UNL     1      -0.725 -13.611  -1.250  0.00  0.00    -0.375 N 
ATOM     14  C   UNL     1      -0.482 -12.261  -1.762  0.00  0.00    +0.131 C 
ATOM     15  C   UNL     1       0.463 -11.472  -0.844  0.00  0.00    +0.135 C 
ATOM     16  N   UNL     1       1.023 -10.360  -1.631  0.00  0.00    -0.264 N 
ATOM     17  C   UNL     1       0.957  -9.047  -1.375  0.00  0.00    +0.317 C 
ATOM     18  O   UNL     1       0.540  -8.580  -0.333  0.00  0.00    -0.252 OA
ATOM     19  H   UNL     1      -1.112 -13.830  -0.388  0.00  0.00    +0.160 HD
ENDROOT
BRANCH   1  23
ATOM     20  C   UNL     1       1.382  -4.141  -2.469  0.00  0.00    +0.037 A 
ATOM     21  C   UNL     1       0.784  -4.827  -1.409  0.00  0.00    +0.015 A 
ATOM     22  C   UNL     1       0.792  -6.204  -1.390  0.00  0.00    +0.025 A 
ATOM     23  C   UNL     1       1.394  -6.911  -2.425  0.00  0.00    +0.045 A 
ATOM     24  C   UNL     1       1.990  -6.232  -3.481  0.00  0.00    +0.025 A 
ATOM     25  C   UNL     1       1.981  -4.855  -3.510  0.00  0.00    +0.015 A 
BRANCH  20  27
ATOM     26  N   UNL     1       0.797  -1.977  -1.488  0.00  0.00    -0.311 N 
ATOM     27  C   UNL     1       1.376  -2.665  -2.493  0.00  0.00    +0.244 C 
ATOM     28  O   UNL     1       1.892  -2.069  -3.419  0.00  0.00    -0.270 OA
ATOM     29  H   UNL     1       0.385  -2.452  -0.750  0.00  0.00    +0.149 HD
BRANCH  26  30
ATOM     30  C   UNL     1       0.791  -0.512  -1.512  0.00  0.00    +0.104 C 
BRANCH  30  32
ATOM     31  C   UNL     1       0.070   1.545  -0.290  0.00  0.00    +0.005 C 
ATOM     32  C   UNL     1       0.077   0.015  -0.266  0.00  0.00    +0.015 C 
ENDBRANCH  30  32
ENDBRANCH  26  30
ENDBRANCH  20  27
ENDBRANCH   1  23
BRANCH  15  33
ATOM     33  C   UNL     1       1.583 -12.361  -0.371  0.00  0.00    -0.021 A 
ATOM     34  C   UNL     1       2.520 -12.832  -1.273  0.00  0.00    +0.006 A 
ATOM     35  C   UNL     1       3.549 -13.648  -0.843  0.00  0.00    +0.004 A 
ATOM     36  C   UNL     1       3.644 -13.997   0.491  0.00  0.00    +0.045 A 
ATOM     37  C   UNL     1       2.706 -13.526   1.398  0.00  0.00    +0.120 A 
ATOM     38  C   UNL     1       1.678 -12.702   0.964  0.00  0.00    +0.051 A 
BRANCH  37  39
ATOM     39  O   UNL     1       2.797 -13.867   2.710  0.00  0.00    -0.495 OA
ATOM     40  C   UNL     1       3.885 -14.714   3.086  0.00  0.00    +0.277 C 
ENDBRANCH  37  39
ENDBRANCH  15  33
TORSDOF 6
