REMARK  Name = ZINC37816708
REMARK  3 active torsions:
REMARK  status: ('A' for Active; 'I' for Inactive)
REMARK    1  A    between atoms: C_4  and  C_7
REMARK    2  A    between atoms: C_13  and  C_15
REMARK    3  A    between atoms: C_18  and  O_22
REMARK                            x       y       z     vdW  Elec       q    Type
REMARK                         _______ _______ _______ _____ _____    ______ ____
ROOT
ATOM      1  C   UNL     1       2.870  -0.461  -2.526  0.00  0.00    +0.079 C 
ATOM      2  C   UNL     1       2.107   0.009  -3.783  0.00  0.00    +0.024 C 
ATOM      3  C   UNL     1       2.224  -1.209  -4.737  0.00  0.00    +0.021 C 
ATOM      4  C   UNL     1       2.149  -2.393  -3.740  0.00  0.00    +0.108 C 
ATOM      5  N   UNL     1       2.888  -1.931  -2.547  0.00  0.00    -0.300 N 
ATOM      6  C   UNL     1       3.481  -2.723  -1.631  0.00  0.00    +0.202 C 
ATOM      7  O   UNL     1       4.062  -2.228  -0.689  0.00  0.00    -0.277 OA
ENDROOT
BRANCH   6   8
ATOM      8  C   UNL     1       3.421  -4.221  -1.778  0.00  0.00    +0.019 C 
ATOM      9  C   UNL     1       2.059  -4.744  -1.274  0.00  0.00    +0.023 C 
ATOM     10  C   UNL     1       2.436  -6.070  -0.562  0.00  0.00    +0.097 C 
ATOM     11  C   UNL     1       3.810  -5.713   0.058  0.00  0.00    -0.050 C 
ATOM     12  N   UNL     1       4.467  -4.849  -0.951  0.00  0.00    +0.388 N 
ATOM     13  H   UNL     1       5.074  -5.405  -1.534  0.00  0.00    -0.085 HD
ATOM     14  H   UNL     1       5.007  -4.134  -0.486  0.00  0.00    -0.085 HD
BRANCH  10  15
ATOM     15  O   UNL     1       1.484  -6.394   0.453  0.00  0.00    -0.394 OA
ATOM     16  H   UNL     1       1.678  -7.215   0.926  0.00  0.00    +0.210 HD
ENDBRANCH  10  15
ENDBRANCH   6   8
BRANCH   1  20
ATOM     17  C   UNL     1      -0.019   1.526   0.010  0.00  0.00    +0.000 C 
ATOM     18  C   UNL     1       1.417   2.055  -0.000  0.00  0.00    +0.000 C 
ATOM     19  C   UNL     1       2.133   1.562  -1.259  0.00  0.00    +0.005 C 
ATOM     20  C   UNL     1       2.154   0.032  -1.268  0.00  0.00    +0.010 C 
ATOM     21  C   UNL     1       0.718  -0.497  -1.257  0.00  0.00    +0.005 C 
ATOM     22  C   UNL     1       0.002  -0.004   0.002  0.00  0.00    +0.000 C 
ENDBRANCH   1  20
TORSDOF 3
