REMARK  Name = ZINC17836624
REMARK  12 active torsions:
REMARK  status: ('A' for Active; 'I' for Inactive)
REMARK    1  A    between atoms: C_1  and  C_2
REMARK    2  A    between atoms: C_6  and  N_8
REMARK    3  A    between atoms: N_8  and  S_9
REMARK    4  A    between atoms: S_9  and  C_12
REMARK    5  A    between atoms: C_15  and  N_20
REMARK    6  A    between atoms: C_16  and  O_18
REMARK    7  A    between atoms: O_18  and  C_19
REMARK    8  A    between atoms: N_20  and  C_21
REMARK    9  A    between atoms: C_23  and  C_36
REMARK   10  A    between atoms: N_25  and  C_28
REMARK   11  A    between atoms: C_31  and  C_35
REMARK   12  A    between atoms: C_32  and  C_34
REMARK                            x       y       z     vdW  Elec       q    Type
REMARK                         _______ _______ _______ _____ _____    ______ ____
ROOT
ATOM      1  C   UNL     1       2.724  -3.437   2.528  0.00  0.00    +0.112 A 
ATOM      2  C   UNL     1       3.386  -3.344   1.318  0.00  0.00    +0.031 A 
ATOM      3  C   UNL     1       4.673  -2.843   1.266  0.00  0.00    +0.029 A 
ATOM      4  C   UNL     1       5.304  -2.431   2.432  0.00  0.00    +0.073 A 
ATOM      5  C   UNL     1       4.636  -2.525   3.651  0.00  0.00    +0.143 A 
ATOM      6  C   UNL     1       3.344  -3.023   3.693  0.00  0.00    +0.076 A 
ENDROOT
BRANCH   1   7
ATOM      7  S   UNL     1       1.083  -4.077   2.586  0.00  0.00    +0.072 S 
ATOM      8  O   UNL     1       0.883  -4.562   3.906  0.00  0.00    -0.150 OA
ATOM      9  O   UNL     1       0.929  -4.902   1.439  0.00  0.00    -0.150 OA
BRANCH   7  10
ATOM     10  N   UNL     1       0.051  -2.796   2.390  0.00  0.00    -0.216 N 
ATOM     11  H   UNL     1      -0.543  -2.538   3.112  0.00  0.00    +0.174 HD
BRANCH  10  17
ATOM     12  C   UNL     1      -0.018   1.503   0.010  0.00  0.00    +0.044 C 
ATOM     13  C   UNL     1       0.002  -0.004   0.002  0.00  0.00    -0.049 A 
ATOM     14  C   UNL     1       0.006  -0.688  -1.200  0.00  0.00    +0.003 A 
ATOM     15  C   UNL     1       0.024  -2.071  -1.212  0.00  0.00    +0.002 A 
ATOM     16  C   UNL     1       0.039  -2.773  -0.023  0.00  0.00    +0.024 A 
ATOM     17  C   UNL     1       0.036  -2.089   1.186  0.00  0.00    +0.048 A 
ATOM     18  C   UNL     1       0.023  -0.700   1.194  0.00  0.00    +0.027 A 
ENDBRANCH  10  17
ENDBRANCH   7  10
ENDBRANCH   1   7
BRANCH   5  19
ATOM     19  O   UNL     1       5.248  -2.123   4.797  0.00  0.00    -0.493 OA
ATOM     20  C   UNL     1       4.503  -2.248   6.009  0.00  0.00    +0.277 C 
ENDBRANCH   5  19
BRANCH   4  21
ATOM     21  N   UNL     1       6.607  -1.924   2.383  0.00  0.00    -0.317 N 
ATOM     22  H   UNL     1       7.046  -1.636   3.198  0.00  0.00    +0.152 HD
BRANCH  21  23
ATOM     23  C   UNL     1       7.252  -1.835   1.201  0.00  0.00    +0.087 C 
ATOM     24  C   UNL     1       8.542  -1.332   1.153  0.00  0.00    +0.075 C 
ATOM     25  C   UNL     1       9.390  -1.157  -0.035  0.00  0.00    +0.070 C 
ATOM     26  N   UNL     1      10.521  -0.658   0.361  0.00  0.00    -0.176 NA
ATOM     27  N   UNL     1      10.534  -0.467   1.742  0.00  0.00    -0.156 N 
ATOM     28  C   UNL     1       9.357  -0.853   2.275  0.00  0.00    +0.273 C 
ATOM     29  O   UNL     1       9.036  -0.814   3.451  0.00  0.00    -0.268 OA
ATOM     30  C   UNL     1       9.015  -1.497  -1.455  0.00  0.00    +0.068 C 
BRANCH  27  31
ATOM     31  C   UNL     1      11.611   0.055   2.470  0.00  0.00    +0.061 A 
ATOM     32  C   UNL     1      11.517   0.196   3.848  0.00  0.00    +0.026 A 
ATOM     33  C   UNL     1      12.581   0.711   4.563  0.00  0.00    +0.005 A 
ATOM     34  C   UNL     1      13.739   1.087   3.907  0.00  0.00    -0.047 A 
ATOM     35  C   UNL     1      13.836   0.948   2.534  0.00  0.00    -0.046 A 
ATOM     36  C   UNL     1      12.778   0.428   1.815  0.00  0.00    +0.029 A 
ATOM     37  C   UNL     1      15.100   1.359   1.824  0.00  0.00    +0.044 C 
ATOM     38  C   UNL     1      14.897   1.649   4.689  0.00  0.00    +0.044 C 
ENDBRANCH  27  31
ENDBRANCH  21  23
ENDBRANCH   4  21
TORSDOF 7
