REMARK  Name = ZINC44943478
REMARK  6 active torsions:
REMARK  status: ('A' for Active; 'I' for Inactive)
REMARK    1  A    between atoms: C_4  and  C_7
REMARK    2  A    between atoms: C_7  and  C_8
REMARK    3  A    between atoms: C_8  and  C_10
REMARK    4  A    between atoms: C_8  and  N_16
REMARK    5  A    between atoms: C_17  and  C_19
REMARK    6  A    between atoms: C_25  and  C_27
REMARK                            x       y       z     vdW  Elec       q    Type
REMARK                         _______ _______ _______ _____ _____    ______ ____
ROOT
ATOM      1  C   UNL     1       4.689   1.487   4.074  0.00  0.00    +0.091 C 
ATOM      2  C   UNL     1       6.147   1.879   3.824  0.00  0.00    +0.040 C 
ATOM      3  C   UNL     1       7.049   1.148   4.776  0.00  0.00    -0.030 C 
ATOM      4  C   UNL     1       6.643   0.570   5.860  0.00  0.00    -0.030 C 
ATOM      5  C   UNL     1       5.212   0.540   6.312  0.00  0.00    +0.040 C 
ATOM      6  C   UNL     1       4.399   1.612   5.575  0.00  0.00    +0.091 C 
ENDROOT
BRANCH   6   7
ATOM      7  C   UNL     1       2.928   1.404   5.825  0.00  0.00    +0.220 C 
ATOM      8  O   UNL     1       2.265   0.755   5.044  0.00  0.00    -0.275 OA
ATOM      9  N   UNL     1       2.348   1.940   6.918  0.00  0.00    -0.298 N 
ATOM     10  C   UNL     1       3.114   2.811   7.820  0.00  0.00    +0.126 C 
ATOM     11  C   UNL     1       2.373   4.146   7.959  0.00  0.00    +0.125 C 
ATOM     12  N   UNL     1       0.963   3.870   8.269  0.00  0.00    -0.314 N 
ATOM     13  C   UNL     1       0.197   2.999   7.367  0.00  0.00    +0.125 C 
ATOM     14  C   UNL     1       0.937   1.669   7.225  0.00  0.00    +0.126 C 
ATOM     15  C   UNL     1       0.365   4.423   9.395  0.00  0.00    +0.099 A 
ATOM     16  C   UNL     1       1.131   5.165  10.289  0.00  0.00    +0.042 A 
ATOM     17  C   UNL     1       0.523   5.709  11.406  0.00  0.00    +0.005 A 
ATOM     18  C   UNL     1      -0.836   5.492  11.592  0.00  0.00    +0.018 A 
ATOM     19  C   UNL     1      -1.535   4.747  10.665  0.00  0.00    +0.084 A 
ATOM     20  N   UNL     1      -0.930   4.244   9.606  0.00  0.00    -0.350 N 
ATOM     21  H   UNL     1      -1.446   3.727   8.967  0.00  0.00    +0.166 HD
ENDBRANCH   6   7
BRANCH   1  23
ATOM     22  N   UNL     1       3.580  -0.203   2.649  0.00  0.00    -0.308 N 
ATOM     23  C   UNL     1       4.464   0.065   3.631  0.00  0.00    +0.218 C 
ATOM     24  O   UNL     1       5.077  -0.839   4.157  0.00  0.00    -0.275 OA
ATOM     25  H   UNL     1       3.090   0.520   2.227  0.00  0.00    +0.149 HD
BRANCH  22  26
ATOM     26  C   UNL     1       3.361  -1.586   2.218  0.00  0.00    +0.107 C 
BRANCH  26  27
ATOM     27  C   UNL     1       4.397  -1.963   1.190  0.00  0.00    -0.027 A 
ATOM     28  C   UNL     1       4.780  -1.048   0.228  0.00  0.00    +0.005 A 
ATOM     29  C   UNL     1       5.730  -1.393  -0.715  0.00  0.00    +0.000 A 
ATOM     30  C   UNL     1       6.299  -2.653  -0.694  0.00  0.00    +0.000 A 
ATOM     31  C   UNL     1       5.917  -3.568   0.270  0.00  0.00    +0.000 A 
ATOM     32  C   UNL     1       4.969  -3.221   1.215  0.00  0.00    +0.005 A 
ENDBRANCH  26  27
BRANCH  26  33
ATOM     33  C   UNL     1       1.965  -1.714   1.605  0.00  0.00    +0.062 C 
BRANCH  33  37
ATOM     34  C   UNL     1      -0.984  -0.986   4.608  0.00  0.00    +0.000 A 
ATOM     35  C   UNL     1      -0.494   0.062   3.852  0.00  0.00    +0.000 A 
ATOM     36  C   UNL     1       0.460  -0.173   2.880  0.00  0.00    +0.004 A 
ATOM     37  C   UNL     1       0.925  -1.457   2.665  0.00  0.00    -0.045 A 
ATOM     38  C   UNL     1       0.436  -2.505   3.421  0.00  0.00    +0.004 A 
ATOM     39  C   UNL     1      -0.520  -2.270   4.392  0.00  0.00    +0.000 A 
ENDBRANCH  33  37
ENDBRANCH  26  33
ENDBRANCH  22  26
ENDBRANCH   1  23
TORSDOF 6
