REMARK  Name = ZINC67400522
REMARK  10 active torsions:
REMARK  status: ('A' for Active; 'I' for Inactive)
REMARK    1  A    between atoms: C_1  and  C_2
REMARK    2  A    between atoms: C_2  and  C_4
REMARK    3  A    between atoms: C_2  and  N_7
REMARK    4  A    between atoms: C_4  and  O_5
REMARK    5  A    between atoms: O_5  and  C_6
REMARK    6  A    between atoms: C_8  and  C_10
REMARK    7  A    between atoms: C_10  and  N_11
REMARK    8  A    between atoms: C_14  and  C_17
REMARK    9  A    between atoms: C_17  and  C_19
REMARK   10  A    between atoms: C_17  and  O_26
REMARK                            x       y       z     vdW  Elec       q    Type
REMARK                         _______ _______ _______ _____ _____    ______ ____
ROOT
ATOM      1  N   UNL     1      -3.979  -1.213  -2.509  0.00  0.00    +0.385 N 
ATOM      2  C   UNL     1      -3.203  -2.187  -3.286  0.00  0.00    -0.078 C 
ATOM      3  C   UNL     1      -3.681  -2.183  -4.739  0.00  0.00    -0.012 C 
ATOM      4  C   UNL     1      -5.165  -2.559  -4.784  0.00  0.00    +0.019 C 
ATOM      5  C   UNL     1      -5.955  -1.581  -3.910  0.00  0.00    -0.012 C 
ATOM      6  C   UNL     1      -5.393  -1.607  -2.487  0.00  0.00    -0.078 C 
ATOM      7  H   UNL     1      -3.891  -0.301  -2.933  0.00  0.00    -0.081 HD
ENDROOT
BRANCH   1   8
ATOM      8  C   UNL     1      -3.465  -1.164  -1.134  0.00  0.00    +0.019 C 
BRANCH   8  10
ATOM      9  N   UNL     1      -1.372  -0.511   0.012  0.00  0.00    -0.312 N 
ATOM     10  C   UNL     1      -2.051  -0.643  -1.145  0.00  0.00    +0.197 C 
ATOM     11  O   UNL     1      -1.524  -0.341  -2.194  0.00  0.00    -0.278 OA
ATOM     12  H   UNL     1      -1.794  -0.752   0.852  0.00  0.00    +0.149 HD
BRANCH   9  14
ATOM     13  C   UNL     1      -0.019   1.526   0.010  0.00  0.00    +0.030 C 
ATOM     14  C   UNL     1       0.002  -0.004   0.002  0.00  0.00    +0.095 C 
BRANCH  14  15
ATOM     15  C   UNL     1       0.742  -0.511   1.242  0.00  0.00    +0.181 C 
BRANCH  15  16
ATOM     16  O   UNL     1       0.143   0.044   2.414  0.00  0.00    -0.381 OA
ATOM     17  C   UNL     1       0.763  -0.368   3.634  0.00  0.00    +0.194 C 
ENDBRANCH  15  16
ENDBRANCH  14  15
ENDBRANCH   9  14
ENDBRANCH   8  10
ENDBRANCH   1   8
BRANCH   4  18
ATOM     18  C   UNL     1      -5.670  -2.480  -6.226  0.00  0.00    +0.147 C 
BRANCH  18  19
ATOM     19  C   UNL     1      -7.130  -2.850  -6.268  0.00  0.00    -0.019 A 
ATOM     20  C   UNL     1      -7.507  -4.180  -6.239  0.00  0.00    +0.007 A 
ATOM     21  C   UNL     1      -8.846  -4.520  -6.278  0.00  0.00    +0.020 A 
ATOM     22  C   UNL     1      -9.809  -3.529  -6.345  0.00  0.00    +0.041 A 
ATOM     23  C   UNL     1      -9.432  -2.198  -6.373  0.00  0.00    +0.020 A 
ATOM     24  C   UNL     1      -8.092  -1.859  -6.329  0.00  0.00    +0.007 A 
ATOM     25 CL   UNL     1     -11.492  -3.955  -6.394  0.00  0.00    -0.084 Cl
ENDBRANCH  18  19
BRANCH  18  26
ATOM     26  O   UNL     1      -4.925  -3.387  -7.042  0.00  0.00    -0.387 OA
ATOM     27  H   UNL     1      -4.993  -4.311  -6.766  0.00  0.00    +0.210 HD
ENDBRANCH  18  26
ENDBRANCH   4  18
TORSDOF 8
