REMARK  Name = ZINC37943654
REMARK  10 active torsions:
REMARK  status: ('A' for Active; 'I' for Inactive)
REMARK    1  A    between atoms: C_1  and  C_2
REMARK    2  A    between atoms: C_2  and  N_3
REMARK    3  A    between atoms: N_3  and  C_4
REMARK    4  A    between atoms: N_3  and  C_6
REMARK    5  A    between atoms: C_4  and  C_5
REMARK    6  A    between atoms: C_6  and  C_7
REMARK    7  A    between atoms: C_7  and  N_8
REMARK    8  A    between atoms: N_8  and  C_9
REMARK    9  A    between atoms: C_9  and  C_11
REMARK   10  A    between atoms: C_9  and  C_18
REMARK                            x       y       z     vdW  Elec       q    Type
REMARK                         _______ _______ _______ _____ _____    ______ ____
ROOT
ATOM      1  C   UNL     1       2.137  -4.539  -3.804  0.00  0.00    +0.171 C 
ENDROOT
BRANCH   1   2
ATOM      2  C   UNL     1       2.490  -5.982  -3.549  0.00  0.00    -0.022 A 
ATOM      3  C   UNL     1       1.556  -6.834  -2.991  0.00  0.00    +0.007 A 
ATOM      4  C   UNL     1       1.880  -8.157  -2.757  0.00  0.00    +0.015 A 
ATOM      5  C   UNL     1       3.139  -8.629  -3.082  0.00  0.00    +0.018 A 
ATOM      6  C   UNL     1       4.073  -7.776  -3.641  0.00  0.00    +0.015 A 
ATOM      7  C   UNL     1       3.747  -6.454  -3.879  0.00  0.00    +0.007 A 
ATOM      8 BR   UNL     1       3.582 -10.439  -2.762  0.00  0.00    -0.050 Br
ENDBRANCH   1   2
BRANCH   1   9
ATOM      9  C   UNL     1       1.331  -4.436  -5.074  0.00  0.00    +0.232 C 
ATOM     10  O   UNL     1       0.209  -3.978  -5.044  0.00  0.00    -0.274 OA
ATOM     11  N   UNL     1       1.858  -4.854  -6.242  0.00  0.00    -0.328 N 
ATOM     12  H   UNL     1       2.756  -5.221  -6.266  0.00  0.00    +0.145 HD
ATOM     13  H   UNL     1       1.339  -4.788  -7.059  0.00  0.00    +0.145 HD
ENDBRANCH   1   9
BRANCH   1  14
ATOM     14  N   UNL     1       1.346  -4.022  -2.679  0.00  0.00    -0.304 NA
ATOM     15  H   UNL     1       1.607  -4.475  -1.816  0.00  0.00    +0.123 HD
BRANCH  14  16
ATOM     16  C   UNL     1       1.478  -2.563  -2.570  0.00  0.00    +0.063 C 
BRANCH  16  17
ATOM     17  C   UNL     1       0.642  -2.063  -1.390  0.00  0.00    -0.064 C 
BRANCH  17  18
ATOM     18  N   UNL     1       0.868  -0.623  -1.205  0.00  0.00    +0.380 N 
ATOM     19  H   UNL     1       1.857  -0.449  -1.103  0.00  0.00    -0.082 HD
BRANCH  18  21
ATOM     20  C   UNL     1       0.707   1.590  -2.240  0.00  0.00    -0.017 C 
ATOM     21  C   UNL     1       0.360   0.106  -2.374  0.00  0.00    -0.082 C 
ENDBRANCH  18  21
BRANCH  18  22
ATOM     22  C   UNL     1       0.163  -0.168   0.001  0.00  0.00    -0.082 C 
ATOM     23  C   UNL     1       0.798  -0.810   1.236  0.00  0.00    -0.017 C 
ENDBRANCH  18  22
ENDBRANCH  17  18
ENDBRANCH  16  17
ENDBRANCH  14  16
ENDBRANCH   1  14
TORSDOF 8
