REMARK  Name = ZINC28964138
REMARK  10 active torsions:
REMARK  status: ('A' for Active; 'I' for Inactive)
REMARK    1  A    between atoms: C_1  and  C_2
REMARK    2  A    between atoms: C_2  and  O_3
REMARK    3  A    between atoms: O_3  and  C_4
REMARK    4  A    between atoms: C_4  and  C_6
REMARK    5  A    between atoms: C_7  and  C_30
REMARK    6  A    between atoms: C_9  and  N_11
REMARK    7  A    between atoms: C_12  and  C_14
REMARK    8  A    between atoms: C_14  and  N_15
REMARK    9  A    between atoms: N_18  and  S_21
REMARK   10  A    between atoms: S_21  and  C_24
REMARK                            x       y       z     vdW  Elec       q    Type
REMARK                         _______ _______ _______ _____ _____    ______ ____
ROOT
ATOM      1  C   UNL     1       3.712  -0.352  -5.744  0.00  0.00    +0.019 C 
ENDROOT
BRANCH   1   2
ATOM      2  N   UNL     1       4.300  -0.543  -4.412  0.00  0.00    +0.387 N 
ATOM      3  C   UNL     1       3.405  -1.325  -3.548  0.00  0.00    -0.061 C 
ATOM      4  C   UNL     1       3.966  -1.348  -2.123  0.00  0.00    +0.091 C 
ATOM      5  N   UNL     1       5.355  -1.827  -2.175  0.00  0.00    -0.180 NA
ATOM      6  C   UNL     1       6.281  -1.177  -3.115  0.00  0.00    +0.091 C 
ATOM      7  C   UNL     1       5.627  -1.165  -4.506  0.00  0.00    -0.061 C 
ATOM      8  H   UNL     1       4.426   0.448  -3.951  0.00  0.00    -0.081 HD
BRANCH   5   9
ATOM      9  S   UNL     1       5.866  -3.063  -1.198  0.00  0.00    +0.067 S 
ATOM     10  O   UNL     1       4.990  -3.083  -0.078  0.00  0.00    -0.152 OA
ATOM     11  O   UNL     1       7.273  -2.918  -1.062  0.00  0.00    -0.152 OA
BRANCH   9  12
ATOM     12  C   UNL     1       5.596  -4.567  -2.075  0.00  0.00    +0.144 A 
ATOM     13  C   UNL     1       6.430  -5.226  -2.915  0.00  0.00    +0.038 A 
ATOM     14  C   UNL     1       6.002  -6.404  -3.499  0.00  0.00    +0.030 A 
ATOM     15  C   UNL     1       4.758  -6.864  -3.213  0.00  0.00    +0.080 A 
ATOM     16  S   UNL     1       4.153  -5.617  -2.088  0.00  0.00    -0.057 S 
ATOM     17 CL   UNL     1       3.961  -8.292  -3.795  0.00  0.00    -0.076 Cl
ENDBRANCH   9  12
ENDBRANCH   5   9
ENDBRANCH   1   2
BRANCH   1  19
ATOM     18  N   UNL     1       3.173  -1.747  -7.715  0.00  0.00    -0.282 N 
ATOM     19  C   UNL     1       3.584  -1.687  -6.433  0.00  0.00    +0.201 C 
ATOM     20  O   UNL     1       3.851  -2.707  -5.833  0.00  0.00    -0.278 OA
ATOM     21  H   UNL     1       2.931  -0.822  -8.259  0.00  0.00    +0.155 HD
BRANCH  18  25
ATOM     22  C   UNL     1       2.977  -5.521  -9.154  0.00  0.00    +0.101 A 
ATOM     23  C   UNL     1       2.611  -4.540 -10.067  0.00  0.00    -0.028 A 
ATOM     24  C   UNL     1       2.655  -3.240  -9.643  0.00  0.00    +0.035 A 
ATOM     25  C   UNL     1       3.056  -2.977  -8.349  0.00  0.00    +0.073 A 
ATOM     26  S   UNL     1       3.384  -4.555  -7.710  0.00  0.00    -0.067 S 
ATOM     27  C   UNL     1       2.182  -4.893 -11.468  0.00  0.00    +0.045 C 
BRANCH  22  28
ATOM     28  C   UNL     1       3.021  -6.926  -9.327  0.00  0.00    +0.346 C 
ATOM     29  O   UNL     1       2.709  -7.418 -10.396  0.00  0.00    -0.244 OA
BRANCH  28  30
ATOM     30  O   UNL     1       3.408  -7.719  -8.306  0.00  0.00    -0.461 OA
BRANCH  30  32
ATOM     31  C   UNL     1       3.890  -9.857  -7.288  0.00  0.00    +0.048 C 
ATOM     32  C   UNL     1       3.429  -9.127  -8.551  0.00  0.00    +0.229 C 
ENDBRANCH  30  32
ENDBRANCH  28  30
ENDBRANCH  22  28
ENDBRANCH  18  25
ENDBRANCH   1  19
TORSDOF 8
