REMARK  Name = ZINC10146901
REMARK  8 active torsions:
REMARK  status: ('A' for Active; 'I' for Inactive)
REMARK    1  A    between atoms: C_1  and  C_2
REMARK    2  A    between atoms: C_8  and  C_34
REMARK    3  A    between atoms: C_12  and  C_13
REMARK    4  A    between atoms: C_13  and  O_15
REMARK    5  A    between atoms: O_15  and  C_16
REMARK    6  A    between atoms: C_16  and  C_17
REMARK    7  A    between atoms: N_19  and  C_20
REMARK    8  A    between atoms: N_19  and  C_28
REMARK                            x       y       z     vdW  Elec       q    Type
REMARK                         _______ _______ _______ _____ _____    ______ ____
ROOT
ATOM      1  C   UNL     1       0.366  -2.892   5.463  0.00  0.00    +0.328 C 
ENDROOT
BRANCH   1   2
ATOM      2  C   UNL     1       0.136  -1.478   5.930  0.00  0.00    +0.254 C 
ATOM      3  O   UNL     1       0.084  -0.574   5.123  0.00  0.00    -0.272 OA
ATOM      4  N   UNL     1      -0.011  -1.218   7.244  0.00  0.00    -0.291 N 
BRANCH   4   5
ATOM      5  C   UNL     1      -0.350   0.136   7.690  0.00  0.00    +0.099 C 
ATOM      6  C   UNL     1      -1.654   0.594   7.016  0.00  0.00    +0.047 C 
ATOM      7  C   UNL     1      -1.849   2.115   7.222  0.00  0.00    +0.168 C 
ATOM      8  S   UNL     1      -0.121   2.727   7.374  0.00  0.00    -0.029 S 
ATOM      9  O   UNL     1       0.197   3.505   6.229  0.00  0.00    -0.174 OA
ATOM     10  O   UNL     1       0.060   3.283   8.669  0.00  0.00    -0.174 OA
ATOM     11  C   UNL     1       0.780   1.123   7.277  0.00  0.00    +0.188 C 
ENDBRANCH   4   5
BRANCH   4  12
ATOM     12  C   UNL     1       0.167  -2.289   8.227  0.00  0.00    +0.077 C 
ATOM     13  C   UNL     1       1.430  -3.085   7.891  0.00  0.00    +0.022 C 
ATOM     14  C   UNL     1       1.616  -4.204   8.918  0.00  0.00    +0.002 C 
ATOM     15  C   UNL     1       0.402  -5.135   8.883  0.00  0.00    +0.000 C 
ATOM     16  C   UNL     1      -0.861  -4.339   9.220  0.00  0.00    +0.002 C 
ATOM     17  C   UNL     1      -1.047  -3.220   8.193  0.00  0.00    +0.022 C 
ENDBRANCH   4  12
ENDBRANCH   1   2
BRANCH   1  18
ATOM     18  O   UNL     1      -0.007  -3.006   4.088  0.00  0.00    -0.451 OA
BRANCH  18  19
ATOM     19  C   UNL     1       0.139  -4.217   3.512  0.00  0.00    +0.347 C 
ATOM     20  O   UNL     1       0.571  -5.151   4.161  0.00  0.00    -0.244 OA
BRANCH  19  32
ATOM     21  C   UNL     1       0.362  -6.823   1.966  0.00  0.00    +0.046 C 
ATOM     22  C   UNL     1      -0.149  -5.545   1.354  0.00  0.00    -0.015 A 
ATOM     23  C   UNL     1      -0.552  -5.521   0.018  0.00  0.00    +0.076 A 
ATOM     24  C   UNL     1      -0.566  -6.619  -0.976  0.00  0.00    +0.260 A 
ATOM     25  O   UNL     1      -0.190  -7.738  -0.675  0.00  0.00    -0.267 OA
ATOM     26  N   UNL     1      -1.006  -6.349  -2.220  0.00  0.00    -0.311 N 
ATOM     27  H   UNL     1      -1.022  -7.057  -2.883  0.00  0.00    +0.170 HD
ATOM     28  C   UNL     1      -1.427  -5.107  -2.566  0.00  0.00    +0.108 A 
ATOM     29  N   UNL     1      -1.429  -4.117  -1.715  0.00  0.00    -0.227 NA
ATOM     30  C   UNL     1      -1.016  -4.275  -0.464  0.00  0.00    +0.116 A 
ATOM     31  S   UNL     1      -0.868  -3.211   0.950  0.00  0.00    -0.062 S 
ATOM     32  C   UNL     1      -0.223  -4.408   2.106  0.00  0.00    +0.102 A 
ATOM     33  C   UNL     1      -1.909  -4.863  -3.973  0.00  0.00    +0.086 C 
ENDBRANCH  19  32
ENDBRANCH  18  19
ENDBRANCH   1  18
TORSDOF 6
