REMARK  Name = ZINC43216385
REMARK  20 active torsions:
REMARK  status: ('A' for Active; 'I' for Inactive)
REMARK    1  A    between atoms: C_1  and  C_2
REMARK    2  A    between atoms: C_2  and  C_3
REMARK    3  A    between atoms: C_3  and  C_4
REMARK    4  A    between atoms: C_3  and  C_5
REMARK    5  A    between atoms: C_3  and  C_6
REMARK    6  A    between atoms: C_9  and  O_17
REMARK    7  A    between atoms: C_10  and  C_12
REMARK    8  A    between atoms: C_12  and  C_13
REMARK    9  A    between atoms: C_12  and  C_14
REMARK   10  A    between atoms: C_12  and  C_15
REMARK   11  A    between atoms: C_15  and  C_16
REMARK   12  A    between atoms: O_17  and  C_18
REMARK   13  A    between atoms: C_18  and  C_19
REMARK   14  A    between atoms: C_19  and  C_20
REMARK   15  A    between atoms: C_20  and  C_21
REMARK   16  A    between atoms: C_21  and  N_22
REMARK   17  A    between atoms: C_23  and  C_25
REMARK   18  A    between atoms: C_28  and  C_30
REMARK   19  A    between atoms: C_30  and  C_32
REMARK   20  A    between atoms: C_30  and  N_33
REMARK                            x       y       z     vdW  Elec       q    Type
REMARK                         _______ _______ _______ _____ _____    ______ ____
ROOT
ATOM      1  C   UNL     1       0.183  -6.794   0.108  0.00  0.00    +0.229 C 
ENDROOT
BRANCH   1   2
ATOM      2  O   UNL     1       0.817  -6.143   1.211  0.00  0.00    -0.492 OA
BRANCH   2   6
ATOM      3  C   UNL     1       0.762  -2.018   1.233  0.00  0.00    -0.041 A 
ATOM      4  C   UNL     1       0.168  -2.710   0.195  0.00  0.00    +0.008 A 
ATOM      5  C   UNL     1       0.185  -4.091   0.185  0.00  0.00    +0.046 A 
ATOM      6  C   UNL     1       0.800  -4.784   1.218  0.00  0.00    +0.124 A 
ATOM      7  C   UNL     1       1.396  -4.087   2.259  0.00  0.00    +0.000 A 
ATOM      8  C   UNL     1       1.381  -2.705   2.261  0.00  0.00    +0.012 A 
BRANCH   3   9
ATOM      9  C   UNL     1       0.742  -0.511   1.242  0.00  0.00    -0.010 C 
ATOM     10  C   UNL     1       2.178   0.019   1.231  0.00  0.00    +0.016 C 
ATOM     11  C   UNL     1       0.026  -0.018   2.500  0.00  0.00    +0.016 C 
BRANCH   9  13
ATOM     12  C   UNL     1      -0.019   1.526   0.010  0.00  0.00    +0.005 C 
ATOM     13  C   UNL     1       0.002  -0.004   0.002  0.00  0.00    +0.007 C 
ENDBRANCH   9  13
ENDBRANCH   3   9
BRANCH   7  14
ATOM     14  C   UNL     1       2.064  -4.835   3.383  0.00  0.00    -0.007 C 
ATOM     15  C   UNL     1       2.637  -3.837   4.391  0.00  0.00    +0.016 C 
ATOM     16  C   UNL     1       1.039  -5.732   4.079  0.00  0.00    +0.016 C 
BRANCH  14  17
ATOM     17  C   UNL     1       3.196  -5.697   2.819  0.00  0.00    +0.008 C 
ATOM     18  C   UNL     1       3.875  -6.457   3.960  0.00  0.00    +0.005 C 
ENDBRANCH  14  17
ENDBRANCH   7  14
ENDBRANCH   2   6
ENDBRANCH   1   2
BRANCH   1  19
ATOM     19  C   UNL     1       0.304  -8.310   0.274  0.00  0.00    +0.042 C 
BRANCH  19  20
ATOM     20  C   UNL     1      -0.374  -9.008  -0.907  0.00  0.00    +0.022 C 
BRANCH  20  21
ATOM     21  C   UNL     1      -0.254 -10.524  -0.742  0.00  0.00    +0.104 C 
BRANCH  21  22
ATOM     22  N   UNL     1      -0.903 -11.192  -1.872  0.00  0.00    -0.310 N 
ATOM     23  C   UNL     1      -0.921 -12.538  -1.940  0.00  0.00    +0.266 C 
ATOM     24  O   UNL     1      -0.398 -13.198  -1.063  0.00  0.00    -0.268 OA
ATOM     25  H   UNL     1      -1.321 -10.665  -2.572  0.00  0.00    +0.149 HD
BRANCH  23  26
ATOM     26  C   UNL     1      -1.575 -13.210  -3.078  0.00  0.00    +0.163 A 
ATOM     27  C   UNL     1      -1.676 -14.552  -3.275  0.00  0.00    +0.230 A 
ATOM     28  O   UNL     1      -2.344 -14.730  -4.426  0.00  0.00    -0.449 OA
ATOM     29  C   UNL     1      -2.647 -13.524  -4.925  0.00  0.00    +0.181 A 
ATOM     30  N   UNL     1      -2.197 -12.604  -4.125  0.00  0.00    -0.210 NA
BRANCH  29  31
ATOM     31  C   UNL     1      -3.396 -13.275  -6.209  0.00  0.00    +0.010 C 
ATOM     32  C   UNL     1      -2.472 -13.546  -7.399  0.00  0.00    -0.005 C 
BRANCH  31  33
ATOM     33  N   UNL     1      -4.559 -14.168  -6.279  0.00  0.00    +0.386 N 
ATOM     34  H   UNL     1      -5.168 -13.989  -5.494  0.00  0.00    -0.089 HD
ATOM     35  H   UNL     1      -5.061 -14.001  -7.138  0.00  0.00    -0.089 HD
ATOM     36  H   UNL     1      -4.249 -15.128  -6.252  0.00  0.00    -0.089 HD
ENDBRANCH  31  33
ENDBRANCH  29  31
ENDBRANCH  23  26
ENDBRANCH  21  22
ENDBRANCH  20  21
ENDBRANCH  19  20
ENDBRANCH   1  19
TORSDOF 13
