REMARK  Name = ZINC14020418
REMARK  12 active torsions:
REMARK  status: ('A' for Active; 'I' for Inactive)
REMARK    1  A    between atoms: C_1  and  C_2
REMARK    2  A    between atoms: C_2  and  O_3
REMARK    3  A    between atoms: O_3  and  C_4
REMARK    4  A    between atoms: C_9  and  C_10
REMARK    5  A    between atoms: N_12  and  C_13
REMARK    6  A    between atoms: C_13  and  N_15
REMARK    7  A    between atoms: N_15  and  C_16
REMARK    8  A    between atoms: C_19  and  S_22
REMARK    9  A    between atoms: S_22  and  N_25
REMARK   10  A    between atoms: N_25  and  C_26
REMARK   11  A    between atoms: C_27  and  C_33
REMARK   12  A    between atoms: C_31  and  C_32
REMARK                            x       y       z     vdW  Elec       q    Type
REMARK                         _______ _______ _______ _____ _____    ______ ____
ROOT
ATOM      1  C   UNL     1      -3.125   2.689  -0.663  0.00  0.00    +0.033 A 
ATOM      2  C   UNL     1      -2.615   1.398  -0.612  0.00  0.00    +0.025 A 
ATOM      3  C   UNL     1      -3.454   0.336  -0.342  0.00  0.00    +0.030 A 
ATOM      4  C   UNL     1      -4.804   0.554  -0.133  0.00  0.00    +0.109 A 
ATOM      5  C   UNL     1      -5.316   1.838  -0.189  0.00  0.00    +0.030 A 
ATOM      6  C   UNL     1      -4.480   2.905  -0.453  0.00  0.00    +0.025 A 
ENDROOT
BRANCH   4   7
ATOM      7  S   UNL     1      -5.873  -0.805   0.204  0.00  0.00    +0.072 S 
ATOM      8  O   UNL     1      -5.079  -1.799   0.838  0.00  0.00    -0.150 OA
ATOM      9  O   UNL     1      -7.040  -0.263   0.808  0.00  0.00    -0.150 OA
BRANCH   7  10
ATOM     10  N   UNL     1      -6.342  -1.433  -1.254  0.00  0.00    -0.216 N 
ATOM     11  H   UNL     1      -7.239  -1.271  -1.586  0.00  0.00    +0.174 HD
BRANCH  10  12
ATOM     12  C   UNL     1      -5.447  -2.196  -2.007  0.00  0.00    +0.054 A 
ATOM     13  C   UNL     1      -4.863  -1.659  -3.148  0.00  0.00    -0.028 A 
ATOM     14  C   UNL     1      -3.974  -2.414  -3.887  0.00  0.00    +0.005 A 
ATOM     15  C   UNL     1      -3.673  -3.707  -3.499  0.00  0.00    +0.001 A 
ATOM     16  C   UNL     1      -4.256  -4.246  -2.367  0.00  0.00    +0.005 A 
ATOM     17  C   UNL     1      -5.142  -3.494  -1.620  0.00  0.00    -0.028 A 
ATOM     18  C   UNL     1      -5.777  -4.082  -0.386  0.00  0.00    +0.046 C 
ATOM     19  C   UNL     1      -5.195  -0.253  -3.575  0.00  0.00    +0.046 C 
ENDBRANCH  10  12
ENDBRANCH   7  10
ENDBRANCH   4   7
BRANCH   1  20
ATOM     20  N   UNL     1      -2.276   3.768  -0.930  0.00  0.00    -0.297 N 
ATOM     21  H   UNL     1      -1.619   3.704  -1.641  0.00  0.00    +0.154 HD
BRANCH  20  22
ATOM     22  C   UNL     1      -2.371   4.897  -0.201  0.00  0.00    +0.141 C 
ATOM     23  S   UNL     1      -3.596   5.050   0.985  0.00  0.00    -0.018 S 
BRANCH  22  26
ATOM     24  C   UNL     1      -1.590   7.032   0.332  0.00  0.00    +0.253 C 
ATOM     25  O   UNL     1      -2.460   7.140   1.174  0.00  0.00    -0.270 OA
ATOM     26  N   UNL     1      -1.498   5.904  -0.401  0.00  0.00    -0.263 N 
ATOM     27  H   UNL     1      -0.804   5.818  -1.073  0.00  0.00    +0.157 HD
BRANCH  24  33
ATOM     28  C   UNL     1      -0.727   9.308   0.873  0.00  0.00    +0.133 A 
ATOM     29  C   UNL     1       0.178  10.337   0.659  0.00  0.00    +0.046 A 
ATOM     30  C   UNL     1       1.163  10.205  -0.299  0.00  0.00    +0.004 A 
ATOM     31  C   UNL     1       1.257   9.046  -1.053  0.00  0.00    +0.001 A 
ATOM     32  C   UNL     1       0.371   8.011  -0.850  0.00  0.00    +0.017 A 
ATOM     33  C   UNL     1      -0.635   8.133   0.113  0.00  0.00    +0.079 A 
BRANCH  28  34
ATOM     34  O   UNL     1      -1.695   9.436   1.814  0.00  0.00    -0.491 OA
BRANCH  34  36
ATOM     35  C   UNL     1      -2.877  10.621   3.558  0.00  0.00    +0.048 C 
ATOM     36  C   UNL     1      -1.726  10.661   2.550  0.00  0.00    +0.226 C 
ENDBRANCH  34  36
ENDBRANCH  28  34
ENDBRANCH  24  33
ENDBRANCH  22  26
ENDBRANCH  20  22
ENDBRANCH   1  20
TORSDOF 9
