REMARK  Name = ZINC64226893
REMARK  8 active torsions:
REMARK  status: ('A' for Active; 'I' for Inactive)
REMARK    1  A    between atoms: C_1  and  C_2
REMARK    2  A    between atoms: N_6  and  C_8
REMARK    3  A    between atoms: C_8  and  C_9
REMARK    4  A    between atoms: C_8  and  C_10
REMARK    5  A    between atoms: C_8  and  C_11
REMARK    6  A    between atoms: C_11  and  N_12
REMARK    7  A    between atoms: N_15  and  N_16
REMARK    8  A    between atoms: C_17  and  C_19
REMARK                            x       y       z     vdW  Elec       q    Type
REMARK                         _______ _______ _______ _____ _____    ______ ____
ROOT
ATOM      1  N   UNL     1       2.189  -4.461   1.137  0.00  0.00    -0.300 N 
ATOM      2  C   UNL     1       2.323  -5.782   0.909  0.00  0.00    +0.316 C 
ATOM      3  O   UNL     1       1.928  -6.584   1.734  0.00  0.00    -0.251 OA
ATOM      4  N   UNL     1       2.894  -6.215  -0.232  0.00  0.00    -0.218 N 
ATOM      5  H   UNL     1       2.503  -3.821   0.480  0.00  0.00    +0.150 HD
ATOM      6  H   UNL     1       2.990  -7.166  -0.397  0.00  0.00    +0.174 HD
ENDROOT
BRANCH   4   7
ATOM      7  N   UNL     1       3.348  -5.290  -1.182  0.00  0.00    -0.229 N 
ATOM      8  C   UNL     1       3.919  -5.723  -2.324  0.00  0.00    +0.263 C 
ATOM      9  O   UNL     1       4.040  -6.915  -2.530  0.00  0.00    -0.269 OA
ATOM     10  H   UNL     1       3.252  -4.339  -1.018  0.00  0.00    +0.173 HD
BRANCH   8  11
ATOM     11  C   UNL     1       4.397  -4.750  -3.323  0.00  0.00    +0.076 A 
ATOM     12  C   UNL     1       5.034  -5.044  -4.615  0.00  0.00    +0.054 A 
ATOM     13  C   UNL     1       5.295  -3.853  -5.176  0.00  0.00    +0.195 A 
ATOM     14  O   UNL     1       4.880  -2.878  -4.353  0.00  0.00    -0.470 OA
ATOM     15  C   UNL     1       4.336  -3.390  -3.244  0.00  0.00    +0.208 A 
ENDBRANCH   8  11
ENDBRANCH   4   7
BRANCH   1  16
ATOM     16  C   UNL     1       1.568  -3.991   2.378  0.00  0.00    +0.093 C 
BRANCH  16  17
ATOM     17  C   UNL     1       1.539  -2.461   2.387  0.00  0.00    -0.055 C 
ATOM     18  C   UNL     1       2.969  -1.923   2.296  0.00  0.00    -0.008 C 
ATOM     19  C   UNL     1       0.891  -1.970   3.683  0.00  0.00    -0.008 C 
BRANCH  17  25
ATOM     20  C   UNL     1      -0.019   1.526   0.010  0.00  0.00    +0.005 C 
ATOM     21  C   UNL     1       0.002  -0.004   0.002  0.00  0.00    -0.031 C 
ATOM     22  C   UNL     1      -1.434  -0.535   0.018  0.00  0.00    -0.001 C 
ATOM     23  C   UNL     1      -1.402  -2.064   0.089  0.00  0.00    -0.018 C 
ATOM     24  C   UNL     1      -0.610  -2.496   1.325  0.00  0.00    -0.078 C 
ATOM     25  N   UNL     1       0.761  -1.980   1.237  0.00  0.00    +0.384 N 
ATOM     26  C   UNL     1       0.742  -0.512   1.241  0.00  0.00    -0.075 C 
ATOM     27  H   UNL     1       1.189  -2.307   0.384  0.00  0.00    -0.081 HD
ENDBRANCH  17  25
ENDBRANCH  16  17
ENDBRANCH   1  16
TORSDOF 5
