REMARK  Name = ZINC01421130
REMARK  6 active torsions:
REMARK  status: ('A' for Active; 'I' for Inactive)
REMARK    1  A    between atoms: C_3  and  S_22
REMARK    2  A    between atoms: C_5  and  S_7
REMARK    3  A    between atoms: S_7  and  N_10
REMARK    4  A    between atoms: N_10  and  C_11
REMARK    5  A    between atoms: C_16  and  C_17
REMARK    6  A    between atoms: S_22  and  C_25
REMARK                            x       y       z     vdW  Elec       q    Type
REMARK                         _______ _______ _______ _____ _____    ______ ____
ROOT
ATOM      1  C   UNL     1       1.018   1.934  -0.273  0.00  0.00    +0.004 A 
ATOM      2  C   UNL     1       0.944   3.315  -0.277  0.00  0.00    +0.027 A 
ATOM      3  C   UNL     1      -0.285   3.942  -0.194  0.00  0.00    +0.095 A 
ATOM      4  C   UNL     1      -1.441   3.188  -0.107  0.00  0.00    +0.056 A 
ATOM      5  C   UNL     1      -1.368   1.808  -0.109  0.00  0.00    +0.110 A 
ATOM      6  C   UNL     1      -0.138   1.181  -0.186  0.00  0.00    +0.029 A 
ENDROOT
BRANCH   5   7
ATOM      7  S   UNL     1      -2.841   0.847  -0.005  0.00  0.00    +0.072 S 
ATOM      8  O   UNL     1      -3.895   1.667  -0.492  0.00  0.00    -0.150 OA
ATOM      9  O   UNL     1      -2.539  -0.421  -0.570  0.00  0.00    -0.150 OA
BRANCH   7  10
ATOM     10  N   UNL     1      -3.146   0.590   1.602  0.00  0.00    -0.215 N 
ATOM     11  H   UNL     1      -3.177  -0.315   1.951  0.00  0.00    +0.174 HD
BRANCH  10  12
ATOM     12  C   UNL     1      -3.359   1.672   2.452  0.00  0.00    +0.069 A 
ATOM     13  C   UNL     1      -4.027   2.796   1.993  0.00  0.00    +0.075 A 
ATOM     14  C   UNL     1      -4.240   3.873   2.838  0.00  0.00    +0.168 A 
ATOM     15  C   UNL     1      -3.782   3.833   4.157  0.00  0.00    +0.168 A 
ATOM     16  C   UNL     1      -3.115   2.719   4.625  0.00  0.00    +0.070 A 
ATOM     17  C   UNL     1      -2.902   1.625   3.779  0.00  0.00    +0.078 A 
ATOM     18  O   UNL     1      -4.117   5.007   4.770  0.00  0.00    -0.453 OA
ATOM     19  C   UNL     1      -4.418   5.925   3.703  0.00  0.00    +0.466 C 
ATOM     20  O   UNL     1      -4.859   5.071   2.631  0.00  0.00    -0.453 OA
BRANCH  17  21
ATOM     21  C   UNL     1      -2.215   0.465   4.263  0.00  0.00    +0.101 C 
ATOM     22  N   UNL     1      -1.671  -0.455   4.647  0.00  0.00    -0.191 NA
ENDBRANCH  17  21
ENDBRANCH  10  12
ENDBRANCH   7  10
ENDBRANCH   5   7
BRANCH   3  23
ATOM     23  S   UNL     1      -0.379   5.701  -0.198  0.00  0.00    +0.025 S 
ATOM     24  O   UNL     1      -1.602   6.044   0.439  0.00  0.00    -0.164 OA
ATOM     25  O   UNL     1       0.879   6.176   0.263  0.00  0.00    -0.164 OA
BRANCH  23  26
ATOM     26  C   UNL     1      -0.526   6.211  -1.878  0.00  0.00    +0.094 A 
ATOM     27  C   UNL     1       0.609   6.480  -2.620  0.00  0.00    +0.028 A 
ATOM     28  C   UNL     1       0.494   6.876  -3.939  0.00  0.00    +0.017 A 
ATOM     29  C   UNL     1      -0.756   7.013  -4.514  0.00  0.00    +0.018 A 
ATOM     30  C   UNL     1      -1.892   6.749  -3.769  0.00  0.00    +0.017 A 
ATOM     31  C   UNL     1      -1.776   6.348  -2.452  0.00  0.00    +0.028 A 
ATOM     32 BR   UNL     1      -0.914   7.560  -6.317  0.00  0.00    -0.050 Br
ENDBRANCH  23  26
ENDBRANCH   3  23
TORSDOF 6
