REMARK  Name = ZINC13573165
REMARK  5 active torsions:
REMARK  status: ('A' for Active; 'I' for Inactive)
REMARK    1  A    between atoms: C_1  and  C_2
REMARK    2  A    between atoms: C_9  and  C_11
REMARK    3  A    between atoms: C_14  and  N_17
REMARK    4  A    between atoms: C_18  and  C_20
REMARK    5  A    between atoms: C_20  and  N_62
REMARK                            x       y       z     vdW  Elec       q    Type
REMARK                         _______ _______ _______ _____ _____    ______ ____
ROOT
ATOM      1  N   UNL     1       0.061   1.103  -0.102  0.00  0.00    -0.287 N 
ATOM      2  C   UNL     1       1.343   1.521  -0.112  0.00  0.00    +0.201 C 
ATOM      3  O   UNL     1       1.594   2.708  -0.103  0.00  0.00    -0.278 OA
ATOM      4  H   UNL     1      -0.141   0.159  -0.186  0.00  0.00    +0.155 HD
ENDROOT
BRANCH   1   8
ATOM      5  C   UNL     1      -3.030   3.873   0.278  0.00  0.00    +0.007 A 
ATOM      6  C   UNL     1      -3.215   2.719  -0.486  0.00  0.00    +0.012 A 
ATOM      7  C   UNL     1      -2.191   1.805  -0.610  0.00  0.00    +0.024 A 
ATOM      8  C   UNL     1      -0.975   2.032   0.025  0.00  0.00    +0.033 A 
ATOM      9  C   UNL     1      -0.789   3.177   0.792  0.00  0.00    +0.024 A 
ATOM     10  C   UNL     1      -1.807   4.097   0.914  0.00  0.00    +0.012 A 
BRANCH   5  19
ATOM     11  C   UNL     1      -8.813   9.137   1.039  0.00  0.00    +0.044 C 
ATOM     12  C   UNL     1      -7.908   7.976   0.720  0.00  0.00    -0.049 A 
ATOM     13  C   UNL     1      -8.358   6.937  -0.085  0.00  0.00    +0.005 A 
ATOM     14  C   UNL     1      -7.565   5.876  -0.391  0.00  0.00    +0.029 A 
ATOM     15  C   UNL     1      -6.242   5.793   0.104  0.00  0.00    +0.079 A 
ATOM     16  C   UNL     1      -5.812   6.866   0.920  0.00  0.00    +0.040 A 
ATOM     17  C   UNL     1      -6.622   7.933   1.224  0.00  0.00    +0.020 A 
ATOM     18  S   UNL     1      -4.148   6.393   1.322  0.00  0.00    -0.067 S 
ATOM     19  C   UNL     1      -4.126   4.854   0.413  0.00  0.00    +0.109 A 
ATOM     20  N   UNL     1      -5.333   4.821  -0.109  0.00  0.00    -0.239 NA
ENDBRANCH   5  19
ENDBRANCH   1   8
BRANCH   2  21
ATOM     21  C   UNL     1       2.463   0.514  -0.136  0.00  0.00    +0.019 C 
BRANCH  21  36
ATOM     22  C   UNL     1       3.842   1.858  -1.607  0.00  0.00    -0.073 C 
ATOM     23  C   UNL     1       5.001   2.855  -1.575  0.00  0.00    +0.017 C 
ATOM     24  C   UNL     1       6.242   2.185  -1.041  0.00  0.00    -0.044 A 
ATOM     25  C   UNL     1       7.468   2.797  -1.263  0.00  0.00    +0.053 A 
ATOM     26  C   UNL     1       8.629   2.216  -0.789  0.00  0.00    +0.162 A 
ATOM     27  C   UNL     1       8.567   1.019  -0.088  0.00  0.00    +0.162 A 
ATOM     28  C   UNL     1       7.345   0.412   0.133  0.00  0.00    +0.051 A 
ATOM     29  C   UNL     1       6.179   0.996  -0.347  0.00  0.00    -0.057 A 
ATOM     30  C   UNL     1       4.872   0.293  -0.090  0.00  0.00    -0.042 C 
ATOM     31  O   UNL     1       9.716   0.450   0.378  0.00  0.00    -0.488 OA
ATOM     32  C   UNL     1      10.380   1.154   1.429  0.00  0.00    +0.232 C 
ATOM     33  C   UNL     1      11.279   2.243   0.866  0.00  0.00    +0.082 C 
ATOM     34  C   UNL     1      10.493   3.333   0.153  0.00  0.00    +0.232 C 
ATOM     35  O   UNL     1       9.838   2.810  -1.004  0.00  0.00    -0.488 OA
ATOM     36  N   UNL     1       3.751   1.231  -0.273  0.00  0.00    +0.388 N 
ATOM     37  H   UNL     1       3.805   1.962   0.446  0.00  0.00    -0.081 HD
ENDBRANCH  21  36
ENDBRANCH   2  21
TORSDOF 4
