REMARK  Name = ZINC48024789
REMARK  7 active torsions:
REMARK  status: ('A' for Active; 'I' for Inactive)
REMARK    1  A    between atoms: C_1  and  C_2
REMARK    2  A    between atoms: C_7  and  N_12
REMARK    3  A    between atoms: C_9  and  C_11
REMARK    4  A    between atoms: C_13  and  C_15
REMARK    5  A    between atoms: C_15  and  N_16
REMARK    6  A    between atoms: C_19  and  C_22
REMARK    7  A    between atoms: C_22  and  C_23
REMARK                            x       y       z     vdW  Elec       q    Type
REMARK                         _______ _______ _______ _____ _____    ______ ____
ROOT
ATOM      1  C   UNL     1       2.785  -4.239   3.627  0.00  0.00    +0.019 C 
ENDROOT
BRANCH   1   2
ATOM      2  N   UNL     1       3.330  -5.577   3.359  0.00  0.00    +0.385 N 
ATOM      3  C   UNL     1       2.225  -6.519   3.144  0.00  0.00    -0.078 C 
ATOM      4  C   UNL     1       2.786  -7.897   2.785  0.00  0.00    -0.015 C 
ATOM      5  C   UNL     1       3.669  -8.397   3.932  0.00  0.00    -0.006 C 
ATOM      6  C   UNL     1       4.775  -7.370   4.197  0.00  0.00    -0.015 C 
ATOM      7  C   UNL     1       4.139  -6.012   4.504  0.00  0.00    -0.078 C 
ATOM      8  H   UNL     1       3.907  -5.545   2.533  0.00  0.00    -0.081 HD
BRANCH   5   9
ATOM      9  C   UNL     1       4.298  -9.737   3.547  0.00  0.00    +0.099 C 
BRANCH   9  10
ATOM     10  C   UNL     1       5.067 -10.287   4.721  0.00  0.00    +0.211 C 
ATOM     11  O   UNL     1       5.108  -9.668   5.762  0.00  0.00    -0.276 OA
ATOM     12  N   UNL     1       5.709 -11.467   4.612  0.00  0.00    -0.329 N 
ATOM     13  H   UNL     1       5.676 -11.963   3.779  0.00  0.00    +0.145 HD
ATOM     14  H   UNL     1       6.204 -11.821   5.368  0.00  0.00    +0.145 HD
ENDBRANCH   9  10
ENDBRANCH   5   9
ENDBRANCH   1   2
BRANCH   1  16
ATOM     15  N   UNL     1       1.471  -2.526   2.420  0.00  0.00    -0.314 N 
ATOM     16  C   UNL     1       2.056  -3.740   2.406  0.00  0.00    +0.197 C 
ATOM     17  O   UNL     1       1.996  -4.431   1.411  0.00  0.00    -0.278 OA
ATOM     18  H   UNL     1       1.520  -1.974   3.216  0.00  0.00    +0.149 HD
BRANCH  15  24
ATOM     19  C   UNL     1      -0.019   1.526   0.010  0.00  0.00    +0.008 C 
ATOM     20  C   UNL     1       0.002  -0.004   0.002  0.00  0.00    -0.009 C 
ATOM     21  C   UNL     1      -1.433  -0.534   0.013  0.00  0.00    +0.003 C 
ATOM     22  C   UNL     1      -1.413  -2.063   0.004  0.00  0.00    +0.002 C 
ATOM     23  C   UNL     1      -0.673  -2.570   1.244  0.00  0.00    +0.022 C 
ATOM     24  C   UNL     1       0.763  -2.041   1.233  0.00  0.00    +0.076 C 
ATOM     25  C   UNL     1       0.742  -0.511   1.242  0.00  0.00    +0.009 C 
ATOM     26  C   UNL     1       0.026  -0.018   2.500  0.00  0.00    +0.009 C 
ENDBRANCH  15  24
ENDBRANCH   1  16
TORSDOF 5
