REMARK  Name = ZINC66224428
REMARK  9 active torsions:
REMARK  status: ('A' for Active; 'I' for Inactive)
REMARK    1  A    between atoms: C_2  and  C_3
REMARK    2  A    between atoms: C_3  and  N_4
REMARK    3  A    between atoms: N_4  and  C_5
REMARK    4  A    between atoms: C_5  and  C_6
REMARK    5  A    between atoms: N_8  and  C_9
REMARK    6  A    between atoms: C_13  and  N_15
REMARK    7  A    between atoms: C_16  and  C_18
REMARK    8  A    between atoms: C_18  and  C_19
REMARK    9  A    between atoms: C_19  and  C_20
REMARK                            x       y       z     vdW  Elec       q    Type
REMARK                         _______ _______ _______ _____ _____    ______ ____
ROOT
ATOM      1  C   UNL     1      -3.604  -5.125  -3.547  0.00  0.00    +0.035 A 
ATOM      2  C   UNL     1      -2.466  -5.207  -4.340  0.00  0.00    +0.023 A 
ATOM      3  C   UNL     1      -2.407  -6.122  -5.373  0.00  0.00    +0.004 A 
ATOM      4  C   UNL     1      -3.479  -6.957  -5.622  0.00  0.00    +0.023 A 
ATOM      5  C   UNL     1      -4.620  -6.881  -4.833  0.00  0.00    +0.035 A 
ATOM      6  C   UNL     1      -4.680  -5.967  -3.790  0.00  0.00    +0.046 A 
ENDROOT
BRANCH   1   9
ATOM      7  C   UNL     1      -4.308  -4.512  -1.358  0.00  0.00    +0.200 C 
ATOM      8  O   UNL     1      -4.909  -5.562  -1.270  0.00  0.00    -0.278 OA
ATOM      9  N   UNL     1      -3.663  -4.199  -2.500  0.00  0.00    -0.287 N 
ATOM     10  H   UNL     1      -3.240  -3.332  -2.595  0.00  0.00    +0.155 HD
BRANCH   7  11
ATOM     11  C   UNL     1      -4.284  -3.557  -0.193  0.00  0.00    +0.016 C 
BRANCH  11  12
ATOM     12  N   UNL     1      -5.054  -4.125   0.922  0.00  0.00    +0.387 N 
ATOM     13  H   UNL     1      -4.646  -5.005   1.199  0.00  0.00    -0.085 HD
ATOM     14  H   UNL     1      -6.008  -4.274   0.629  0.00  0.00    -0.085 HD
BRANCH  12  15
ATOM     15  C   UNL     1      -5.030  -3.194   2.058  0.00  0.00    -0.055 C 
BRANCH  15  17
ATOM     16  C   UNL     1      -5.264  -3.916   4.379  0.00  0.00    +0.002 C 
ATOM     17  C   UNL     1      -5.821  -3.777   3.201  0.00  0.00    -0.054 C 
ENDBRANCH  15  17
ENDBRANCH  12  15
ENDBRANCH  11  12
ENDBRANCH   7  11
ENDBRANCH   1   9
BRANCH   5  18
ATOM     18  N   UNL     1      -5.705  -7.727  -5.086  0.00  0.00    -0.285 N 
ATOM     19  C   UNL     1      -5.491  -8.987  -5.516  0.00  0.00    +0.218 C 
ATOM     20  O   UNL     1      -4.364  -9.360  -5.763  0.00  0.00    -0.275 OA
ATOM     21  H   UNL     1      -6.611  -7.408  -4.952  0.00  0.00    +0.155 HD
BRANCH  19  22
ATOM     22  C   UNL     1      -6.652  -9.932  -5.688  0.00  0.00    +0.101 C 
BRANCH  22  23
ATOM     23  C   UNL     1      -6.139 -11.286  -6.182  0.00  0.00    +0.044 C 
BRANCH  23  24
ATOM     24  C   UNL     1      -7.300 -12.230  -6.355  0.00  0.00    -0.047 A 
ATOM     25  C   UNL     1      -7.708 -13.024  -5.299  0.00  0.00    +0.003 A 
ATOM     26  C   UNL     1      -8.773 -13.891  -5.457  0.00  0.00    +0.000 A 
ATOM     27  C   UNL     1      -9.431 -13.963  -6.671  0.00  0.00    +0.000 A 
ATOM     28  C   UNL     1      -9.024 -13.169  -7.726  0.00  0.00    +0.000 A 
ATOM     29  C   UNL     1      -7.961 -12.299  -7.567  0.00  0.00    +0.003 A 
ENDBRANCH  23  24
ENDBRANCH  22  23
ENDBRANCH  19  22
ENDBRANCH   5  18
TORSDOF 9
