REMARK  Name = ZINC65420973
REMARK  11 active torsions:
REMARK  status: ('A' for Active; 'I' for Inactive)
REMARK    1  A    between atoms: C_1  and  C_2
REMARK    2  A    between atoms: C_3  and  C_13
REMARK    3  A    between atoms: C_4  and  C_12
REMARK    4  A    between atoms: C_13  and  C_14
REMARK    5  A    between atoms: C_14  and  C_15
REMARK    6  A    between atoms: N_17  and  C_18
REMARK    7  A    between atoms: C_18  and  C_19
REMARK    8  A    between atoms: C_19  and  C_20
REMARK    9  A    between atoms: C_19  and  C_21
REMARK   10  A    between atoms: C_19  and  N_22
REMARK   11  A    between atoms: C_26  and  C_28
REMARK                            x       y       z     vdW  Elec       q    Type
REMARK                         _______ _______ _______ _____ _____    ______ ____
ROOT
ATOM      1  C   UNL     1      -2.898   0.362   1.456  0.00  0.00    +0.100 C 
ENDROOT
BRANCH   1   2
ATOM      2  C   UNL     1      -4.217   1.092   1.466  0.00  0.00    +0.213 C 
ATOM      3  O   UNL     1      -4.797   1.312   0.424  0.00  0.00    -0.276 OA
ATOM      4  N   UNL     1      -4.751   1.501   2.634  0.00  0.00    -0.317 N 
ATOM      5  H   UNL     1      -4.287   1.325   3.468  0.00  0.00    +0.149 HD
BRANCH   4   6
ATOM      6  C   UNL     1      -6.033   2.211   2.645  0.00  0.00    +0.092 C 
BRANCH   6   7
ATOM      7  C   UNL     1      -6.411   2.559   4.086  0.00  0.00    -0.055 C 
ATOM      8  C   UNL     1      -7.749   3.301   4.097  0.00  0.00    -0.008 C 
ATOM      9  C   UNL     1      -6.533   1.274   4.906  0.00  0.00    -0.008 C 
BRANCH   7  10
ATOM     10  N   UNL     1      -5.371   3.417   4.671  0.00  0.00    +0.384 N 
ATOM     11  C   UNL     1      -5.249   4.646   3.877  0.00  0.00    -0.078 C 
ATOM     12  C   UNL     1      -4.112   5.506   4.434  0.00  0.00    -0.018 C 
ATOM     13  C   UNL     1      -4.418   5.865   5.891  0.00  0.00    -0.001 C 
ATOM     14  C   UNL     1      -4.617   4.576   6.694  0.00  0.00    -0.031 C 
ATOM     15  C   UNL     1      -5.735   3.751   6.053  0.00  0.00    -0.075 C 
ATOM     16  C   UNL     1      -5.000   4.925   8.133  0.00  0.00    +0.005 C 
ATOM     17  H   UNL     1      -4.489   2.926   4.665  0.00  0.00    -0.081 HD
ENDBRANCH   7  10
ENDBRANCH   6   7
ENDBRANCH   4   6
ENDBRANCH   1   2
BRANCH   1  18
ATOM     18  C   UNL     1      -2.520   0.013   0.015  0.00  0.00    +0.048 C 
BRANCH  18  21
ATOM     19  C   UNL     1      -0.018   1.503   0.010  0.00  0.00    +0.066 C 
ATOM     20  C   UNL     1       0.002  -0.004   0.002  0.00  0.00    +0.047 A 
ATOM     21  C   UNL     1      -1.202  -0.717   0.004  0.00  0.00    -0.005 A 
ATOM     22  C   UNL     1      -1.169  -2.075  -0.004  0.00  0.00    +0.048 A 
ATOM     23  N   UNL     1       0.035  -2.706  -0.013  0.00  0.00    -0.199 N 
ATOM     24  C   UNL     1       1.192  -1.980  -0.014  0.00  0.00    +0.255 A 
ATOM     25  N   UNL     1       1.151  -0.643  -0.012  0.00  0.00    -0.216 NA
ATOM     26  N   UNL     1       2.202  -2.844  -0.023  0.00  0.00    -0.176 NA
ATOM     27  C   UNL     1       1.728  -4.088  -0.027  0.00  0.00    +0.234 A 
ATOM     28  N   UNL     1       0.411  -4.055  -0.021  0.00  0.00    -0.128 NA
ATOM     29  N   UNL     1       2.504  -5.244  -0.036  0.00  0.00    -0.326 N 
ATOM     30  C   UNL     1      -2.449  -2.871  -0.001  0.00  0.00    +0.066 C 
ATOM     31  H   UNL     1       3.471  -5.179  -0.040  0.00  0.00    +0.145 HD
ATOM     32  H   UNL     1       2.076  -6.115  -0.039  0.00  0.00    +0.145 HD
ENDBRANCH  18  21
ENDBRANCH   1  18
TORSDOF 6
