REMARK  Name = ZINC39937766
REMARK  4 active torsions:
REMARK  status: ('A' for Active; 'I' for Inactive)
REMARK    1  A    between atoms: C_6  and  C_7
REMARK    2  A    between atoms: C_11  and  C_15
REMARK    3  A    between atoms: C_15  and  S_16
REMARK    4  A    between atoms: S_16  and  C_17
REMARK                            x       y       z     vdW  Elec       q    Type
REMARK                         _______ _______ _______ _____ _____    ______ ____
ROOT
ATOM      1  C   UNL     1      -1.251  -0.756   0.010  0.00  0.00    -0.015 C 
ATOM      2  C   UNL     1      -1.619  -1.548  -1.051  0.00  0.00    +0.075 C 
ATOM      3  C   UNL     1      -2.899  -2.265  -0.947  0.00  0.00    +0.112 C 
ATOM      4  N   UNL     1      -3.312  -3.039  -1.926  0.00  0.00    -0.227 NA
ATOM      5  C   UNL     1      -2.597  -3.197  -3.027  0.00  0.00    +0.134 C 
ATOM      6  N   UNL     1      -1.442  -2.607  -3.226  0.00  0.00    -0.160 NA
ATOM      7  C   UNL     1      -0.885  -1.790  -2.326  0.00  0.00    +0.272 C 
ATOM      8  O   UNL     1       0.191  -1.256  -2.543  0.00  0.00    -0.268 OA
ATOM      9  S   UNL     1      -3.554  -1.810   0.638  0.00  0.00    -0.100 S 
ATOM     10  C   UNL     1      -2.196  -0.701   1.189  0.00  0.00    +0.112 C 
ENDROOT
BRANCH   1  16
ATOM     11  C   UNL     1      -0.017   1.400   0.010  0.00  0.00    +0.011 A 
ATOM     12  C   UNL     1       1.163   2.098   0.002  0.00  0.00    +0.039 A 
ATOM     13  C   UNL     1       2.375   1.420  -0.013  0.00  0.00    +0.123 A 
ATOM     14  C   UNL     1       2.403   0.032  -0.021  0.00  0.00    +0.039 A 
ATOM     15  C   UNL     1       1.232  -0.682  -0.014  0.00  0.00    +0.011 A 
ATOM     16  C   UNL     1       0.002  -0.004   0.002  0.00  0.00    -0.020 A 
ATOM     17  F   UNL     1       3.534   2.115  -0.022  0.00  0.00    -0.205 F 
ENDBRANCH   1  16
BRANCH   5  18
ATOM     18  C   UNL     1      -3.134  -4.101  -4.106  0.00  0.00    +0.150 C 
BRANCH  18  19
ATOM     19  S   UNL     1      -1.969  -4.142  -5.496  0.00  0.00    -0.086 S 
BRANCH  19  20
ATOM     20  C   UNL     1      -2.730  -5.225  -6.659  0.00  0.00    +0.123 C 
ATOM     21  N   UNL     1      -2.519  -5.056  -7.964  0.00  0.00    -0.382 N 
ATOM     22  N   UNL     1      -3.516  -6.214  -6.233  0.00  0.00    -0.340 N 
ATOM     23  H   UNL     1      -1.947  -4.337  -8.274  0.00  0.00    +0.158 HD
ATOM     24  H   UNL     1      -3.670  -6.337  -5.283  0.00  0.00    +0.144 HD
ATOM     25  H   UNL     1      -3.935  -6.810  -6.873  0.00  0.00    +0.144 HD
ATOM     26  H   UNL     1      -2.939  -5.652  -8.604  0.00  0.00    +0.158 HD
ENDBRANCH  19  20
ENDBRANCH  18  19
ENDBRANCH   5  18
TORSDOF 4
