REMARK  Name = ZINC35531890
REMARK  11 active torsions:
REMARK  status: ('A' for Active; 'I' for Inactive)
REMARK    1  A    between atoms: C_1  and  C_2
REMARK    2  A    between atoms: C_5  and  O_32
REMARK    3  A    between atoms: C_6  and  N_8
REMARK    4  A    between atoms: C_9  and  C_11
REMARK    5  A    between atoms: C_14  and  C_31
REMARK    6  A    between atoms: C_15  and  C_16
REMARK    7  A    between atoms: C_15  and  C_17
REMARK    8  A    between atoms: N_19  and  O_20
REMARK    9  A    between atoms: O_20  and  C_21
REMARK   10  A    between atoms: C_21  and  C_23
REMARK   11  A    between atoms: O_32  and  C_33
REMARK                            x       y       z     vdW  Elec       q    Type
REMARK                         _______ _______ _______ _____ _____    ______ ____
ROOT
ATOM      1  C   UNL     1       0.279  -2.894   4.860  0.00  0.00    +0.058 C 
ATOM      2  C   UNL     1       1.544  -3.794   5.001  0.00  0.00    +0.018 C 
ATOM      3  C   UNL     1       1.677  -4.040   6.521  0.00  0.00    +0.014 C 
ATOM      4  C   UNL     1       0.484  -3.257   7.151  0.00  0.00    +0.015 C 
ATOM      5  C   UNL     1       0.388  -2.036   6.171  0.00  0.00    -0.010 C 
ATOM      6  C   UNL     1      -0.861  -1.184   6.406  0.00  0.00    +0.013 C 
ATOM      7  C   UNL     1       1.665  -1.193   6.202  0.00  0.00    +0.013 C 
ATOM      8  C   UNL     1      -0.761  -4.056   6.740  0.00  0.00    +0.066 C 
ATOM      9  N   UNL     1      -1.516  -4.760   7.497  0.00  0.00    -0.083 NA
ATOM     10  C   UNL     1      -0.920  -3.819   5.234  0.00  0.00    +0.071 C 
ATOM     11  C   UNL     1       0.618  -2.920   8.637  0.00  0.00    +0.018 C 
ENDROOT
BRANCH   1  13
ATOM     12  N   UNL     1       0.050  -2.795   2.399  0.00  0.00    -0.282 N 
ATOM     13  C   UNL     1       0.149  -2.130   3.568  0.00  0.00    +0.224 C 
ATOM     14  O   UNL     1       0.134  -0.917   3.579  0.00  0.00    -0.275 OA
ATOM     15  H   UNL     1      -0.018  -3.762   2.396  0.00  0.00    +0.155 HD
BRANCH  12  21
ATOM     16  C   UNL     1       1.263   1.227  -0.157  0.00  0.00    +0.044 C 
ATOM     17  C   UNL     1       0.627  -0.137  -0.079  0.00  0.00    -0.048 A 
ATOM     18  C   UNL     1       0.040  -0.689  -1.202  0.00  0.00    +0.007 A 
ATOM     19  C   UNL     1      -0.546  -1.940  -1.136  0.00  0.00    +0.048 A 
ATOM     20  C   UNL     1      -0.545  -2.643   0.058  0.00  0.00    +0.141 A 
ATOM     21  C   UNL     1       0.047  -2.088   1.189  0.00  0.00    +0.076 A 
ATOM     22  C   UNL     1       0.637  -0.835   1.114  0.00  0.00    +0.030 A 
BRANCH  20  23
ATOM     23  O   UNL     1      -1.121  -3.873   0.124  0.00  0.00    -0.493 OA
ATOM     24  C   UNL     1      -1.709  -4.380  -1.076  0.00  0.00    +0.277 C 
ENDBRANCH  20  23
ENDBRANCH  12  21
ENDBRANCH   1  13
BRANCH   9  25
ATOM     25  O   UNL     1      -1.234  -4.861   8.881  0.00  0.00    -0.312 OA
BRANCH  25  26
ATOM     26  C   UNL     1      -2.104  -5.631   9.562  0.00  0.00    +0.366 C 
ATOM     27  O   UNL     1      -3.029  -6.163   8.981  0.00  0.00    -0.243 OA
BRANCH  26  28
ATOM     28  C   UNL     1      -1.935  -5.827  11.016  0.00  0.00    +0.061 A 
ATOM     29  C   UNL     1      -0.877  -5.212  11.689  0.00  0.00    +0.016 A 
ATOM     30  C   UNL     1      -0.725  -5.399  13.046  0.00  0.00    +0.016 A 
ATOM     31  C   UNL     1      -1.618  -6.195  13.743  0.00  0.00    +0.018 A 
ATOM     32  C   UNL     1      -2.669  -6.808  13.082  0.00  0.00    +0.016 A 
ATOM     33  C   UNL     1      -2.836  -6.625  11.726  0.00  0.00    +0.016 A 
ATOM     34 BR   UNL     1      -1.401  -6.447  15.604  0.00  0.00    -0.050 Br
ENDBRANCH  26  28
ENDBRANCH  25  26
ENDBRANCH   9  25
TORSDOF 6
