REMARK  Name = ZINC20323535
REMARK  6 active torsions:
REMARK  status: ('A' for Active; 'I' for Inactive)
REMARK    1  A    between atoms: C_1  and  C_2
REMARK    2  A    between atoms: C_5  and  S_8
REMARK    3  A    between atoms: S_8  and  N_11
REMARK    4  A    between atoms: N_11  and  N_12
REMARK    5  A    between atoms: C_14  and  C_23
REMARK    6  A    between atoms: N_25  and  C_26
REMARK                            x       y       z     vdW  Elec       q    Type
REMARK                         _______ _______ _______ _____ _____    ______ ____
ROOT
ATOM      1  N   UNL     1       2.876   0.709  -0.967  0.00  0.00    -0.260 N 
ATOM      2  C   UNL     1       3.112   1.990  -0.961  0.00  0.00    +0.225 A 
ATOM      3  C   UNL     1       2.199   2.933  -0.273  0.00  0.00    +0.099 A 
ATOM      4  C   UNL     1       2.740   4.111   0.185  0.00  0.00    +0.030 A 
ATOM      5  C   UNL     1       4.171   4.338  -0.050  0.00  0.00    +0.018 A 
ATOM      6  C   UNL     1       4.848   5.369   0.610  0.00  0.00    +0.011 A 
ATOM      7  C   UNL     1       6.192   5.561   0.376  0.00  0.00    +0.001 A 
ATOM      8  C   UNL     1       6.874   4.739  -0.507  0.00  0.00    +0.004 A 
ATOM      9  C   UNL     1       6.218   3.717  -1.167  0.00  0.00    +0.047 A 
ATOM     10  C   UNL     1       4.866   3.508  -0.947  0.00  0.00    +0.137 A 
ATOM     11  O   UNL     1       4.207   2.512  -1.592  0.00  0.00    -0.437 OA
ATOM     12  H   UNL     1       1.920   0.325  -0.581  0.00  0.00    +0.189 HD
ENDROOT
BRANCH   3  13
ATOM     13  C   UNL     1       0.774   2.618  -0.082  0.00  0.00    +0.253 C 
ATOM     14  O   UNL     1      -0.008   3.499   0.222  0.00  0.00    -0.270 OA
ATOM     15  N   UNL     1       0.334   1.355  -0.248  0.00  0.00    -0.281 N 
ATOM     16  H   UNL     1       1.026   0.574  -0.597  0.00  0.00    +0.155 HD
BRANCH  15  17
ATOM     17  C   UNL     1      -1.001   1.038   0.021  0.00  0.00    +0.035 A 
ATOM     18  C   UNL     1      -1.327  -0.201   0.558  0.00  0.00    +0.023 A 
ATOM     19  C   UNL     1      -2.646  -0.511   0.823  0.00  0.00    +0.003 A 
ATOM     20  C   UNL     1      -3.643   0.409   0.554  0.00  0.00    +0.020 A 
ATOM     21  C   UNL     1      -3.321   1.644   0.019  0.00  0.00    +0.043 A 
ATOM     22  C   UNL     1      -2.002   1.963  -0.243  0.00  0.00    +0.043 A 
ATOM     23 CL   UNL     1      -4.575   2.797  -0.316  0.00  0.00    -0.083 Cl
ENDBRANCH  15  17
ENDBRANCH   3  13
BRANCH   1  24
ATOM     24  N   UNL     1       3.839  -0.179  -1.463  0.00  0.00    -0.157 N 
ATOM     25  H   UNL     1       4.675   0.162  -1.818  0.00  0.00    +0.194 HD
BRANCH  24  26
ATOM     26  S   UNL     1       3.550  -1.809  -1.444  0.00  0.00    +0.085 S 
ATOM     27  O   UNL     1       4.557  -2.409  -2.248  0.00  0.00    -0.149 OA
ATOM     28  O   UNL     1       3.344  -2.170  -0.086  0.00  0.00    -0.149 OA
BRANCH  26  33
ATOM     29  C   UNL     1      -1.694  -2.726  -4.284  0.00  0.00    +0.044 C 
ATOM     30  C   UNL     1      -0.385  -2.497  -3.575  0.00  0.00    -0.050 A 
ATOM     31  C   UNL     1       0.780  -2.349  -4.305  0.00  0.00    +0.005 A 
ATOM     32  C   UNL     1       1.982  -2.138  -3.654  0.00  0.00    +0.029 A 
ATOM     33  C   UNL     1       2.018  -2.076  -2.274  0.00  0.00    +0.110 A 
ATOM     34  C   UNL     1       0.855  -2.230  -1.544  0.00  0.00    +0.029 A 
ATOM     35  C   UNL     1      -0.348  -2.435  -2.194  0.00  0.00    +0.005 A 
ENDBRANCH  26  33
ENDBRANCH  24  26
ENDBRANCH   1  24
TORSDOF 5
