REMARK  Name = ZINC63778310
REMARK  7 active torsions:
REMARK  status: ('A' for Active; 'I' for Inactive)
REMARK    1  A    between atoms: C_1  and  C_2
REMARK    2  A    between atoms: N_4  and  C_5
REMARK    3  A    between atoms: C_5  and  C_7
REMARK    4  A    between atoms: C_5  and  C_17
REMARK    5  A    between atoms: C_7  and  C_8
REMARK    6  A    between atoms: N_19  and  C_20
REMARK    7  A    between atoms: C_24  and  C_26
REMARK                            x       y       z     vdW  Elec       q    Type
REMARK                         _______ _______ _______ _____ _____    ______ ____
ROOT
ATOM      1  C   UNL     1      -1.424  -2.737  -0.940  0.00  0.00    +0.238 C 
ATOM      2  O   UNL     1      -1.983  -1.959  -0.196  0.00  0.00    -0.273 OA
ATOM      3  N   UNL     1      -1.803  -4.030  -0.970  0.00  0.00    -0.284 N 
ATOM      4  H   UNL     1      -1.404  -4.638  -1.612  0.00  0.00    +0.155 HD
ENDROOT
BRANCH   3   5
ATOM      5  C   UNL     1      -2.774  -4.496  -0.076  0.00  0.00    +0.034 A 
ATOM      6  C   UNL     1      -2.681  -5.782   0.442  0.00  0.00    +0.023 A 
ATOM      7  C   UNL     1      -3.637  -6.247   1.325  0.00  0.00    +0.002 A 
ATOM      8  C   UNL     1      -4.690  -5.436   1.699  0.00  0.00    +0.012 A 
ATOM      9  C   UNL     1      -4.792  -4.144   1.184  0.00  0.00    +0.021 A 
ATOM     10  C   UNL     1      -3.825  -3.673   0.297  0.00  0.00    +0.035 A 
BRANCH   9  11
ATOM     11  C   UNL     1      -5.920  -3.273   1.583  0.00  0.00    +0.164 A 
ATOM     12  N   UNL     1      -5.979  -1.963   1.467  0.00  0.00    -0.129 NA
ATOM     13  N   UNL     1      -7.112  -1.538   1.907  0.00  0.00    -0.134 NA
ATOM     14  C   UNL     1      -7.833  -2.543   2.321  0.00  0.00    +0.134 A 
ATOM     15  N   UNL     1      -7.101  -3.674   2.135  0.00  0.00    -0.311 N 
ATOM     16  C   UNL     1      -7.503  -5.037   2.480  0.00  0.00    +0.125 C 
ATOM     17  C   UNL     1      -9.029  -5.149   2.414  0.00  0.00    +0.022 C 
ATOM     18  C   UNL     1      -9.630  -4.792   3.772  0.00  0.00    +0.002 C 
ATOM     19  C   UNL     1      -9.288  -3.353   4.149  0.00  0.00    +0.008 C 
ATOM     20  C   UNL     1      -9.227  -2.490   2.891  0.00  0.00    +0.076 C 
ENDBRANCH   9  11
ENDBRANCH   3   5
BRANCH   1  21
ATOM     21  C   UNL     1      -0.306  -2.259  -1.829  0.00  0.00    +0.163 C 
BRANCH  21  25
ATOM     22  C   UNL     1      -0.395   1.489  -1.053  0.00  0.00    +0.109 C 
ATOM     23  C   UNL     1      -0.308  -0.007  -0.896  0.00  0.00    +0.211 C 
ATOM     24  O   UNL     1      -0.163  -0.495   0.204  0.00  0.00    -0.276 OA
ATOM     25  N   UNL     1      -0.391  -0.804  -1.981  0.00  0.00    -0.304 N 
ATOM     26  H   UNL     1      -0.506  -0.414  -2.861  0.00  0.00    +0.149 HD
ENDBRANCH  21  25
BRANCH  21  27
ATOM     27  C   UNL     1       1.039  -2.628  -1.200  0.00  0.00    +0.065 C 
BRANCH  27  28
ATOM     28  C   UNL     1       2.154  -2.260  -2.146  0.00  0.00    -0.039 C 
ATOM     29  C   UNL     1       2.880  -1.119  -2.141  0.00  0.00    -0.001 A 
ATOM     30  C   UNL     1       2.851   0.075  -1.289  0.00  0.00    +0.010 A 
ATOM     31  C   UNL     1       3.723   1.079  -1.536  0.00  0.00    +0.001 A 
ATOM     32  C   UNL     1       4.651   1.008  -2.583  0.00  0.00    +0.002 A 
ATOM     33  C   UNL     1       4.739  -0.057  -3.409  0.00  0.00    +0.026 A 
ATOM     34  C   UNL     1       3.870  -1.170  -3.241  0.00  0.00    +0.043 A 
ATOM     35  N   UNL     1       3.760  -2.299  -3.899  0.00  0.00    -0.380 N 
ATOM     36  C   UNL     1       2.690  -3.095  -3.287  0.00  0.00    +0.144 C 
ATOM     37  H   UNL     1       4.299  -2.564  -4.661  0.00  0.00    +0.160 HD
ENDBRANCH  27  28
ENDBRANCH  21  27
ENDBRANCH   1  21
TORSDOF 6
