REMARK  Name = ZINC67416121
REMARK  9 active torsions:
REMARK  status: ('A' for Active; 'I' for Inactive)
REMARK    1  A    between atoms: C_1  and  C_2
REMARK    2  A    between atoms: C_2  and  C_4
REMARK    3  A    between atoms: C_2  and  N_13
REMARK    4  A    between atoms: N_9  and  C_10
REMARK    5  A    between atoms: C_10  and  C_11
REMARK    6  A    between atoms: C_10  and  C_12
REMARK    7  A    between atoms: C_17  and  C_20
REMARK    8  A    between atoms: C_20  and  N_21
REMARK    9  A    between atoms: C_22  and  C_24
REMARK                            x       y       z     vdW  Elec       q    Type
REMARK                         _______ _______ _______ _____ _____    ______ ____
ROOT
ATOM      1  C   UNL     1      -0.692   1.314  -0.348  0.00  0.00    -0.004 C 
ATOM      2  C   UNL     1       0.002  -0.004   0.002  0.00  0.00    +0.017 C 
ENDROOT
BRANCH   2   3
ATOM      3  C   UNL     1       0.605  -0.601  -1.244  0.00  0.00    +0.207 C 
ATOM      4  O   UNL     1      -0.028  -1.398  -1.901  0.00  0.00    -0.277 OA
ATOM      5  N   UNL     1       1.848  -0.247  -1.626  0.00  0.00    -0.242 N 
ATOM      6  C   UNL     1       2.388  -0.781  -2.740  0.00  0.00    +0.306 C 
ATOM      7  O   UNL     1       1.753  -1.581  -3.400  0.00  0.00    -0.252 OA
ATOM      8  N   UNL     1       3.631  -0.427  -3.123  0.00  0.00    -0.297 N 
ATOM      9  H   UNL     1       2.355   0.391  -1.100  0.00  0.00    +0.159 HD
ATOM     10  H   UNL     1       4.137   0.211  -2.597  0.00  0.00    +0.151 HD
BRANCH   8  11
ATOM     11  C   UNL     1       4.217  -1.007  -4.334  0.00  0.00    +0.068 C 
ATOM     12  C   UNL     1       5.279  -0.058  -4.891  0.00  0.00    +0.027 C 
ATOM     13  C   UNL     1       4.862  -2.352  -3.994  0.00  0.00    +0.027 C 
ENDBRANCH   8  11
ENDBRANCH   2   3
BRANCH   2  14
ATOM     14  N   UNL     1      -0.980  -0.939   0.567  0.00  0.00    +0.387 N 
ATOM     15  C   UNL     1      -1.598  -0.339   1.755  0.00  0.00    -0.078 C 
ATOM     16  C   UNL     1      -2.679  -1.274   2.301  0.00  0.00    -0.018 C 
ATOM     17  C   UNL     1      -2.043  -2.616   2.676  0.00  0.00    +0.001 C 
ATOM     18  C   UNL     1      -1.338  -3.198   1.448  0.00  0.00    -0.011 C 
ATOM     19  C   UNL     1      -0.307  -2.191   0.934  0.00  0.00    -0.073 C 
ATOM     20  H   UNL     1      -1.694  -1.131  -0.120  0.00  0.00    -0.081 HD
BRANCH  18  21
ATOM     21  C   UNL     1      -0.634  -4.501   1.831  0.00  0.00    +0.105 C 
BRANCH  21  22
ATOM     22  N   UNL     1      -1.634  -5.501   2.214  0.00  0.00    -0.315 N 
ATOM     23  C   UNL     1      -1.242  -6.734   2.593  0.00  0.00    +0.210 C 
ATOM     24  O   UNL     1      -0.063  -7.015   2.617  0.00  0.00    -0.276 OA
ATOM     25  C   UNL     1      -2.270  -7.763   2.987  0.00  0.00    +0.109 C 
ATOM     26  H   UNL     1      -2.577  -5.277   2.195  0.00  0.00    +0.149 HD
ENDBRANCH  21  22
ENDBRANCH  18  21
ENDBRANCH   2  14
TORSDOF 5
