REMARK  Name = ZINC51144373
REMARK  12 active torsions:
REMARK  status: ('A' for Active; 'I' for Inactive)
REMARK    1  A    between atoms: C_1  and  C_2
REMARK    2  A    between atoms: C_3  and  C_22
REMARK    3  A    between atoms: C_7  and  N_20
REMARK    4  A    between atoms: C_9  and  C_11
REMARK    5  A    between atoms: C_11  and  N_12
REMARK    6  A    between atoms: N_12  and  C_13
REMARK    7  A    between atoms: N_12  and  C_14
REMARK    8  A    between atoms: C_14  and  C_16
REMARK    9  A    between atoms: C_14  and  C_17
REMARK   10  A    between atoms: C_17  and  C_18
REMARK   11  A    between atoms: C_17  and  C_19
REMARK   12  A    between atoms: N_20  and  N_21
REMARK                            x       y       z     vdW  Elec       q    Type
REMARK                         _______ _______ _______ _____ _____    ______ ____
ROOT
ATOM      1  C   UNL     1      -1.091   1.802   0.163  0.00  0.00    +0.045 C 
ATOM      2  C   UNL     1      -0.981   0.301   0.100  0.00  0.00    -0.028 A 
ATOM      3  C   UNL     1      -1.132  -0.342  -1.068  0.00  0.00    -0.008 A 
ATOM      4  S   UNL     1      -0.917  -2.057  -0.631  0.00  0.00    -0.074 S 
ATOM      5  C   UNL     1      -0.630  -1.865   1.108  0.00  0.00    +0.114 A 
ATOM      6  C   UNL     1      -0.703  -0.467   1.301  0.00  0.00    +0.052 A 
ATOM      7  C   UNL     1      -0.501  -0.025   2.637  0.00  0.00    +0.144 A 
ATOM      8  N   UNL     1      -0.259  -0.918   3.583  0.00  0.00    -0.218 NA
ATOM      9  C   UNL     1      -0.200  -2.213   3.329  0.00  0.00    +0.116 A 
ATOM     10  N   UNL     1      -0.389  -2.685   2.112  0.00  0.00    -0.227 NA
ATOM     11  C   UNL     1      -1.416   0.246  -2.426  0.00  0.00    +0.052 C 
ENDROOT
BRANCH   7  12
ATOM     12  N   UNL     1      -0.554   1.323   2.944  0.00  0.00    -0.267 N 
ATOM     13  H   UNL     1      -0.839   1.962   2.272  0.00  0.00    +0.167 HD
BRANCH  12  14
ATOM     14  N   UNL     1      -0.208   1.753   4.193  0.00  0.00    -0.255 NA
ATOM     15  H   UNL     1       0.726   1.454   4.432  0.00  0.00    +0.140 HD
ATOM     16  H   UNL     1      -0.296   2.756   4.268  0.00  0.00    +0.140 HD
ENDBRANCH  12  14
ENDBRANCH   7  12
BRANCH   9  17
ATOM     17  C   UNL     1       0.079  -3.173   4.456  0.00  0.00    -0.001 C 
BRANCH  17  18
ATOM     18  N   UNL     1      -1.189  -3.595   5.066  0.00  0.00    +0.384 N 
ATOM     19  C   UNL     1      -1.948  -4.405   4.104  0.00  0.00    -0.095 C 
ATOM     20  H   UNL     1      -1.728  -2.780   5.319  0.00  0.00    -0.081 HD
BRANCH  18  21
ATOM     21  C   UNL     1      -0.913  -4.393   6.268  0.00  0.00    -0.069 C 
ATOM     22  C   UNL     1      -2.234  -4.837   6.899  0.00  0.00    -0.013 C 
BRANCH  21  23
ATOM     23  C   UNL     1      -0.127  -3.548   7.272  0.00  0.00    -0.031 C 
ATOM     24  C   UNL     1      -0.949  -2.316   7.656  0.00  0.00    +0.005 C 
ATOM     25  C   UNL     1       0.162  -4.379   8.523  0.00  0.00    +0.005 C 
ENDBRANCH  21  23
ENDBRANCH  18  21
ENDBRANCH  17  18
ENDBRANCH   9  17
TORSDOF 6
