REMARK  Name = ZINC53400023
REMARK  9 active torsions:
REMARK  status: ('A' for Active; 'I' for Inactive)
REMARK    1  A    between atoms: C_1  and  C_2
REMARK    2  A    between atoms: C_2  and  C_4
REMARK    3  A    between atoms: C_2  and  O_11
REMARK    4  A    between atoms: O_11  and  C_12
REMARK    5  A    between atoms: C_12  and  C_13
REMARK    6  A    between atoms: C_13  and  C_15
REMARK    7  A    between atoms: C_13  and  O_25
REMARK    8  A    between atoms: C_15  and  N_16
REMARK    9  A    between atoms: C_20  and  C_22
REMARK                            x       y       z     vdW  Elec       q    Type
REMARK                         _______ _______ _______ _____ _____    ______ ____
ROOT
ATOM      1  C   UNL     1       2.688  -1.133  -2.324  0.00  0.00    +0.124 C 
ENDROOT
BRANCH   1   2
ATOM      2  O   UNL     1       2.547  -0.122  -3.324  0.00  0.00    -0.391 OA
ATOM      3  H   UNL     1       2.983   0.713  -3.103  0.00  0.00    +0.210 HD
ENDBRANCH   1   2
BRANCH   1   4
ATOM      4  C   UNL     1       2.080  -0.640  -1.010  0.00  0.00    +0.190 C 
BRANCH   4   5
ATOM      5  O   UNL     1       0.671  -0.465  -1.174  0.00  0.00    -0.370 OA
BRANCH   5   7
ATOM      6  C   UNL     1      -0.019   1.526   0.010  0.00  0.00    +0.043 C 
ATOM      7  C   UNL     1       0.002  -0.004   0.002  0.00  0.00    +0.145 C 
BRANCH   7   8
ATOM      8  C   UNL     1      -1.412  -0.526   0.013  0.00  0.00    -0.019 A 
ATOM      9  C   UNL     1      -2.106  -0.666  -1.175  0.00  0.00    +0.007 A 
ATOM     10  C   UNL     1      -3.402  -1.144  -1.166  0.00  0.00    +0.020 A 
ATOM     11  C   UNL     1      -4.006  -1.483   0.032  0.00  0.00    +0.041 A 
ATOM     12  C   UNL     1      -3.311  -1.342   1.220  0.00  0.00    +0.020 A 
ATOM     13  C   UNL     1      -2.012  -0.869   1.210  0.00  0.00    +0.007 A 
ATOM     14 CL   UNL     1      -5.635  -2.083   0.045  0.00  0.00    -0.084 Cl
ENDBRANCH   7   8
ENDBRANCH   5   7
ENDBRANCH   4   5
ENDBRANCH   1   4
BRANCH   1  15
ATOM     15  C   UNL     1       4.173  -1.440  -2.115  0.00  0.00    -0.044 C 
BRANCH  15  16
ATOM     16  N   UNL     1       4.757  -1.914  -3.377  0.00  0.00    +0.389 N 
ATOM     17  C   UNL     1       4.807  -0.806  -4.366  0.00  0.00    -0.078 C 
ATOM     18  C   UNL     1       5.904  -1.266  -5.359  0.00  0.00    -0.020 C 
ATOM     19  C   UNL     1       6.942  -1.946  -4.436  0.00  0.00    -0.008 C 
ATOM     20  C   UNL     1       6.161  -2.329  -3.165  0.00  0.00    +0.019 C 
ATOM     21  H   UNL     1       4.218  -2.684  -3.743  0.00  0.00    -0.081 HD
BRANCH  20  22
ATOM     22  C   UNL     1       6.229  -3.818  -2.949  0.00  0.00    +0.197 C 
ATOM     23  O   UNL     1       5.213  -4.481  -2.968  0.00  0.00    -0.278 OA
ATOM     24  N   UNL     1       7.418  -4.415  -2.735  0.00  0.00    -0.331 N 
ATOM     25  H   UNL     1       8.231  -3.885  -2.720  0.00  0.00    +0.145 HD
ATOM     26  H   UNL     1       7.462  -5.374  -2.596  0.00  0.00    +0.145 HD
ENDBRANCH  20  22
ENDBRANCH  15  16
ENDBRANCH   1  15
TORSDOF 8
