REMARK  Name = ZINC39948398
REMARK  15 active torsions:
REMARK  status: ('A' for Active; 'I' for Inactive)
REMARK    1  A    between atoms: C_1  and  C_2
REMARK    2  A    between atoms: C_4  and  C_27
REMARK    3  A    between atoms: C_7  and  C_17
REMARK    4  A    between atoms: C_9  and  C_16
REMARK    5  A    between atoms: C_11  and  C_12
REMARK    6  A    between atoms: C_11  and  O_15
REMARK    7  A    between atoms: C_12  and  C_13
REMARK    8  A    between atoms: C_19  and  O_25
REMARK    9  A    between atoms: C_22  and  O_23
REMARK   10  A    between atoms: O_23  and  C_24
REMARK   11  A    between atoms: O_25  and  C_26
REMARK   12  A    between atoms: C_29  and  O_35
REMARK   13  A    between atoms: C_32  and  O_33
REMARK   14  A    between atoms: O_33  and  C_34
REMARK   15  A    between atoms: O_35  and  C_36
REMARK                            x       y       z     vdW  Elec       q    Type
REMARK                         _______ _______ _______ _____ _____    ______ ____
ROOT
ATOM      1  C   UNL     1      -0.023   1.262  -0.198  0.00  0.00    +0.009 C 
ATOM      2  C   UNL     1      -0.061  -0.214   0.204  0.00  0.00    +0.008 C 
ATOM      3  C   UNL     1       0.526  -1.066  -0.923  0.00  0.00    -0.031 C 
ATOM      4  N   UNL     1       1.915  -0.664  -1.173  0.00  0.00    +0.389 N 
ATOM      5  C   UNL     1       2.731  -0.926   0.019  0.00  0.00    -0.031 C 
ATOM      6  C   UNL     1       2.229  -0.069   1.183  0.00  0.00    +0.008 C 
ATOM      7  C   UNL     1       0.767  -0.420   1.476  0.00  0.00    +0.072 C 
ATOM      8  C   UNL     1       3.080  -0.344   2.425  0.00  0.00    +0.009 C 
ATOM      9  H   UNL     1       2.282  -1.191  -1.952  0.00  0.00    -0.084 HD
ATOM     10  H   UNL     1       1.946   0.320  -1.391  0.00  0.00    -0.084 HD
ENDROOT
BRANCH   5  11
ATOM     11  C   UNL     1       4.169  -0.583  -0.272  0.00  0.00    -0.016 A 
ATOM     12  C   UNL     1       4.474   0.343  -1.250  0.00  0.00    +0.051 A 
ATOM     13  C   UNL     1       5.798   0.659  -1.518  0.00  0.00    +0.121 A 
ATOM     14  C   UNL     1       6.816   0.045  -0.803  0.00  0.00    +0.049 A 
ATOM     15  C   UNL     1       6.511  -0.881   0.175  0.00  0.00    +0.049 A 
ATOM     16  C   UNL     1       5.187  -1.193   0.446  0.00  0.00    +0.122 A 
BRANCH  16  17
ATOM     17  O   UNL     1       4.886  -2.101   1.413  0.00  0.00    -0.495 OA
ATOM     18  C   UNL     1       5.984  -2.690   2.113  0.00  0.00    +0.277 C 
ENDBRANCH  16  17
BRANCH  13  19
ATOM     19  O   UNL     1       6.098   1.571  -2.482  0.00  0.00    -0.495 OA
ATOM     20  C   UNL     1       7.482   1.848  -2.704  0.00  0.00    +0.277 C 
ENDBRANCH  13  19
ENDBRANCH   5  11
BRANCH   3  21
ATOM     21  C   UNL     1      -0.286  -0.867  -2.177  0.00  0.00    -0.016 A 
ATOM     22  C   UNL     1       0.169  -0.017  -3.167  0.00  0.00    +0.051 A 
ATOM     23  C   UNL     1      -0.578   0.166  -4.321  0.00  0.00    +0.121 A 
ATOM     24  C   UNL     1      -1.782  -0.504  -4.482  0.00  0.00    +0.049 A 
ATOM     25  C   UNL     1      -2.237  -1.353  -3.492  0.00  0.00    +0.049 A 
ATOM     26  C   UNL     1      -1.487  -1.540  -2.340  0.00  0.00    +0.122 A 
BRANCH  26  27
ATOM     27  O   UNL     1      -1.933  -2.381  -1.368  0.00  0.00    -0.495 OA
ATOM     28  C   UNL     1      -3.178  -3.041  -1.602  0.00  0.00    +0.277 C 
ENDBRANCH  26  27
BRANCH  23  29
ATOM     29  O   UNL     1      -0.130   1.002  -5.295  0.00  0.00    -0.495 OA
ATOM     30  C   UNL     1      -0.950   1.143  -6.457  0.00  0.00    +0.277 C 
ENDBRANCH  23  29
ENDBRANCH   3  21
BRANCH   7  31
ATOM     31  O   UNL     1       0.677  -1.784   1.890  0.00  0.00    -0.388 OA
ATOM     32  H   UNL     1       1.178  -1.986   2.692  0.00  0.00    +0.210 HD
ENDBRANCH   7  31
BRANCH   7  33
ATOM     33  C   UNL     1       0.233   0.489   2.586  0.00  0.00    +0.061 C 
BRANCH  33  34
ATOM     34  C   UNL     1      -1.223   0.185   2.827  0.00  0.00    -0.032 C 
ATOM     35  C   UNL     1      -1.625  -0.189   4.016  0.00  0.00    +0.004 C 
ENDBRANCH  33  34
ENDBRANCH   7  33
TORSDOF 9
