REMARK  Name = ZINC39531116
REMARK  10 active torsions:
REMARK  status: ('A' for Active; 'I' for Inactive)
REMARK    1  A    between atoms: C_1  and  S_2
REMARK    2  A    between atoms: S_2  and  C_3
REMARK    3  A    between atoms: N_6  and  C_10
REMARK    4  A    between atoms: C_10  and  C_12
REMARK    5  A    between atoms: C_10  and  C_16
REMARK    6  A    between atoms: C_12  and  N_13
REMARK    7  A    between atoms: N_13  and  S_14
REMARK    8  A    between atoms: S_14  and  C_15
REMARK    9  A    between atoms: C_19  and  C_22
REMARK   10  A    between atoms: C_22  and  C_23
REMARK                            x       y       z     vdW  Elec       q    Type
REMARK                         _______ _______ _______ _____ _____    ______ ____
ROOT
ATOM      1  C   UNL     1       3.587  -2.852  -2.089  0.00  0.00    -0.023 C 
ENDROOT
BRANCH   1   4
ATOM      2  C   UNL     1       0.698  -0.475  -1.783  0.00  0.00    +0.095 C 
ATOM      3  C   UNL     1       1.749  -1.500  -1.350  0.00  0.00    -0.048 C 
ATOM      4  N   UNL     1       2.590  -1.854  -2.501  0.00  0.00    +0.387 N 
ATOM      5  C   UNL     1       3.275  -0.653  -2.997  0.00  0.00    -0.062 C 
ATOM      6  C   UNL     1       2.237   0.379  -3.443  0.00  0.00    +0.063 C 
ATOM      7  N   UNL     1       1.371   0.722  -2.306  0.00  0.00    -0.308 NA
ATOM      8  H   UNL     1       0.701   1.431  -2.563  0.00  0.00    +0.123 HD
ATOM      9  H   UNL     1       2.013  -2.239  -3.234  0.00  0.00    -0.081 HD
BRANCH   2  11
ATOM     10  C   UNL     1      -0.441   1.789  -0.459  0.00  0.00    +0.086 C 
ATOM     11  S   UNL     1      -0.326  -0.019  -0.356  0.00  0.00    -0.147 S 
ENDBRANCH   2  11
ENDBRANCH   1   4
BRANCH   1  12
ATOM     12  C   UNL     1       4.472  -3.190  -3.261  0.00  0.00    -0.060 A 
ATOM     13  C   UNL     1       3.927  -3.317  -4.525  0.00  0.00    +0.002 A 
ATOM     14  C   UNL     1       4.739  -3.628  -5.600  0.00  0.00    +0.004 A 
ATOM     15  C   UNL     1       6.096  -3.811  -5.411  0.00  0.00    -0.043 A 
ATOM     16  C   UNL     1       6.641  -3.683  -4.147  0.00  0.00    +0.004 A 
ATOM     17  C   UNL     1       5.830  -3.368  -3.073  0.00  0.00    +0.002 A 
BRANCH  15  18
ATOM     18  C   UNL     1       6.981  -4.150  -6.582  0.00  0.00    +0.070 C 
BRANCH  18  19
ATOM     19  C   UNL     1       7.496  -2.880  -7.208  0.00  0.00    -0.043 A 
ATOM     20  C   UNL     1       6.777  -2.266  -8.218  0.00  0.00    +0.004 A 
ATOM     21  C   UNL     1       7.249  -1.101  -8.792  0.00  0.00    +0.000 A 
ATOM     22  C   UNL     1       8.439  -0.548  -8.356  0.00  0.00    +0.000 A 
ATOM     23  C   UNL     1       9.157  -1.161  -7.346  0.00  0.00    +0.000 A 
ATOM     24  C   UNL     1       8.683  -2.324  -6.769  0.00  0.00    +0.004 A 
ENDBRANCH  18  19
ENDBRANCH  15  18
ENDBRANCH   1  12
BRANCH   1  25
ATOM     25  C   UNL     1       2.874  -4.116  -1.607  0.00  0.00    +0.082 C 
BRANCH  25  26
ATOM     26  N   UNL     1       3.868  -5.085  -1.123  0.00  0.00    -0.265 NA
ATOM     27  H   UNL     1       4.601  -4.623  -0.606  0.00  0.00    +0.135 HD
BRANCH  26  28
ATOM     28  S   UNL     1       3.103  -6.343  -0.150  0.00  0.00    -0.084 S 
ATOM     29  C   UNL     1       4.481  -7.417   0.339  0.00  0.00    +0.102 C 
ENDBRANCH  26  28
ENDBRANCH  25  26
ENDBRANCH   1  25
TORSDOF 8
