REMARK  Name = ZINC03771367
REMARK  10 active torsions:
REMARK  status: ('A' for Active; 'I' for Inactive)
REMARK    1  A    between atoms: C_1  and  O_2
REMARK    2  A    between atoms: O_2  and  C_3
REMARK    3  A    between atoms: C_6  and  N_9
REMARK    4  A    between atoms: C_10  and  C_12
REMARK    5  A    between atoms: C_12  and  C_14
REMARK    6  A    between atoms: C_12  and  N_21
REMARK    7  A    between atoms: N_21  and  C_22
REMARK    8  A    between atoms: C_22  and  C_23
REMARK    9  A    between atoms: C_29  and  C_31
REMARK   10  A    between atoms: C_31  and  N_32
REMARK                            x       y       z     vdW  Elec       q    Type
REMARK                         _______ _______ _______ _____ _____    ______ ____
ROOT
ATOM      1  N   UNL     1       0.261   0.121   0.411  0.00  0.00    -0.284 N 
ATOM      2  C   UNL     1       0.329  -1.090   1.000  0.00  0.00    +0.234 C 
ATOM      3  O   UNL     1       0.039  -1.212   2.171  0.00  0.00    -0.274 OA
ENDROOT
BRANCH   1   4
ATOM      4  C   UNL     1      -0.285   1.263   1.148  0.00  0.00    +0.166 C 
BRANCH   4   5
ATOM      5  C   UNL     1       0.825   2.285   1.402  0.00  0.00    +0.023 C 
ATOM      6  C   UNL     1       2.009   1.598   2.096  0.00  0.00    +0.010 C 
ATOM      7  C   UNL     1       3.166   2.595   2.180  0.00  0.00    +0.027 C 
ATOM      8  C   UNL     1       2.684   3.906   2.730  0.00  0.00    -0.031 C 
ATOM      9  C   UNL     1       1.440   4.256   2.784  0.00  0.00    -0.031 C 
ATOM     10  C   UNL     1       0.303   3.397   2.313  0.00  0.00    +0.032 C 
ENDBRANCH   4   5
BRANCH   4  12
ATOM     11  N   UNL     1      -2.192   2.821   0.906  0.00  0.00    -0.284 N 
ATOM     12  C   UNL     1      -1.382   1.905   0.338  0.00  0.00    +0.238 C 
ATOM     13  O   UNL     1      -1.536   1.597  -0.825  0.00  0.00    -0.273 OA
ATOM     14  H   UNL     1      -2.019   3.126   1.810  0.00  0.00    +0.155 HD
BRANCH  11  18
ATOM     15  C   UNL     1      -5.440   4.338  -1.224  0.00  0.00    +0.120 A 
ATOM     16  C   UNL     1      -5.541   4.139   0.145  0.00  0.00    +0.047 A 
ATOM     17  C   UNL     1      -4.465   3.636   0.851  0.00  0.00    +0.027 A 
ATOM     18  C   UNL     1      -3.283   3.330   0.190  0.00  0.00    +0.034 A 
ATOM     19  C   UNL     1      -3.181   3.536  -1.179  0.00  0.00    +0.027 A 
ATOM     20  C   UNL     1      -4.259   4.033  -1.885  0.00  0.00    +0.047 A 
BRANCH  15  22
ATOM     21  C   UNL     1      -6.325   5.014  -3.325  0.00  0.00    +0.277 C 
ATOM     22  O   UNL     1      -6.499   4.834  -1.918  0.00  0.00    -0.495 OA
ENDBRANCH  15  22
ENDBRANCH  11  18
ENDBRANCH   4  12
ENDBRANCH   1   4
BRANCH   1  23
ATOM     23  C   UNL     1       0.728   0.293  -0.966  0.00  0.00    +0.143 C 
BRANCH  23  24
ATOM     24  C   UNL     1       2.178   0.702  -0.958  0.00  0.00    -0.030 A 
ATOM     25  C   UNL     1       2.520   2.037  -1.074  0.00  0.00    +0.005 A 
ATOM     26  C   UNL     1       3.850   2.413  -1.061  0.00  0.00    +0.000 A 
ATOM     27  C   UNL     1       4.839   1.454  -0.943  0.00  0.00    +0.000 A 
ATOM     28  C   UNL     1       4.497   0.119  -0.832  0.00  0.00    +0.000 A 
ATOM     29  C   UNL     1       3.167  -0.257  -0.840  0.00  0.00    +0.005 A 
ENDBRANCH  23  24
ENDBRANCH   1  23
BRANCH   2  30
ATOM     30  C   UNL     1       0.765  -2.292   0.202  0.00  0.00    +0.210 C 
BRANCH  30  31
ATOM     31  N   UNL     1       0.567  -3.505   1.000  0.00  0.00    -0.255 N 
ATOM     32  C   UNL     1       1.528  -4.053   1.846  0.00  0.00    +0.048 A 
ATOM     33  C   UNL     1       2.818  -3.642   2.159  0.00  0.00    +0.024 A 
ATOM     34  C   UNL     1       3.582  -4.369   3.052  0.00  0.00    +0.002 A 
ATOM     35  C   UNL     1       3.075  -5.511   3.650  0.00  0.00    +0.001 A 
ATOM     36  C   UNL     1       1.794  -5.934   3.358  0.00  0.00    +0.014 A 
ATOM     37  C   UNL     1       1.015  -5.207   2.458  0.00  0.00    +0.048 A 
ATOM     38  C   UNL     1      -0.356  -5.383   1.943  0.00  0.00    +0.250 C 
ATOM     39  O   UNL     1      -1.143  -6.264   2.220  0.00  0.00    -0.282 OA
ATOM     40  C   UNL     1      -0.563  -4.234   1.002  0.00  0.00    +0.292 C 
ATOM     41  O   UNL     1      -1.566  -4.003   0.362  0.00  0.00    -0.266 OA
ENDBRANCH  30  31
ENDBRANCH   2  30
TORSDOF 9
