REMARK  Name = ZINC11816878
REMARK  9 active torsions:
REMARK  status: ('A' for Active; 'I' for Inactive)
REMARK    1  A    between atoms: C_4  and  O_7
REMARK    2  A    between atoms: O_7  and  C_8
REMARK    3  A    between atoms: C_12  and  C_14
REMARK    4  A    between atoms: C_14  and  N_66
REMARK    5  A    between atoms: C_20  and  C_22
REMARK    6  A    between atoms: C_22  and  C_23
REMARK    7  A    between atoms: N_25  and  C_26
REMARK    8  A    between atoms: C_26  and  C_27
REMARK    9  A    between atoms: C_27  and  O_33
REMARK                            x       y       z     vdW  Elec       q    Type
REMARK                         _______ _______ _______ _____ _____    ______ ____
ROOT
ATOM      1  C   UNL     1       6.597  -0.275   1.639  0.00  0.00    -0.058 C 
ATOM      2  C   UNL     1       7.244  -0.998   2.822  0.00  0.00    +0.085 C 
ATOM      3  N   UNL     1       7.925  -0.036   3.684  0.00  0.00    -0.318 N 
ATOM      4  C   UNL     1       8.259   1.194   3.278  0.00  0.00    +0.200 C 
ATOM      5  O   UNL     1       8.852   1.919   4.050  0.00  0.00    -0.278 OA
ATOM      6  C   UNL     1       7.933   1.715   1.907  0.00  0.00    +0.028 C 
ATOM      7  H   UNL     1       8.145  -0.300   4.591  0.00  0.00    +0.149 HD
ATOM      8  N   UNL     1       7.622   0.584   1.013  0.00  0.00    +0.391 N 
ATOM      9  H   UNL     1       8.474   0.033   0.860  0.00  0.00    -0.080 HD
ENDROOT
BRANCH   8  10
ATOM     10  C   UNL     1       7.134   1.089  -0.291  0.00  0.00    -0.042 C 
BRANCH  10  15
ATOM     11  C   UNL     1       3.560   2.216   0.191  0.00  0.00    +0.129 A 
ATOM     12  C   UNL     1       3.715   3.593   0.273  0.00  0.00    +0.046 A 
ATOM     13  C   UNL     1       4.974   4.152   0.173  0.00  0.00    +0.004 A 
ATOM     14  C   UNL     1       6.079   3.341  -0.009  0.00  0.00    +0.002 A 
ATOM     15  C   UNL     1       5.928   1.970  -0.092  0.00  0.00    -0.060 A 
ATOM     16  C   UNL     1       4.671   1.405   0.014  0.00  0.00    +0.048 A 
BRANCH  11  17
ATOM     17  O   UNL     1       2.322   1.664   0.288  0.00  0.00    -0.456 OA
BRANCH  17  21
ATOM     18  C   UNL     1      -0.143   1.837  -3.015  0.00  0.00    +0.000 A 
ATOM     19  C   UNL     1      -0.551   1.154  -1.884  0.00  0.00    +0.004 A 
ATOM     20  C   UNL     1       0.270   1.099  -0.775  0.00  0.00    +0.046 A 
ATOM     21  C   UNL     1       1.510   1.721  -0.800  0.00  0.00    +0.128 A 
ATOM     22  C   UNL     1       1.919   2.402  -1.937  0.00  0.00    +0.046 A 
ATOM     23  C   UNL     1       1.092   2.458  -3.042  0.00  0.00    +0.004 A 
ENDBRANCH  17  21
ENDBRANCH  11  17
ENDBRANCH  10  15
ENDBRANCH   8  10
BRANCH   6  24
ATOM     24  C   UNL     1       9.139   2.473   1.351  0.00  0.00    +0.089 C 
BRANCH  24  25
ATOM     25  C   UNL     1      10.313   1.534   1.238  0.00  0.00    +0.212 C 
ATOM     26  O   UNL     1      10.172   0.354   1.481  0.00  0.00    -0.276 OA
ATOM     27  N   UNL     1      11.520   2.006   0.867  0.00  0.00    -0.313 N 
ATOM     28  H   UNL     1      11.633   2.950   0.673  0.00  0.00    +0.149 HD
BRANCH  27  29
ATOM     29  C   UNL     1      12.661   1.094   0.757  0.00  0.00    +0.138 C 
BRANCH  29  30
ATOM     30  C   UNL     1      13.901   1.878   0.323  0.00  0.00    +0.081 C 
ATOM     31  C   UNL     1      13.598   2.635  -0.972  0.00  0.00    +0.036 C 
ATOM     32  C   UNL     1      14.838   3.419  -1.406  0.00  0.00    +0.003 C 
ATOM     33  C   UNL     1      15.998   2.450  -1.641  0.00  0.00    +0.000 C 
ATOM     34  C   UNL     1      16.301   1.693  -0.346  0.00  0.00    +0.003 C 
ATOM     35  C   UNL     1      15.061   0.909   0.088  0.00  0.00    +0.036 C 
BRANCH  30  36
ATOM     36  O   UNL     1      14.258   2.809   1.347  0.00  0.00    -0.387 OA
ATOM     37  H   UNL     1      13.568   3.456   1.548  0.00  0.00    +0.210 HD
ENDBRANCH  30  36
ENDBRANCH  29  30
ENDBRANCH  27  29
ENDBRANCH  24  25
ENDBRANCH   6  24
TORSDOF 9
