REMARK  Name = ZINC09282926
REMARK  10 active torsions:
REMARK  status: ('A' for Active; 'I' for Inactive)
REMARK    1  A    between atoms: C_1  and  C_2
REMARK    2  A    between atoms: C_9  and  N_14
REMARK    3  A    between atoms: C_10  and  C_11
REMARK    4  A    between atoms: C_15  and  C_17
REMARK    5  A    between atoms: C_17  and  O_18
REMARK    6  A    between atoms: O_18  and  C_19
REMARK    7  A    between atoms: C_19  and  C_21
REMARK    8  A    between atoms: C_24  and  N_30
REMARK    9  A    between atoms: C_25  and  N_27
REMARK   10  A    between atoms: N_30  and  C_31
REMARK                            x       y       z     vdW  Elec       q    Type
REMARK                         _______ _______ _______ _____ _____    ______ ____
ROOT
ATOM      1  N   UNL     1      -2.697  -5.189   0.675  0.00  0.00    -0.277 N 
ATOM      2  C   UNL     1      -3.922  -5.623   0.317  0.00  0.00    +0.255 C 
ATOM      3  O   UNL     1      -4.743  -4.838  -0.109  0.00  0.00    -0.272 OA
ATOM      4  H   UNL     1      -2.041  -5.816   1.016  0.00  0.00    +0.155 HD
ENDROOT
BRANCH   1  12
ATOM      5  C   UNL     1      -1.248   2.442  -0.247  0.00  0.00    +0.008 C 
ATOM      6  C   UNL     1      -1.058   0.924  -0.222  0.00  0.00    -0.009 C 
ATOM      7  C   UNL     1      -0.266   0.526   1.026  0.00  0.00    +0.008 C 
ATOM      8  C   UNL     1       0.141  -0.946   0.938  0.00  0.00    +0.037 C 
ATOM      9  C   UNL     1      -1.099  -1.780   0.645  0.00  0.00    -0.023 A 
ATOM     10  C   UNL     1      -2.220  -1.211   0.150  0.00  0.00    -0.004 A 
ATOM     11  S   UNL     1      -3.368  -2.548  -0.022  0.00  0.00    -0.077 S 
ATOM     12  C   UNL     1      -2.375  -3.845   0.555  0.00  0.00    +0.084 A 
ATOM     13  C   UNL     1      -1.180  -3.214   0.867  0.00  0.00    +0.068 A 
ATOM     14  C   UNL     1      -2.429   0.235  -0.178  0.00  0.00    +0.046 C 
BRANCH  13  15
ATOM     15  C   UNL     1      -0.040  -3.966   1.401  0.00  0.00    +0.244 C 
ATOM     16  O   UNL     1       0.087  -4.107   2.603  0.00  0.00    -0.270 OA
ATOM     17  N   UNL     1       0.868  -4.500   0.560  0.00  0.00    -0.325 N 
ATOM     18  H   UNL     1       0.767  -4.388  -0.398  0.00  0.00    +0.145 HD
ATOM     19  H   UNL     1       1.622  -4.998   0.914  0.00  0.00    +0.145 HD
ENDBRANCH  13  15
ENDBRANCH   1  12
BRANCH   2  20
ATOM     20  C   UNL     1      -4.272  -7.083   0.448  0.00  0.00    +0.328 C 
BRANCH  20  21
ATOM     21  O   UNL     1      -5.638  -7.295   0.002  0.00  0.00    -0.452 OA
BRANCH  21  22
ATOM     22  C   UNL     1      -6.109  -8.556   0.055  0.00  0.00    +0.340 C 
ATOM     23  O   UNL     1      -5.399  -9.454   0.462  0.00  0.00    -0.245 OA
BRANCH  22  24
ATOM     24  C   UNL     1      -7.487  -8.847  -0.381  0.00  0.00    +0.061 A 
ATOM     25  C   UNL     1      -8.308  -7.814  -0.844  0.00  0.00    +0.017 A 
ATOM     26  C   UNL     1      -9.582  -8.084  -1.254  0.00  0.00    +0.026 A 
ATOM     27  C   UNL     1     -10.073  -9.386  -1.201  0.00  0.00    +0.058 A 
ATOM     28  C   UNL     1      -9.265 -10.420  -0.736  0.00  0.00    +0.148 A 
ATOM     29  C   UNL     1      -7.978 -10.155  -0.327  0.00  0.00    +0.049 A 
BRANCH  28  30
ATOM     30  N   UNL     1      -9.790 -11.803  -0.681  0.00  0.00    +0.058 N 
ATOM     31  O   UNL     1      -9.051 -12.723  -0.382  0.00  0.00    -0.126 OA
ATOM     32  O   UNL     1     -10.961 -12.021  -0.936  0.00  0.00    -0.126 OA
ENDBRANCH  28  30
BRANCH  27  33
ATOM     33  N   UNL     1     -11.373  -9.654  -1.614  0.00  0.00    -0.345 N 
ATOM     34  C   UNL     1     -12.182  -8.594  -2.221  0.00  0.00    +0.125 C 
ATOM     35  H   UNL     1     -11.745 -10.543  -1.500  0.00  0.00    +0.146 HD
ENDBRANCH  27  33
ENDBRANCH  22  24
ENDBRANCH  21  22
ENDBRANCH  20  21
ENDBRANCH   2  20
TORSDOF 8
