REMARK  Name = ZINC04133164
REMARK  10 active torsions:
REMARK  status: ('A' for Active; 'I' for Inactive)
REMARK    1  A    between atoms: C_1  and  C_2
REMARK    2  A    between atoms: C_4  and  C_27
REMARK    3  A    between atoms: C_6  and  C_19
REMARK    4  A    between atoms: C_9  and  C_10
REMARK    5  A    between atoms: C_9  and  O_18
REMARK    6  A    between atoms: C_11  and  C_12
REMARK    7  A    between atoms: C_22  and  O_25
REMARK    8  A    between atoms: O_25  and  C_26
REMARK    9  A    between atoms: C_30  and  O_33
REMARK   10  A    between atoms: O_33  and  C_34
REMARK                            x       y       z     vdW  Elec       q    Type
REMARK                         _______ _______ _______ _____ _____    ______ ____
ROOT
ATOM      1  C   UNL     1       0.613   0.036  -2.421  0.00  0.00    +0.010 C 
ATOM      2  C   UNL     1      -0.377  -0.511  -1.391  0.00  0.00    +0.020 C 
ATOM      3  C   UNL     1       0.306  -0.605  -0.025  0.00  0.00    -0.034 C 
ATOM      4  C   UNL     1      -1.793  -0.200   1.116  0.00  0.00    -0.036 C 
ATOM      5  C   UNL     1      -2.538  -0.094  -0.216  0.00  0.00    +0.037 C 
ATOM      6  C   UNL     1      -1.581   0.428  -1.291  0.00  0.00    +0.127 C 
ATOM      7  N   UNL     1      -0.649  -1.121   0.975  0.00  0.00    +0.388 N 
ATOM      8  H   UNL     1      -0.174  -1.212   1.880  0.00  0.00    -0.084 HD
ATOM      9  H   UNL     1      -0.991  -2.041   0.673  0.00  0.00    -0.084 HD
ENDROOT
BRANCH   4  10
ATOM     10  C   UNL     1      -2.726  -0.733   2.173  0.00  0.00    -0.061 A 
ATOM     11  C   UNL     1      -2.985  -2.089   2.244  0.00  0.00    +0.005 A 
ATOM     12  C   UNL     1      -3.836  -2.580   3.216  0.00  0.00    +0.046 A 
ATOM     13  C   UNL     1      -4.439  -1.711   4.112  0.00  0.00    +0.120 A 
ATOM     14  C   UNL     1      -4.181  -0.350   4.035  0.00  0.00    +0.046 A 
ATOM     15  C   UNL     1      -3.325   0.136   3.066  0.00  0.00    +0.005 A 
BRANCH  13  16
ATOM     16  O   UNL     1      -5.281  -2.191   5.065  0.00  0.00    -0.495 OA
ATOM     17  C   UNL     1      -5.500  -3.603   5.085  0.00  0.00    +0.277 C 
ENDBRANCH  13  16
ENDBRANCH   4  10
BRANCH   3  18
ATOM     18  C   UNL     1       0.787   0.761   0.391  0.00  0.00    -0.061 A 
ATOM     19  C   UNL     1       1.595   1.496  -0.457  0.00  0.00    +0.005 A 
ATOM     20  C   UNL     1       2.033   2.751  -0.081  0.00  0.00    +0.046 A 
ATOM     21  C   UNL     1       1.670   3.270   1.153  0.00  0.00    +0.120 A 
ATOM     22  C   UNL     1       0.863   2.528   2.005  0.00  0.00    +0.046 A 
ATOM     23  C   UNL     1       0.424   1.276   1.621  0.00  0.00    +0.005 A 
BRANCH  21  24
ATOM     24  O   UNL     1       2.103   4.502   1.528  0.00  0.00    -0.495 OA
ATOM     25  C   UNL     1       2.930   5.208   0.601  0.00  0.00    +0.277 C 
ENDBRANCH  21  24
ENDBRANCH   3  18
BRANCH   6  26
ATOM     26  C   UNL     1      -2.278   0.478  -2.587  0.00  0.00    -0.062 C 
ATOM     27  C   UNL     1      -2.833   0.518  -3.621  0.00  0.00    -0.063 C 
BRANCH  27  28
ATOM     28  C   UNL     1      -3.510   0.566  -4.881  0.00  0.00    +0.025 A 
ATOM     29  C   UNL     1      -4.842   0.162  -4.977  0.00  0.00    +0.017 A 
ATOM     30  C   UNL     1      -5.490   0.216  -6.194  0.00  0.00    +0.001 A 
ATOM     31  C   UNL     1      -4.819   0.659  -7.320  0.00  0.00    +0.000 A 
ATOM     32  C   UNL     1      -3.497   1.056  -7.232  0.00  0.00    +0.001 A 
ATOM     33  C   UNL     1      -2.839   1.012  -6.021  0.00  0.00    +0.017 A 
ENDBRANCH  27  28
ENDBRANCH   6  26
BRANCH   6  34
ATOM     34  O   UNL     1      -1.136   1.739  -0.937  0.00  0.00    -0.376 OA
ATOM     35  H   UNL     1      -1.849   2.387  -0.851  0.00  0.00    +0.211 HD
ENDBRANCH   6  34
TORSDOF 7
