REMARK  Name = ZINC15708115
REMARK  8 active torsions:
REMARK  status: ('A' for Active; 'I' for Inactive)
REMARK    1  A    between atoms: C_4  and  N_7
REMARK    2  A    between atoms: C_8  and  C_10
REMARK    3  A    between atoms: C_10  and  C_11
REMARK    4  A    between atoms: C_11  and  C_12
REMARK    5  A    between atoms: C_21  and  N_24
REMARK    6  A    between atoms: N_24  and  C_25
REMARK    7  A    between atoms: C_25  and  N_27
REMARK    8  A    between atoms: N_27  and  C_28
REMARK                            x       y       z     vdW  Elec       q    Type
REMARK                         _______ _______ _______ _____ _____    ______ ____
ROOT
ATOM      1  C   UNL     1       4.166   5.903  -1.668  0.00  0.00    -0.050 C 
ATOM      2  C   UNL     1       3.679   6.846  -2.777  0.00  0.00    +0.089 C 
ATOM      3  N   UNL     1       2.564   6.284  -3.527  0.00  0.00    -0.318 N 
ATOM      4  C   UNL     1       1.886   5.174  -3.173  0.00  0.00    +0.200 C 
ATOM      5  O   UNL     1       0.901   4.832  -3.792  0.00  0.00    -0.278 OA
ATOM      6  C   UNL     1       2.365   4.372  -2.008  0.00  0.00    +0.021 C 
ATOM      7  C   UNL     1       3.168   4.509   0.164  0.00  0.00    -0.055 C 
ATOM      8  C   UNL     1       1.830   3.726   0.269  0.00  0.00    +0.054 C 
ATOM      9  C   UNL     1       1.276   3.688  -1.180  0.00  0.00    +0.014 C 
ATOM     10  H   UNL     1       2.290   6.740  -4.338  0.00  0.00    +0.149 HD
ATOM     11  N   UNL     1       2.928   5.290  -1.066  0.00  0.00    +0.391 N 
ATOM     12  H   UNL     1       2.259   6.042  -0.859  0.00  0.00    -0.080 HD
ENDROOT
BRANCH   8  13
ATOM     13  N   UNL     1       0.898   4.426   1.155  0.00  0.00    -0.325 N 
ATOM     14  H   UNL     1       0.266   5.065   0.788  0.00  0.00    +0.148 HD
BRANCH  13  15
ATOM     15  C   UNL     1       0.917   4.184   2.481  0.00  0.00    +0.135 C 
ATOM     16  S   UNL     1       2.032   3.058   3.129  0.00  0.00    -0.019 S 
BRANCH  15  17
ATOM     17  N   UNL     1       0.059   4.829   3.296  0.00  0.00    -0.297 N 
ATOM     18  H   UNL     1      -0.625   5.406   2.922  0.00  0.00    +0.154 HD
BRANCH  17  19
ATOM     19  C   UNL     1       0.155   4.665   4.683  0.00  0.00    +0.033 A 
ATOM     20  C   UNL     1      -0.995   4.517   5.447  0.00  0.00    +0.023 A 
ATOM     21  C   UNL     1      -0.897   4.351   6.814  0.00  0.00    +0.002 A 
ATOM     22  C   UNL     1       0.344   4.343   7.424  0.00  0.00    +0.000 A 
ATOM     23  C   UNL     1       1.491   4.495   6.666  0.00  0.00    +0.002 A 
ATOM     24  C   UNL     1       1.400   4.656   5.298  0.00  0.00    +0.023 A 
ENDBRANCH  17  19
ENDBRANCH  15  17
ENDBRANCH  13  15
ENDBRANCH   8  13
BRANCH   1  25
ATOM     25  C   UNL     1       4.967   6.691  -0.629  0.00  0.00    -0.005 C 
BRANCH  25  26
ATOM     26  C   UNL     1       6.198   7.309  -1.296  0.00  0.00    +0.094 C 
BRANCH  26  28
ATOM     27  N   UNL     1       8.195   8.597  -0.609  0.00  0.00    -0.285 N 
ATOM     28  C   UNL     1       7.051   7.980  -0.251  0.00  0.00    +0.217 C 
ATOM     29  O   UNL     1       6.709   7.965   0.913  0.00  0.00    -0.275 OA
ATOM     30  H   UNL     1       8.438   8.661  -1.546  0.00  0.00    +0.155 HD
BRANCH  27  34
ATOM     31  C   UNL     1      10.685  10.226   2.307  0.00  0.00    +0.000 A 
ATOM     32  C   UNL     1       9.986   9.062   2.569  0.00  0.00    +0.002 A 
ATOM     33  C   UNL     1       9.159   8.520   1.604  0.00  0.00    +0.023 A 
ATOM     34  C   UNL     1       9.031   9.144   0.370  0.00  0.00    +0.033 A 
ATOM     35  C   UNL     1       9.739  10.310   0.109  0.00  0.00    +0.023 A 
ATOM     36  C   UNL     1      10.560  10.850   1.079  0.00  0.00    +0.002 A 
ENDBRANCH  27  34
ENDBRANCH  26  28
ENDBRANCH  25  26
ENDBRANCH   1  25
TORSDOF 8
