REMARK  Name = ZINC42736724
REMARK  11 active torsions:
REMARK  status: ('A' for Active; 'I' for Inactive)
REMARK    1  A    between atoms: C_1  and  C_2
REMARK    2  A    between atoms: C_2  and  C_4
REMARK    3  A    between atoms: C_2  and  N_8
REMARK    4  A    between atoms: C_4  and  C_5
REMARK    5  A    between atoms: C_4  and  C_6
REMARK    6  A    between atoms: C_4  and  C_7
REMARK    7  A    between atoms: N_8  and  C_9
REMARK    8  A    between atoms: N_8  and  C_10
REMARK    9  A    between atoms: C_10  and  C_11
REMARK   10  A    between atoms: N_13  and  C_14
REMARK   11  A    between atoms: C_15  and  N_22
REMARK                            x       y       z     vdW  Elec       q    Type
REMARK                         _______ _______ _______ _____ _____    ______ ____
ROOT
ATOM      1  C   UNL     1      -2.469  -1.499  -2.570  0.00  0.00    +0.201 C 
ATOM      2  O   UNL     1      -2.558  -1.200  -3.742  0.00  0.00    -0.278 OA
ATOM      3  N   UNL     1      -3.583  -1.721  -1.845  0.00  0.00    -0.284 N 
ATOM      4  H   UNL     1      -3.515  -1.903  -0.895  0.00  0.00    +0.155 HD
ENDROOT
BRANCH   3   5
ATOM      5  C   UNL     1      -4.841  -1.689  -2.465  0.00  0.00    +0.073 A 
ATOM      6  C   UNL     1      -5.425  -2.870  -2.922  0.00  0.00    +0.049 A 
ATOM      7  C   UNL     1      -6.669  -2.833  -3.534  0.00  0.00    +0.044 A 
ATOM      8  C   UNL     1      -7.328  -1.626  -3.689  0.00  0.00    +0.044 A 
ATOM      9  C   UNL     1      -6.748  -0.454  -3.235  0.00  0.00    +0.042 A 
ATOM     10  C   UNL     1      -5.510  -0.484  -2.619  0.00  0.00    +0.065 A 
ATOM     11 CL   UNL     1      -4.790   0.988  -2.046  0.00  0.00    -0.082 Cl
ATOM     12 CL   UNL     1      -8.885  -1.582  -4.455  0.00  0.00    -0.083 Cl
BRANCH   6  13
ATOM     13  N   UNL     1      -4.757  -4.090  -2.764  0.00  0.00    -0.356 N 
ATOM     14  H   UNL     1      -3.887  -4.114  -2.337  0.00  0.00    +0.142 HD
ATOM     15  H   UNL     1      -5.165  -4.910  -3.083  0.00  0.00    +0.142 HD
ENDBRANCH   6  13
ENDBRANCH   3   5
BRANCH   1  16
ATOM     16  C   UNL     1      -1.113  -1.623  -1.924  0.00  0.00    +0.019 C 
BRANCH  16  17
ATOM     17  N   UNL     1      -0.070  -1.334  -2.917  0.00  0.00    +0.386 N 
ATOM     18  C   UNL     1      -0.062  -2.388  -3.941  0.00  0.00    -0.095 C 
ATOM     19  H   UNL     1      -0.257  -0.443  -3.353  0.00  0.00    -0.081 HD
BRANCH  17  21
ATOM     20  C   UNL     1       1.811  -2.704  -2.152  0.00  0.00    -0.013 C 
ATOM     21  C   UNL     1       1.240  -1.288  -2.253  0.00  0.00    -0.066 C 
BRANCH  21  22
ATOM     22  C   UNL     1       2.194  -0.410  -3.066  0.00  0.00    -0.050 C 
ATOM     23  C   UNL     1       2.243  -0.912  -4.510  0.00  0.00    +0.009 C 
ATOM     24  C   UNL     1       1.697   1.037  -3.046  0.00  0.00    +0.009 C 
ATOM     25  C   UNL     1       3.595  -0.477  -2.454  0.00  0.00    +0.009 C 
ENDBRANCH  21  22
ENDBRANCH  17  21
ENDBRANCH  16  17
ENDBRANCH   1  16
TORSDOF 6
