REMARK  Name = ZINC13174412
REMARK  8 active torsions:
REMARK  status: ('A' for Active; 'I' for Inactive)
REMARK    1  A    between atoms: C_1  and  C_2
REMARK    2  A    between atoms: C_2  and  C_4
REMARK    3  A    between atoms: C_7  and  N_10
REMARK    4  A    between atoms: C_11  and  C_13
REMARK    5  A    between atoms: C_13  and  S_14
REMARK    6  A    between atoms: S_14  and  C_15
REMARK    7  A    between atoms: C_16  and  C_36
REMARK    8  A    between atoms: C_17  and  C_27
REMARK                            x       y       z     vdW  Elec       q    Type
REMARK                         _______ _______ _______ _____ _____    ______ ____
ROOT
ATOM      1  C   UNL     1       0.482  -7.364  -7.498  0.00  0.00    +0.080 C 
ATOM      2  C   UNL     1       0.597  -8.712  -7.637  0.00  0.00    +0.069 C 
ATOM      3  C   UNL     1       0.692  -9.345  -8.994  0.00  0.00    +0.097 C 
ATOM      4  C   UNL     1       1.077  -8.330 -10.041  0.00  0.00    +0.024 C 
ATOM      5  C   UNL     1       0.940  -7.008  -9.810  0.00  0.00    +0.016 C 
ATOM      6  N   UNL     1       0.455  -6.555  -8.611  0.00  0.00    -0.311 N 
ATOM      7  C   UNL     1       1.306  -5.992 -10.864  0.00  0.00    +0.051 C 
ATOM      8  C   UNL     1       2.449  -6.534 -11.725  0.00  0.00    +0.014 C 
ATOM      9  C   UNL     1       1.998  -7.856 -12.356  0.00  0.00    +0.080 C 
ATOM     10  C   UNL     1       1.582  -8.803 -11.265  0.00  0.00    +0.162 C 
ATOM     11  O   UNL     1       1.686 -10.001 -11.444  0.00  0.00    -0.292 OA
ATOM     12  H   UNL     1       0.093  -5.658  -8.544  0.00  0.00    +0.152 HD
ENDROOT
BRANCH   3  13
ATOM     13  C   UNL     1      -0.642  -9.944  -9.354  0.00  0.00    -0.031 A 
ATOM     14  C   UNL     1      -1.761  -9.137  -9.440  0.00  0.00    +0.008 A 
ATOM     15  C   UNL     1      -2.988  -9.682  -9.771  0.00  0.00    +0.050 A 
ATOM     16  C   UNL     1      -3.098 -11.041 -10.017  0.00  0.00    +0.166 A 
ATOM     17  C   UNL     1      -1.971 -11.854  -9.932  0.00  0.00    +0.167 A 
ATOM     18  C   UNL     1      -0.744 -11.300  -9.605  0.00  0.00    +0.054 A 
ATOM     19  O   UNL     1      -2.337 -13.138 -10.216  0.00  0.00    -0.453 OA
ATOM     20  C   UNL     1      -3.770 -13.169 -10.076  0.00  0.00    +0.466 C 
ATOM     21  O   UNL     1      -4.170 -11.815 -10.356  0.00  0.00    -0.453 OA
ENDBRANCH   3  13
BRANCH   2  22
ATOM     22  C   UNL     1       0.626  -9.540  -6.469  0.00  0.00    +0.098 C 
ATOM     23  N   UNL     1       0.649 -10.197  -5.543  0.00  0.00    -0.191 NA
ENDBRANCH   2  22
BRANCH   1  24
ATOM     24  S   UNL     1       0.361  -6.652  -5.890  0.00  0.00    -0.100 S 
BRANCH  24  25
ATOM     25  C   UNL     1       0.222  -4.872  -6.208  0.00  0.00    +0.171 C 
BRANCH  25  27
ATOM     26  N   UNL     1      -0.005  -2.792  -4.888  0.00  0.00    -0.285 N 
ATOM     27  C   UNL     1       0.110  -4.135  -4.898  0.00  0.00    +0.227 C 
ATOM     28  O   UNL     1       0.123  -4.750  -3.853  0.00  0.00    -0.275 OA
ATOM     29  H   UNL     1      -0.093  -2.306  -5.723  0.00  0.00    +0.155 HD
BRANCH  26  33
ATOM     30  C   UNL     1       0.017  -0.730  -1.275  0.00  0.00    +0.017 A 
ATOM     31  C   UNL     1       0.783  -1.893  -1.424  0.00  0.00    +0.013 A 
ATOM     32  C   UNL     1       0.772  -2.569  -2.617  0.00  0.00    +0.024 A 
ATOM     33  C   UNL     1       0.003  -2.101  -3.678  0.00  0.00    +0.033 A 
ATOM     34  C   UNL     1      -0.760  -0.945  -3.534  0.00  0.00    +0.024 A 
ATOM     35  C   UNL     1      -0.760  -0.266  -2.343  0.00  0.00    +0.013 A 
BRANCH  30  37
ATOM     36  C   UNL     1       0.862  -0.504   1.149  0.00  0.00    +0.091 C 
ATOM     37  C   UNL     1       0.025  -0.002   0.001  0.00  0.00    +0.160 C 
ATOM     38  O   UNL     1      -0.643   1.002   0.130  0.00  0.00    -0.292 OA
ENDBRANCH  30  37
ENDBRANCH  26  33
ENDBRANCH  25  27
ENDBRANCH  24  25
ENDBRANCH   1  24
TORSDOF 7
