REMARK  Name = ZINC54347730
REMARK  4 active torsions:
REMARK  status: ('A' for Active; 'I' for Inactive)
REMARK    1  A    between atoms: C_1  and  C_2
REMARK    2  A    between atoms: C_8  and  C_10
REMARK    3  A    between atoms: C_10  and  N_11
REMARK    4  A    between atoms: C_17  and  C_20
REMARK                            x       y       z     vdW  Elec       q    Type
REMARK                         _______ _______ _______ _____ _____    ______ ____
ROOT
ATOM      1  N   UNL     1       0.090  -6.792  -1.301  0.00  0.00    -0.215 N 
ATOM      2  C   UNL     1       1.217  -7.419  -0.903  0.00  0.00    +0.247 C 
ATOM      3  O   UNL     1       2.361  -7.072  -1.107  0.00  0.00    -0.273 OA
ATOM      4  C   UNL     1       0.753  -8.645  -0.150  0.00  0.00    +0.113 C 
ATOM      5  C   UNL     1       1.231  -8.593   1.297  0.00  0.00    +0.035 C 
ATOM      6  C   UNL     1       0.725  -9.827   2.048  0.00  0.00    +0.006 C 
ATOM      7  C   UNL     1       1.251 -11.090   1.365  0.00  0.00    -0.014 C 
ATOM      8  C   UNL     1       0.744 -11.140  -0.078  0.00  0.00    +0.006 C 
ATOM      9  C   UNL     1       1.250  -9.911  -0.838  0.00  0.00    +0.035 C 
ATOM     10  C   UNL     1       0.756 -12.324   2.122  0.00  0.00    +0.007 C 
ATOM     11  N   UNL     1      -0.712  -8.567  -0.211  0.00  0.00    -0.285 N 
ATOM     12  C   UNL     1      -1.006  -7.447  -0.900  0.00  0.00    +0.310 C 
ATOM     13  O   UNL     1      -2.139  -7.075  -1.134  0.00  0.00    -0.252 OA
ATOM     14  H   UNL     1      -1.344  -9.196   0.171  0.00  0.00    +0.151 HD
ENDROOT
BRANCH   1  15
ATOM     15  C   UNL     1       0.069  -5.546  -2.070  0.00  0.00    +0.214 C 
BRANCH  15  23
ATOM     16  C   UNL     1      -0.018   1.503   0.010  0.00  0.00    +0.092 C 
ATOM     17  C   UNL     1       0.002  -0.004   0.002  0.00  0.00    +0.170 A 
ATOM     18  N   UNL     1       0.008  -0.773  -1.090  0.00  0.00    -0.179 NA
ATOM     19  C   UNL     1       0.027  -2.040  -0.746  0.00  0.00    +0.321 A 
ATOM     20  O   UNL     1       0.034  -2.107   0.595  0.00  0.00    -0.317 OA
ATOM     21  N   UNL     1       0.023  -0.766   1.058  0.00  0.00    -0.060 NA
ATOM     22  N   UNL     1       0.038  -3.115  -1.612  0.00  0.00    -0.237 N 
ATOM     23  C   UNL     1       0.057  -4.372  -1.125  0.00  0.00    +0.238 C 
ATOM     24  O   UNL     1       0.066  -4.558   0.073  0.00  0.00    -0.274 OA
ATOM     25  H   UNL     1       0.031  -2.966  -2.570  0.00  0.00    +0.159 HD
ENDBRANCH  15  23
ENDBRANCH   1  15
TORSDOF 2
