REMARK  Name = ZINC36028036
REMARK  12 active torsions:
REMARK  status: ('A' for Active; 'I' for Inactive)
REMARK    1  A    between atoms: C_1  and  C_2
REMARK    2  A    between atoms: C_2  and  C_3
REMARK    3  A    between atoms: C_3  and  C_5
REMARK    4  A    between atoms: C_3  and  C_6
REMARK    5  A    between atoms: C_6  and  N_7
REMARK    6  A    between atoms: C_10  and  C_29
REMARK    7  A    between atoms: N_16  and  C_19
REMARK    8  A    between atoms: C_19  and  N_21
REMARK    9  A    between atoms: N_21  and  C_22
REMARK   10  A    between atoms: C_29  and  C_31
REMARK   11  A    between atoms: C_29  and  C_32
REMARK   12  A    between atoms: C_32  and  C_33
REMARK                            x       y       z     vdW  Elec       q    Type
REMARK                         _______ _______ _______ _____ _____    ______ ____
ROOT
ATOM      1  N   UNL     1       1.378  -2.719   2.319  0.00  0.00    -0.313 N 
ATOM      2  C   UNL     1       2.700  -2.853   2.549  0.00  0.00    +0.201 C 
ATOM      3  O   UNL     1       3.589  -2.514   1.797  0.00  0.00    -0.277 OA
ATOM      4  C   UNL     1       2.889  -3.500   3.905  0.00  0.00    +0.022 C 
ATOM      5  N   UNL     1       1.581  -3.341   4.585  0.00  0.00    +0.401 N 
ATOM      6  C   UNL     1       0.627  -3.248   3.461  0.00  0.00    +0.006 C 
ATOM      7  C   UNL     1      -0.514  -2.300   3.828  0.00  0.00    +0.025 C 
ATOM      8  C   UNL     1      -1.478  -2.183   2.643  0.00  0.00    +0.107 C 
ATOM      9  N   UNL     1      -1.906  -3.531   2.248  0.00  0.00    -0.312 N 
ATOM     10  C   UNL     1      -0.880  -4.539   1.946  0.00  0.00    +0.107 C 
ATOM     11  C   UNL     1       0.079  -4.636   3.137  0.00  0.00    +0.025 C 
ATOM     12  H   UNL     1       1.379  -4.145   5.160  0.00  0.00    -0.082 HD
ATOM     13  H   UNL     1       1.564  -2.494   5.133  0.00  0.00    -0.082 HD
ENDROOT
BRANCH   9  14
ATOM     14  C   UNL     1      -3.216  -3.839   2.163  0.00  0.00    +0.137 C 
ATOM     15  S   UNL     1      -4.396  -2.697   2.646  0.00  0.00    -0.018 S 
BRANCH  14  16
ATOM     16  N   UNL     1      -3.596  -5.046   1.699  0.00  0.00    -0.297 N 
ATOM     17  H   UNL     1      -3.964  -5.706   2.307  0.00  0.00    +0.154 HD
BRANCH  16  18
ATOM     18  C   UNL     1      -3.461  -5.346   0.339  0.00  0.00    +0.034 A 
ATOM     19  C   UNL     1      -2.840  -4.443  -0.515  0.00  0.00    +0.023 A 
ATOM     20  C   UNL     1      -2.708  -4.742  -1.856  0.00  0.00    +0.003 A 
ATOM     21  C   UNL     1      -3.192  -5.939  -2.351  0.00  0.00    +0.020 A 
ATOM     22  C   UNL     1      -3.811  -6.841  -1.504  0.00  0.00    +0.043 A 
ATOM     23  C   UNL     1      -3.941  -6.550  -0.158  0.00  0.00    +0.043 A 
ATOM     24 CL   UNL     1      -4.419  -8.342  -2.129  0.00  0.00    -0.083 Cl
ENDBRANCH  16  18
ENDBRANCH  14  16
ENDBRANCH   9  14
BRANCH   4  25
ATOM     25  C   UNL     1       3.990  -2.782   4.689  0.00  0.00    -0.020 C 
ATOM     26  C   UNL     1       4.138  -3.428   6.068  0.00  0.00    +0.006 C 
BRANCH  25  27
ATOM     27  C   UNL     1       5.313  -2.894   3.929  0.00  0.00    -0.001 C 
ATOM     28  C   UNL     1       6.385  -2.072   4.647  0.00  0.00    +0.004 C 
ENDBRANCH  25  27
ENDBRANCH   4  25
BRANCH   1  29
ATOM     29  C   UNL     1       0.784  -2.131   1.116  0.00  0.00    +0.109 C 
BRANCH  29  30
ATOM     30  C   UNL     1       0.947  -0.610   1.158  0.00  0.00    +0.003 C 
ATOM     31  C   UNL     1       0.418  -0.078   2.492  0.00  0.00    +0.009 C 
BRANCH  30  33
ATOM     32  C   UNL     1       0.420   1.526  -0.025  0.00  0.00    +0.004 C 
ATOM     33  C   UNL     1       0.158   0.019   0.009  0.00  0.00    +0.001 C 
ENDBRANCH  30  33
ENDBRANCH  29  30
ENDBRANCH   1  29
TORSDOF 8
