REMARK  Name = ZINC37856289
REMARK  7 active torsions:
REMARK  status: ('A' for Active; 'I' for Inactive)
REMARK    1  A    between atoms: C_1  and  C_2
REMARK    2  A    between atoms: C_5  and  O_19
REMARK    3  A    between atoms: C_6  and  N_8
REMARK    4  A    between atoms: N_8  and  S_9
REMARK    5  A    between atoms: S_9  and  C_12
REMARK    6  A    between atoms: C_13  and  C_18
REMARK    7  A    between atoms: O_19  and  C_20
REMARK                            x       y       z     vdW  Elec       q    Type
REMARK                         _______ _______ _______ _____ _____    ______ ____
ROOT
ATOM      1  N   UNL     1       0.052  -2.794   2.398  0.00  0.00    -0.212 N 
ATOM      2  H   UNL     1       0.598  -3.592   2.474  0.00  0.00    +0.174 HD
ENDROOT
BRANCH   1   8
ATOM      3  C   UNL     1      -0.513   1.287  -0.285  0.00  0.00    +0.044 C 
ATOM      4  C   UNL     1      -0.410  -0.213  -0.181  0.00  0.00    -0.048 A 
ATOM      5  C   UNL     1      -0.498  -0.991  -1.321  0.00  0.00    +0.007 A 
ATOM      6  C   UNL     1      -0.404  -2.368  -1.233  0.00  0.00    +0.048 A 
ATOM      7  C   UNL     1      -0.221  -2.972   0.000  0.00  0.00    +0.142 A 
ATOM      8  C   UNL     1      -0.132  -2.189   1.149  0.00  0.00    +0.090 A 
ATOM      9  C   UNL     1      -0.222  -0.808   1.052  0.00  0.00    +0.031 A 
BRANCH   7  10
ATOM     10  O   UNL     1      -0.128  -4.326   0.089  0.00  0.00    -0.493 OA
ATOM     11  C   UNL     1      -0.229  -5.064  -1.131  0.00  0.00    +0.277 C 
ENDBRANCH   7  10
ENDBRANCH   1   8
BRANCH   1  12
ATOM     12  S   UNL     1      -0.663  -2.148   3.745  0.00  0.00    +0.081 S 
ATOM     13  O   UNL     1      -0.403  -3.047   4.814  0.00  0.00    -0.149 OA
ATOM     14  O   UNL     1      -0.280  -0.780   3.790  0.00  0.00    -0.149 OA
BRANCH  12  15
ATOM     15  C   UNL     1      -2.404  -2.175   3.475  0.00  0.00    +0.171 A 
ATOM     16  C   UNL     1      -3.410  -1.752   4.278  0.00  0.00    +0.076 A 
ATOM     17  N   UNL     1      -4.641  -1.893   3.822  0.00  0.00    -0.206 NA
ATOM     18  C   UNL     1      -4.872  -2.421   2.640  0.00  0.00    +0.312 A 
ATOM     19  O   UNL     1      -6.064  -2.633   2.031  0.00  0.00    -0.258 OA
ATOM     20  S   UNL     1      -3.328  -2.761   2.064  0.00  0.00    -0.004 S 
ATOM     21  C   UNL     1      -3.135  -1.149   5.631  0.00  0.00    +0.068 C 
ENDBRANCH  12  15
ENDBRANCH   1  12
TORSDOF 4
