REMARK  Name = ZINC66392888
REMARK  12 active torsions:
REMARK  status: ('A' for Active; 'I' for Inactive)
REMARK    1  A    between atoms: C_1  and  C_2
REMARK    2  A    between atoms: C_2  and  C_4
REMARK    3  A    between atoms: C_2  and  N_11
REMARK    4  A    between atoms: N_6  and  C_7
REMARK    5  A    between atoms: C_7  and  C_8
REMARK    6  A    between atoms: C_8  and  C_9
REMARK    7  A    between atoms: C_8  and  C_10
REMARK    8  A    between atoms: N_11  and  C_12
REMARK    9  A    between atoms: C_12  and  C_13
REMARK   10  A    between atoms: C_13  and  C_19
REMARK   11  A    between atoms: C_22  and  O_25
REMARK   12  A    between atoms: O_25  and  C_26
REMARK                            x       y       z     vdW  Elec       q    Type
REMARK                         _______ _______ _______ _____ _____    ______ ____
ROOT
ATOM      1  C   UNL     1       2.298   0.116  -1.164  0.00  0.00    -0.070 C 
ENDROOT
BRANCH   1   2
ATOM      2  C   UNL     1       2.706  -0.554  -2.478  0.00  0.00    -0.015 C 
ATOM      3  C   UNL     1       2.297  -2.030  -2.449  0.00  0.00    +0.038 C 
ATOM      4  C   UNL     1       3.055  -2.740  -1.324  0.00  0.00    +0.160 C 
ATOM      5  O   UNL     1       4.461  -2.588  -1.528  0.00  0.00    -0.380 OA
ATOM      6  C   UNL     1       4.908  -1.231  -1.517  0.00  0.00    +0.160 C 
ATOM      7  C   UNL     1       4.225  -0.460  -2.650  0.00  0.00    +0.038 C 
BRANCH   2   8
ATOM      8  C   UNL     1       2.024   0.137  -3.630  0.00  0.00    -0.043 A 
ATOM      9  C   UNL     1       1.093   1.130  -3.386  0.00  0.00    +0.008 A 
ATOM     10  C   UNL     1       0.466   1.765  -4.440  0.00  0.00    +0.046 A 
ATOM     11  C   UNL     1       0.772   1.407  -5.745  0.00  0.00    +0.120 A 
ATOM     12  C   UNL     1       1.706   0.410  -5.987  0.00  0.00    +0.046 A 
ATOM     13  C   UNL     1       2.334  -0.218  -4.930  0.00  0.00    +0.008 A 
BRANCH  11  14
ATOM     14  O   UNL     1       0.156   2.030  -6.784  0.00  0.00    -0.495 OA
ATOM     15  C   UNL     1       0.520   1.609  -8.100  0.00  0.00    +0.277 C 
ENDBRANCH  11  14
ENDBRANCH   2   8
ENDBRANCH   1   2
BRANCH   1  16
ATOM     16  N   UNL     1       2.816   1.490  -1.134  0.00  0.00    +0.387 N 
ATOM     17  H   UNL     1       2.504   1.985  -1.956  0.00  0.00    -0.085 HD
ATOM     18  H   UNL     1       3.824   1.469  -1.116  0.00  0.00    -0.085 HD
BRANCH  16  20
ATOM     19  C   UNL     1       2.892   1.498   1.314  0.00  0.00    -0.004 C 
ATOM     20  C   UNL     1       2.318   2.174   0.067  0.00  0.00    +0.013 C 
BRANCH  20  21
ATOM     21  C   UNL     1       2.748   3.618   0.037  0.00  0.00    +0.199 C 
ATOM     22  O   UNL     1       3.404   4.036  -0.894  0.00  0.00    -0.278 OA
ATOM     23  N   UNL     1       2.403   4.445   1.044  0.00  0.00    -0.316 N 
ATOM     24  H   UNL     1       1.879   4.111   1.788  0.00  0.00    +0.149 HD
BRANCH  23  25
ATOM     25  C   UNL     1       2.821   5.849   1.014  0.00  0.00    +0.107 C 
BRANCH  25  26
ATOM     26  C   UNL     1       2.303   6.562   2.265  0.00  0.00    -0.000 C 
ATOM     27  C   UNL     1       2.973   5.966   3.505  0.00  0.00    +0.009 C 
ATOM     28  C   UNL     1       2.631   8.053   2.175  0.00  0.00    +0.009 C 
ENDBRANCH  25  26
ENDBRANCH  23  25
ENDBRANCH  20  21
ENDBRANCH  16  20
ENDBRANCH   1  16
TORSDOF 8
