REMARK  Name = ZINC50593402
REMARK  5 active torsions:
REMARK  status: ('A' for Active; 'I' for Inactive)
REMARK    1  A    between atoms: C_1  and  C_2
REMARK    2  A    between atoms: C_4  and  C_20
REMARK    3  A    between atoms: N_5  and  C_7
REMARK    4  A    between atoms: C_10  and  C_17
REMARK    5  A    between atoms: C_11  and  C_13
REMARK                            x       y       z     vdW  Elec       q    Type
REMARK                         _______ _______ _______ _____ _____    ______ ____
ROOT
ATOM      1  C   UNL     1       0.229  -3.333   1.410  0.00  0.00    +0.066 A 
ATOM      2  C   UNL     1      -0.340  -4.505   0.921  0.00  0.00    +0.028 A 
ATOM      3  C   UNL     1      -0.384  -5.632   1.711  0.00  0.00    +0.014 A 
ATOM      4  C   UNL     1       0.144  -5.599   3.003  0.00  0.00    +0.024 A 
ATOM      5  C   UNL     1       0.715  -4.421   3.491  0.00  0.00    +0.067 A 
ATOM      6  C   UNL     1       0.760  -3.298   2.695  0.00  0.00    +0.040 A 
ENDROOT
BRANCH   1  11
ATOM      7  C   UNL     1       1.895   0.782  -0.793  0.00  0.00    +0.069 C 
ATOM      8  C   UNL     1       1.021  -0.368  -0.364  0.00  0.00    +0.075 A 
ATOM      9  C   UNL     1      -0.290  -0.604  -0.794  0.00  0.00    +0.062 A 
ATOM     10  C   UNL     1      -0.732  -1.730  -0.186  0.00  0.00    +0.056 A 
ATOM     11  N   UNL     1       0.272  -2.190   0.606  0.00  0.00    -0.236 N 
ATOM     12  N   UNL     1       1.360  -1.318   0.469  0.00  0.00    -0.170 NA
ATOM     13  C   UNL     1      -2.091  -2.358  -0.355  0.00  0.00    +0.067 C 
ATOM     14 BR   UNL     1      -1.272   0.461  -2.010  0.00  0.00    -0.047 Br
ENDBRANCH   1  11
BRANCH   4  15
ATOM     15  C   UNL     1       0.099  -6.807   3.854  0.00  0.00    +0.095 C 
ATOM     16  N   UNL     1      -0.527  -6.771   5.029  0.00  0.00    -0.387 N 
ATOM     17  N   UNL     1       0.683  -7.932   3.444  0.00  0.00    -0.345 N 
ATOM     18  H   UNL     1      -1.026  -5.981   5.289  0.00  0.00    +0.157 HD
ATOM     19  H   UNL     1       1.138  -7.958   2.588  0.00  0.00    +0.144 HD
ATOM     20  H   UNL     1       0.653  -8.725   4.002  0.00  0.00    +0.144 HD
ATOM     21  H   UNL     1      -0.484  -7.535   5.625  0.00  0.00    +0.157 HD
ENDBRANCH   4  15
BRANCH   5  22
ATOM     22  C   UNL     1       1.285  -4.381   4.886  0.00  0.00    +0.418 C 
ATOM     23  F   UNL     1       1.919  -3.151   5.094  0.00  0.00    -0.166 F 
ATOM     24  F   UNL     1       0.252  -4.536   5.816  0.00  0.00    -0.166 F 
ATOM     25  F   UNL     1       2.212  -5.417   5.040  0.00  0.00    -0.166 F 
ENDBRANCH   5  22
TORSDOF 3
