REMARK  Name = ZINC47203415
REMARK  7 active torsions:
REMARK  status: ('A' for Active; 'I' for Inactive)
REMARK    1  A    between atoms: C_4  and  C_7
REMARK    2  A    between atoms: N_9  and  N_23
REMARK    3  A    between atoms: C_10  and  S_12
REMARK    4  A    between atoms: S_12  and  C_13
REMARK    5  A    between atoms: C_13  and  C_14
REMARK    6  A    between atoms: C_14  and  S_15
REMARK    7  A    between atoms: S_15  and  C_17
REMARK                            x       y       z     vdW  Elec       q    Type
REMARK                         _______ _______ _______ _____ _____    ______ ____
ROOT
ATOM      1  C   UNL     1       3.698  -0.688  -0.037  0.00  0.00    +0.092 A 
ATOM      2  C   UNL     1       3.862  -2.034  -0.052  0.00  0.00    +0.138 A 
ATOM      3  N   UNL     1       5.215  -2.272  -0.065  0.00  0.00    -0.251 N 
ATOM      4  C   UNL     1       5.840  -1.062  -0.058  0.00  0.00    +0.186 A 
ATOM      5  N   UNL     1       4.929  -0.118  -0.047  0.00  0.00    -0.221 NA
ENDROOT
BRANCH   1   9
ATOM      6  C   UNL     1      -0.017   1.379   0.010  0.00  0.00    +0.000 A 
ATOM      7  C   UNL     1       1.169   2.092   0.002  0.00  0.00    +0.001 A 
ATOM      8  C   UNL     1       2.377   1.426  -0.013  0.00  0.00    +0.010 A 
ATOM      9  C   UNL     1       2.402   0.033  -0.021  0.00  0.00    +0.002 A 
ATOM     10  C   UNL     1       1.205  -0.680  -0.013  0.00  0.00    +0.010 A 
ATOM     11  C   UNL     1       0.002  -0.004   0.002  0.00  0.00    +0.001 A 
ENDBRANCH   1   9
BRANCH   3  12
ATOM     12  N   UNL     1       5.822  -3.495  -0.082  0.00  0.00    -0.296 N 
ATOM     13  H   UNL     1       5.976  -3.810  -1.028  0.00  0.00    +0.163 HD
ATOM     14  H   UNL     1       6.687  -3.477   0.438  0.00  0.00    +0.163 HD
ENDBRANCH   3  12
BRANCH   4  15
ATOM     15  S   UNL     1       7.583  -0.806  -0.069  0.00  0.00    -0.085 S 
BRANCH  15  16
ATOM     16  C   UNL     1       7.762   0.999  -0.053  0.00  0.00    +0.091 C 
BRANCH  16  17
ATOM     17  C   UNL     1       9.248   1.365  -0.061  0.00  0.00    +0.120 C 
BRANCH  17  18
ATOM     18  S   UNL     1       9.426   3.170  -0.045  0.00  0.00    +0.055 S 
ATOM     19  O   UNL     1       9.012   3.676   1.217  0.00  0.00    -0.252 OA
BRANCH  18  20
ATOM     20  C   UNL     1      11.170   3.426  -0.056  0.00  0.00    +0.039 A 
ATOM     21  C   UNL     1      11.863   3.509   1.137  0.00  0.00    +0.017 A 
ATOM     22  C   UNL     1      13.231   3.710   1.129  0.00  0.00    +0.001 A 
ATOM     23  C   UNL     1      13.905   3.826  -0.072  0.00  0.00    +0.000 A 
ATOM     24  C   UNL     1      13.212   3.742  -1.265  0.00  0.00    +0.001 A 
ATOM     25  C   UNL     1      11.845   3.537  -1.257  0.00  0.00    +0.017 A 
ENDBRANCH  18  20
ENDBRANCH  17  18
ENDBRANCH  16  17
ENDBRANCH  15  16
ENDBRANCH   4  15
TORSDOF 7
