REMARK  Name = ZINC51661885
REMARK  8 active torsions:
REMARK  status: ('A' for Active; 'I' for Inactive)
REMARK    1  A    between atoms: C_1  and  C_2
REMARK    2  A    between atoms: C_2  and  N_3
REMARK    3  A    between atoms: C_4  and  C_6
REMARK    4  A    between atoms: C_6  and  N_7
REMARK    5  A    between atoms: N_7  and  C_8
REMARK    6  A    between atoms: N_14  and  C_17
REMARK    7  A    between atoms: C_17  and  C_19
REMARK    8  A    between atoms: C_17  and  C_20
REMARK                            x       y       z     vdW  Elec       q    Type
REMARK                         _______ _______ _______ _____ _____    ______ ____
ROOT
ATOM      1  N   UNL     1      -3.284  -3.819  -2.317  0.00  0.00    -0.280 N 
ATOM      2  C   UNL     1      -3.666  -4.529  -3.540  0.00  0.00    +0.134 C 
ATOM      3  C   UNL     1      -3.005  -4.511  -1.194  0.00  0.00    +0.305 C 
ATOM      4  O   UNL     1      -2.880  -3.926  -0.136  0.00  0.00    -0.252 OA
ATOM      5  N   UNL     1      -2.865  -5.850  -1.246  0.00  0.00    -0.289 N 
ATOM      6  C   UNL     1      -2.936  -6.665  -0.024  0.00  0.00    +0.091 C 
ATOM      7  C   UNL     1      -1.714  -7.590   0.015  0.00  0.00    -0.058 C 
ATOM      8  N   UNL     1      -1.651  -8.367  -1.229  0.00  0.00    +0.391 N 
ATOM      9  C   UNL     1      -1.430  -7.469  -2.369  0.00  0.00    -0.058 C 
ATOM     10  C   UNL     1      -2.643  -6.539  -2.527  0.00  0.00    +0.091 C 
ATOM     11  H   UNL     1      -2.519  -8.865  -1.358  0.00  0.00    -0.081 HD
ENDROOT
BRANCH   8  12
ATOM     12  C   UNL     1      -0.545  -9.331  -1.146  0.00  0.00    +0.044 C 
ATOM     13  C   UNL     1      -0.477 -10.142  -2.442  0.00  0.00    -0.002 C 
BRANCH  12  14
ATOM     14  C   UNL     1      -0.775 -10.261   0.017  0.00  0.00    +0.343 C 
ATOM     15  O   UNL     1      -1.912 -10.531   0.366  0.00  0.00    -0.248 OA
ATOM     16  O   UNL     1       0.175 -10.743   0.609  0.00  0.00    -0.248 OA
ENDBRANCH  12  14
ENDBRANCH   8  12
BRANCH   1  17
ATOM     17  C   UNL     1      -3.205  -2.356  -2.314  0.00  0.00    +0.204 C 
BRANCH  17  19
ATOM     18  N   UNL     1      -4.709  -0.445  -1.860  0.00  0.00    -0.314 N 
ATOM     19  C   UNL     1      -4.544  -1.781  -1.929  0.00  0.00    +0.230 C 
ATOM     20  O   UNL     1      -5.472  -2.521  -1.681  0.00  0.00    -0.274 OA
ATOM     21  H   UNL     1      -3.966   0.146  -2.058  0.00  0.00    +0.149 HD
BRANCH  18  23
ATOM     22  C   UNL     1      -5.928   1.641  -1.483  0.00  0.00    +0.024 C 
ATOM     23  C   UNL     1      -6.010   0.114  -1.485  0.00  0.00    +0.101 C 
ENDBRANCH  18  23
ENDBRANCH  17  19
ENDBRANCH   1  17
TORSDOF 5
