REMARK  Name = ZINC42398069
REMARK  9 active torsions:
REMARK  status: ('A' for Active; 'I' for Inactive)
REMARK    1  A    between atoms: C_1  and  N_2
REMARK    2  A    between atoms: N_2  and  C_3
REMARK    3  A    between atoms: N_2  and  C_14
REMARK    4  A    between atoms: C_3  and  C_4
REMARK    5  A    between atoms: C_4  and  C_5
REMARK    6  A    between atoms: C_5  and  O_6
REMARK    7  A    between atoms: O_6  and  C_7
REMARK    8  A    between atoms: C_11  and  N_13
REMARK    9  A    between atoms: C_14  and  C_15
REMARK                            x       y       z     vdW  Elec       q    Type
REMARK                         _______ _______ _______ _____ _____    ______ ____
ROOT
ATOM      1  C   UNL     1       2.159  -0.053  -1.157  0.00  0.00    +0.022 C 
ENDROOT
BRANCH   1   2
ATOM      2  C   UNL     1       0.690  -0.478  -1.207  0.00  0.00    -0.075 C 
BRANCH   2   4
ATOM      3  C   UNL     1      -0.018   1.465   0.010  0.00  0.00    -0.096 C 
ATOM      4  N   UNL     1       0.002  -0.004   0.002  0.00  0.00    +0.381 N 
ATOM      5  H   UNL     1       0.490  -0.338   0.820  0.00  0.00    -0.082 HD
BRANCH   4   6
ATOM      6  C   UNL     1      -1.376  -0.512   0.012  0.00  0.00    -0.036 C 
BRANCH   6   7
ATOM      7  C   UNL     1      -2.043  -0.130   1.309  0.00  0.00    -0.026 A 
ATOM      8  C   UNL     1      -2.760   0.982   1.604  0.00  0.00    +0.024 A 
ATOM      9  C   UNL     1      -3.285   1.123   2.875  0.00  0.00    +0.025 A 
ATOM     10  C   UNL     1      -3.067   0.145   3.789  0.00  0.00    +0.060 A 
ATOM     11  S   UNL     1      -2.100  -1.027   2.851  0.00  0.00    -0.102 S 
ATOM     12 BR   UNL     1      -4.291   2.657   3.334  0.00  0.00    -0.050 Br
ENDBRANCH   6   7
ENDBRANCH   4   6
ENDBRANCH   2   4
ENDBRANCH   1   2
BRANCH   1  13
ATOM     13  C   UNL     1       2.875  -0.547  -2.416  0.00  0.00    +0.227 C 
BRANCH  13  14
ATOM     14  O   UNL     1       4.247  -0.150  -2.370  0.00  0.00    -0.492 OA
BRANCH  14  15
ATOM     15  C   UNL     1       5.029  -0.512  -3.420  0.00  0.00    +0.122 A 
ATOM     16  C   UNL     1       4.485  -1.229  -4.477  0.00  0.00    +0.046 A 
ATOM     17  C   UNL     1       5.280  -1.598  -5.546  0.00  0.00    +0.005 A 
ATOM     18  C   UNL     1       6.617  -1.254  -5.567  0.00  0.00    +0.023 A 
ATOM     19  C   UNL     1       7.168  -0.536  -4.512  0.00  0.00    +0.028 A 
ATOM     20  C   UNL     1       6.370  -0.160  -3.440  0.00  0.00    +0.068 A 
BRANCH  19  21
ATOM     21  N   UNL     1       8.520  -0.189  -4.533  0.00  0.00    -0.358 N 
ATOM     22  H   UNL     1       9.076  -0.449  -5.284  0.00  0.00    +0.142 HD
ATOM     23  H   UNL     1       8.904   0.312  -3.796  0.00  0.00    +0.142 HD
ENDBRANCH  19  21
ENDBRANCH  14  15
ENDBRANCH  13  14
ENDBRANCH   1  13
TORSDOF 8
