REMARK  Name = ZINC50200780
REMARK  3 active torsions:
REMARK  status: ('A' for Active; 'I' for Inactive)
REMARK    1  A    between atoms: C_3  and  N_11
REMARK    2  A    between atoms: C_4  and  C_8
REMARK    3  A    between atoms: C_12  and  C_14
REMARK                            x       y       z     vdW  Elec       q    Type
REMARK                         _______ _______ _______ _____ _____    ______ ____
ROOT
ATOM      1  C   UNL     1      -0.026   1.012  -0.649  0.00  0.00    +0.017 A 
ATOM      2  C   UNL     1       1.124   1.776  -0.655  0.00  0.00    +0.025 A 
ATOM      3  C   UNL     1       2.273   1.309  -0.031  0.00  0.00    +0.048 A 
ATOM      4  C   UNL     1       2.258   0.056   0.606  0.00  0.00    +0.085 A 
ATOM      5  C   UNL     1       1.085  -0.705   0.604  0.00  0.00    +0.032 A 
ATOM      6  C   UNL     1      -0.045  -0.224  -0.021  0.00  0.00    +0.019 A 
ATOM      7 BR   UNL     1      -1.630  -1.255  -0.022  0.00  0.00    -0.050 Br
ENDROOT
BRANCH   3   8
ATOM      8  N   UNL     1       3.433   2.076  -0.037  0.00  0.00    -0.278 N 
ATOM      9  C   UNL     1       3.354   3.415  -0.167  0.00  0.00    +0.286 C 
ATOM     10  O   UNL     1       2.267   3.963  -0.176  0.00  0.00    -0.266 OA
ATOM     11  H   UNL     1       4.298   1.647   0.052  0.00  0.00    +0.155 HD
BRANCH   9  12
ATOM     12  C   UNL     1       4.575   4.211  -0.297  0.00  0.00    +0.217 C 
ATOM     13  C   UNL     1       5.764   3.591  -0.290  0.00  0.00    +0.238 C 
ATOM     14  O   UNL     1       6.921   4.277  -0.400  0.00  0.00    -0.492 OA
ATOM     15  C   UNL     1       6.832   5.618  -0.896  0.00  0.00    +0.269 C 
ATOM     16  C   UNL     1       5.671   6.317  -0.174  0.00  0.00    +0.270 C 
ATOM     17  O   UNL     1       4.477   5.563  -0.427  0.00  0.00    -0.481 OA
ENDBRANCH   9  12
ENDBRANCH   3   8
BRANCH   4  18
ATOM     18  C   UNL     1       3.469  -0.451   1.270  0.00  0.00    +0.388 C 
ATOM     19  O   UNL     1       3.482  -1.581   1.739  0.00  0.00    -0.241 OA
ATOM     20  O   UNL     1       4.463   0.258   1.353  0.00  0.00    -0.241 OA
ENDBRANCH   4  18
TORSDOF 3
