REMARK  Name = ZINC19894553
REMARK  10 active torsions:
REMARK  status: ('A' for Active; 'I' for Inactive)
REMARK    1  A    between atoms: C_1  and  O_2
REMARK    2  A    between atoms: O_2  and  C_3
REMARK    3  A    between atoms: C_6  and  C_9
REMARK    4  A    between atoms: C_10  and  C_25
REMARK    5  A    between atoms: C_12  and  N_14
REMARK    6  A    between atoms: C_15  and  C_16
REMARK    7  A    between atoms: C_19  and  O_23
REMARK    8  A    between atoms: C_21  and  O_22
REMARK    9  A    between atoms: O_23  and  C_24
REMARK   10  A    between atoms: C_28  and  N_31
REMARK                            x       y       z     vdW  Elec       q    Type
REMARK                         _______ _______ _______ _____ _____    ______ ____
ROOT
ATOM      1  C   UNL     1      -6.537   5.184   0.895  0.00  0.00    +0.088 A 
ATOM      2  C   UNL     1      -7.265   4.386  -0.138  0.00  0.00    +0.049 A 
ATOM      3  S   UNL     1      -5.942   3.633  -0.974  0.00  0.00    -0.047 S 
ATOM      4  C   UNL     1      -4.609   4.334  -0.017  0.00  0.00    +0.194 A 
ATOM      5  N   UNL     1      -5.244   5.097   0.886  0.00  0.00    -0.221 NA
ENDROOT
BRANCH   1   9
ATOM      6  C   UNL     1      -8.589   7.584   3.711  0.00  0.00    +0.120 A 
ATOM      7  C   UNL     1      -9.076   6.317   3.392  0.00  0.00    +0.046 A 
ATOM      8  C   UNL     1      -8.420   5.539   2.485  0.00  0.00    +0.013 A 
ATOM      9  C   UNL     1      -7.249   6.016   1.871  0.00  0.00    +0.002 A 
ATOM     10  C   UNL     1      -6.759   7.292   2.200  0.00  0.00    +0.013 A 
ATOM     11  C   UNL     1      -7.428   8.063   3.105  0.00  0.00    +0.046 A 
BRANCH   6  13
ATOM     12  C   UNL     1      -8.693   9.640   4.893  0.00  0.00    +0.277 C 
ATOM     13  O   UNL     1      -9.246   8.353   4.613  0.00  0.00    -0.495 OA
ENDBRANCH   6  13
ENDBRANCH   1   9
BRANCH   2  14
ATOM     14  C   UNL     1      -8.656   4.275  -0.372  0.00  0.00    -0.009 A 
ATOM     15  C   UNL     1      -9.468   5.427  -0.385  0.00  0.00    +0.011 A 
ATOM     16  C   UNL     1     -10.809   5.308  -0.617  0.00  0.00    +0.033 A 
ATOM     17  C   UNL     1     -11.373   4.059  -0.829  0.00  0.00    +0.126 A 
ATOM     18  C   UNL     1     -10.585   2.917  -0.814  0.00  0.00    +0.033 A 
ATOM     19  C   UNL     1      -9.241   3.012  -0.589  0.00  0.00    +0.011 A 
BRANCH  17  20
ATOM     20  N   UNL     1     -12.829   3.942  -1.073  0.00  0.00    +0.056 N 
ATOM     21  O   UNL     1     -13.370   2.759  -1.275  0.00  0.00    -0.126 OA
ATOM     22  O   UNL     1     -13.582   5.023  -1.089  0.00  0.00    -0.126 OA
ENDBRANCH  17  20
ENDBRANCH   2  14
BRANCH   4  23
ATOM     23  N   UNL     1      -3.299   4.143  -0.161  0.00  0.00    -0.229 NA
ATOM     24  C   UNL     1      -2.448   4.753   0.649  0.00  0.00    +0.125 C 
BRANCH  24  25
ATOM     25  C   UNL     1      -1.061   4.550   0.497  0.00  0.00    +0.035 A 
ATOM     26  C   UNL     1      -0.151   5.196   1.356  0.00  0.00    +0.016 A 
ATOM     27  C   UNL     1       1.187   4.998   1.205  0.00  0.00    +0.046 A 
ATOM     28  C   UNL     1       1.669   4.154   0.201  0.00  0.00    +0.124 A 
ATOM     29  C   UNL     1       0.789   3.506  -0.657  0.00  0.00    +0.091 A 
ATOM     30  C   UNL     1      -0.574   3.699  -0.524  0.00  0.00    +0.129 A 
BRANCH  30  31
ATOM     31  O   UNL     1      -1.436   3.075  -1.361  0.00  0.00    -0.506 OA
ATOM     32  H   UNL     1      -1.053   2.415  -2.154  0.00  0.00    +0.292 HD
ENDBRANCH  30  31
BRANCH  28  33
ATOM     33  O   UNL     1       3.004   3.965   0.063  0.00  0.00    -0.495 OA
ATOM     34  C   UNL     1       3.854   4.660   0.977  0.00  0.00    +0.277 C 
ENDBRANCH  28  33
ENDBRANCH  24  25
ENDBRANCH   4  23
TORSDOF 8
