REMARK  Name = ZINC51144083
REMARK  10 active torsions:
REMARK  status: ('A' for Active; 'I' for Inactive)
REMARK    1  A    between atoms: C_1  and  N_2
REMARK    2  A    between atoms: N_2  and  C_3
REMARK    3  A    between atoms: C_4  and  C_6
REMARK    4  A    between atoms: C_6  and  N_7
REMARK    5  A    between atoms: N_7  and  C_8
REMARK    6  A    between atoms: N_7  and  C_9
REMARK    7  A    between atoms: C_9  and  C_10
REMARK    8  A    between atoms: C_12  and  N_18
REMARK    9  A    between atoms: C_15  and  N_16
REMARK   10  A    between atoms: N_16  and  N_17
REMARK                            x       y       z     vdW  Elec       q    Type
REMARK                         _______ _______ _______ _____ _____    ______ ____
ROOT
ATOM      1  C   UNL     1      -3.882  -4.679   0.168  0.00  0.00    -0.040 A 
ATOM      2  C   UNL     1      -4.435  -5.360  -0.899  0.00  0.00    +0.036 A 
ATOM      3  C   UNL     1      -5.726  -5.848  -0.815  0.00  0.00    +0.126 A 
ATOM      4  C   UNL     1      -6.468  -5.657   0.337  0.00  0.00    +0.034 A 
ATOM      5  C   UNL     1      -5.920  -4.977   1.407  0.00  0.00    +0.026 A 
ATOM      6  C   UNL     1      -4.622  -4.490   1.328  0.00  0.00    +0.042 A 
ENDROOT
BRANCH   3   7
ATOM      7  N   UNL     1      -6.316  -6.577  -1.960  0.00  0.00    +0.056 N 
ATOM      8  O   UNL     1      -5.669  -6.745  -2.968  0.00  0.00    -0.126 OA
ATOM      9  O   UNL     1      -7.444  -7.004  -1.889  0.00  0.00    -0.126 OA
ENDBRANCH   3   7
BRANCH   6  10
ATOM     10  N   UNL     1      -4.063  -3.808   2.411  0.00  0.00    -0.283 N 
ATOM     11  H   UNL     1      -3.133  -3.535   2.385  0.00  0.00    +0.166 HD
BRANCH  10  12
ATOM     12  N   UNL     1      -4.827  -3.524   3.507  0.00  0.00    -0.257 NA
ATOM     13  H   UNL     1      -4.290  -3.030   4.204  0.00  0.00    +0.140 HD
ATOM     14  H   UNL     1      -5.651  -3.002   3.249  0.00  0.00    +0.140 HD
ENDBRANCH  10  12
ENDBRANCH   6  10
BRANCH   1  15
ATOM     15  C   UNL     1      -2.475  -4.148   0.076  0.00  0.00    -0.041 C 
BRANCH  15  16
ATOM     16  N   UNL     1      -2.513  -2.690  -0.104  0.00  0.00    +0.386 N 
ATOM     17  C   UNL     1      -3.118  -2.373  -1.404  0.00  0.00    -0.095 C 
ATOM     18  H   UNL     1      -3.062  -2.275   0.633  0.00  0.00    -0.081 HD
BRANCH  16  19
ATOM     19  C   UNL     1      -1.145  -2.155  -0.057  0.00  0.00    +0.019 C 
BRANCH  19  23
ATOM     20  C   UNL     1      -0.094   1.525  -0.148  0.00  0.00    +0.131 C 
ATOM     21  N   UNL     1      -0.049   0.062  -0.088  0.00  0.00    -0.309 N 
ATOM     22  C   UNL     1       1.241  -0.628   0.003  0.00  0.00    +0.131 C 
ATOM     23  C   UNL     1      -1.193  -0.650  -0.118  0.00  0.00    +0.199 C 
ATOM     24  O   UNL     1      -2.260  -0.080  -0.193  0.00  0.00    -0.278 OA
ENDBRANCH  19  23
ENDBRANCH  16  19
ENDBRANCH  15  16
ENDBRANCH   1  15
TORSDOF 7
