REMARK  Name = ZINC17909300
REMARK  11 active torsions:
REMARK  status: ('A' for Active; 'I' for Inactive)
REMARK    1  A    between atoms: C_1  and  C_2
REMARK    2  A    between atoms: C_2  and  C_4
REMARK    3  A    between atoms: C_7  and  S_10
REMARK    4  A    between atoms: S_10  and  N_13
REMARK    5  A    between atoms: C_16  and  C_19
REMARK    6  A    between atoms: N_21  and  C_22
REMARK    7  A    between atoms: C_22  and  C_23
REMARK    8  A    between atoms: C_23  and  C_25
REMARK    9  A    between atoms: C_23  and  N_63
REMARK   10  A    between atoms: C_32  and  N_63
REMARK   11  A    between atoms: C_33  and  N_63
REMARK                            x       y       z     vdW  Elec       q    Type
REMARK                         _______ _______ _______ _____ _____    ______ ____
ROOT
ATOM      1  N   UNL     1      -3.215   1.383   2.073  0.00  0.00    -0.177 NA
ATOM      2  C   UNL     1      -3.937   1.987   3.201  0.00  0.00    +0.110 C 
ATOM      3  C   UNL     1      -3.134   1.734   4.487  0.00  0.00    +0.030 C 
ATOM      4  C   UNL     1      -1.708   2.258   4.301  0.00  0.00    +0.077 C 
ATOM      5  C   UNL     1      -1.031   1.503   3.155  0.00  0.00    +0.030 C 
ATOM      6  C   UNL     1      -1.808   1.749   1.858  0.00  0.00    +0.110 C 
ENDROOT
BRANCH   4   7
ATOM      7  C   UNL     1      -0.926   2.046   5.572  0.00  0.00    +0.216 C 
ATOM      8  O   UNL     1       0.073   1.359   5.562  0.00  0.00    -0.276 OA
ATOM      9  N   UNL     1      -1.339   2.619   6.720  0.00  0.00    -0.316 N 
ATOM     10  H   UNL     1      -2.138   3.168   6.729  0.00  0.00    +0.149 HD
BRANCH   9  11
ATOM     11  C   UNL     1      -0.579   2.413   7.956  0.00  0.00    +0.093 C 
BRANCH  11  12
ATOM     12  C   UNL     1      -1.097   3.363   9.038  0.00  0.00    -0.020 C 
BRANCH  12  13
ATOM     13  C   UNL     1      -0.402   3.067  10.341  0.00  0.00    -0.041 A 
ATOM     14  C   UNL     1       0.591   3.912  10.802  0.00  0.00    +0.003 A 
ATOM     15  C   UNL     1       1.226   3.643  12.000  0.00  0.00    +0.000 A 
ATOM     16  C   UNL     1       0.876   2.525  12.733  0.00  0.00    +0.001 A 
ATOM     17  C   UNL     1      -0.112   1.676  12.271  0.00  0.00    +0.020 A 
ATOM     18  C   UNL     1      -0.752   1.947  11.074  0.00  0.00    +0.043 A 
ATOM     19 CL   UNL     1      -1.993   0.882  10.492  0.00  0.00    -0.083 Cl
ENDBRANCH  12  13
BRANCH  12  22
ATOM     20  C   UNL     1       0.488   4.867   7.996  0.00  0.00    -0.096 C 
ATOM     21  C   UNL     1      -1.889   5.267   7.768  0.00  0.00    -0.096 C 
ATOM     22  N   UNL     1      -0.826   4.767   8.665  0.00  0.00    +0.382 N 
ATOM     23  H   UNL     1      -0.811   5.341   9.517  0.00  0.00    -0.082 HD
ENDBRANCH  12  22
ENDBRANCH  11  12
ENDBRANCH   9  11
ENDBRANCH   4   7
BRANCH   1  24
ATOM     24  S   UNL     1      -3.974   0.317   1.059  0.00  0.00    +0.061 S 
ATOM     25  O   UNL     1      -3.270   0.358  -0.175  0.00  0.00    -0.153 OA
ATOM     26  O   UNL     1      -5.365   0.588   1.152  0.00  0.00    -0.153 OA
BRANCH  24  30
ATOM     27  C   UNL     1      -3.347  -3.834   2.768  0.00  0.00    +0.017 A 
ATOM     28  C   UNL     1      -4.461  -3.079   3.147  0.00  0.00    +0.013 A 
ATOM     29  C   UNL     1      -4.645  -1.817   2.623  0.00  0.00    +0.029 A 
ATOM     30  C   UNL     1      -3.730  -1.297   1.724  0.00  0.00    +0.106 A 
ATOM     31  C   UNL     1      -2.625  -2.038   1.343  0.00  0.00    +0.029 A 
ATOM     32  C   UNL     1      -2.427  -3.302   1.858  0.00  0.00    +0.013 A 
BRANCH  27  34
ATOM     33  C   UNL     1      -1.942  -5.992   2.911  0.00  0.00    +0.091 C 
ATOM     34  C   UNL     1      -3.143  -5.182   3.323  0.00  0.00    +0.160 C 
ATOM     35  O   UNL     1      -3.943  -5.640   4.111  0.00  0.00    -0.292 OA
ENDBRANCH  27  34
ENDBRANCH  24  30
ENDBRANCH   1  24
TORSDOF 8
