REMARK  Name = ZINC65397462
REMARK  5 active torsions:
REMARK  status: ('A' for Active; 'I' for Inactive)
REMARK    1  A    between atoms: C_1  and  C_2
REMARK    2  A    between atoms: C_4  and  N_23
REMARK    3  A    between atoms: C_7  and  C_8
REMARK    4  A    between atoms: C_8  and  N_9
REMARK    5  A    between atoms: N_12  and  C_15
REMARK                            x       y       z     vdW  Elec       q    Type
REMARK                         _______ _______ _______ _____ _____    ______ ____
ROOT
ATOM      1  N   UNL     1      -1.568   0.342   2.912  0.00  0.00    -0.295 NA
ATOM      2  C   UNL     1      -2.084   1.226   1.858  0.00  0.00    +0.103 C 
ATOM      3  C   UNL     1      -3.609   1.318   1.974  0.00  0.00    +0.122 C 
ATOM      4  N   UNL     1      -3.950   1.722   3.346  0.00  0.00    -0.313 N 
ATOM      5  C   UNL     1      -3.359   0.967   4.462  0.00  0.00    +0.122 C 
ATOM      6  C   UNL     1      -1.843   0.889   4.248  0.00  0.00    +0.103 C 
ENDROOT
BRANCH   4   7
ATOM      7  C   UNL     1      -4.801   2.783   3.582  0.00  0.00    +0.130 A 
ATOM      8  C   UNL     1      -5.845   3.046   2.705  0.00  0.00    +0.113 A 
ATOM      9  C   UNL     1      -6.690   4.127   2.972  0.00  0.00    +0.254 A 
ATOM     10  N   UNL     1      -6.462   4.877   4.071  0.00  0.00    -0.295 N 
ATOM     11  C   UNL     1      -5.425   4.578   4.899  0.00  0.00    +0.195 A 
ATOM     12  N   UNL     1      -4.628   3.558   4.659  0.00  0.00    -0.201 NA
ATOM     13  N   UNL     1      -5.208   5.350   6.009  0.00  0.00    -0.329 N 
ATOM     14  O   UNL     1      -7.618   4.389   2.223  0.00  0.00    -0.268 OA
ATOM     15  H   UNL     1      -5.792   6.102   6.198  0.00  0.00    +0.145 HD
ATOM     16  H   UNL     1      -4.471   5.146   6.606  0.00  0.00    +0.145 HD
ATOM     17  H   UNL     1      -7.039   5.631   4.270  0.00  0.00    +0.172 HD
ENDBRANCH   4   7
BRANCH   1  18
ATOM     18  C   UNL     1      -0.132   0.090   2.732  0.00  0.00    +0.120 C 
BRANCH  18  25
ATOM     19  C   UNL     1      -0.680  -2.737   2.942  0.00  0.00    +0.044 C 
ATOM     20  C   UNL     1      -0.188  -2.161   1.640  0.00  0.00    -0.044 A 
ATOM     21  C   UNL     1      -0.005  -2.984   0.546  0.00  0.00    +0.031 A 
ATOM     22  C   UNL     1       0.448  -2.453  -0.654  0.00  0.00    +0.066 A 
ATOM     23  C   UNL     1       0.716  -1.094  -0.750  0.00  0.00    +0.028 A 
ATOM     24  C   UNL     1       0.532  -0.275   0.347  0.00  0.00    +0.007 A 
ATOM     25  C   UNL     1       0.075  -0.807   1.539  0.00  0.00    -0.030 A 
BRANCH  22  26
ATOM     26  N   UNL     1       0.635  -3.286  -1.765  0.00  0.00    -0.240 N 
ATOM     27  C   UNL     1       1.074  -2.900  -2.985  0.00  0.00    +0.114 A 
ATOM     28  C   UNL     1       1.117  -3.998  -3.774  0.00  0.00    +0.041 A 
ATOM     29  C   UNL     1       0.689  -5.092  -3.013  0.00  0.00    +0.135 A 
ATOM     30  N   UNL     1       0.406  -4.667  -1.808  0.00  0.00    -0.175 NA
ENDBRANCH  22  26
ENDBRANCH  18  25
ENDBRANCH   1  18
TORSDOF 4
