REMARK  Name = ZINC17421768
REMARK  14 active torsions:
REMARK  status: ('A' for Active; 'I' for Inactive)
REMARK    1  A    between atoms: C_1  and  C_2
REMARK    2  A    between atoms: C_2  and  C_3
REMARK    3  A    between atoms: C_3  and  N_4
REMARK    4  A    between atoms: N_4  and  C_5
REMARK    5  A    between atoms: C_5  and  C_7
REMARK    6  A    between atoms: C_5  and  C_22
REMARK    7  A    between atoms: C_10  and  C_13
REMARK    8  A    between atoms: N_14  and  C_15
REMARK    9  A    between atoms: C_15  and  C_16
REMARK   10  A    between atoms: C_15  and  C_18
REMARK   11  A    between atoms: C_15  and  C_20
REMARK   12  A    between atoms: C_16  and  C_17
REMARK   13  A    between atoms: C_18  and  O_19
REMARK   14  A    between atoms: C_20  and  O_21
REMARK                            x       y       z     vdW  Elec       q    Type
REMARK                         _______ _______ _______ _____ _____    ______ ____
ROOT
ATOM      1  C   UNL     1       1.421   2.924   0.130  0.00  0.00    -0.026 A 
ATOM      2  C   UNL     1       1.812   1.601   0.230  0.00  0.00    +0.006 A 
ATOM      3  C   UNL     1       0.865   0.605   0.343  0.00  0.00    +0.009 A 
ATOM      4  C   UNL     1      -0.492   0.934   0.350  0.00  0.00    -0.009 A 
ATOM      5  C   UNL     1      -0.880   2.272   0.254  0.00  0.00    +0.009 A 
ATOM      6  C   UNL     1       0.079   3.258   0.142  0.00  0.00    +0.006 A 
ENDROOT
BRANCH   4   7
ATOM      7  C   UNL     1      -1.512  -0.127   0.465  0.00  0.00    +0.086 C 
ATOM      8  N   UNL     1      -2.768   0.182   0.471  0.00  0.00    -0.380 N 
ATOM      9  H   UNL     1      -3.076   1.235   0.392  0.00  0.00    +0.160 HD
BRANCH   8  10
ATOM     10  C   UNL     1      -3.781  -0.871   0.585  0.00  0.00    +0.084 C 
BRANCH  10  11
ATOM     11  C   UNL     1      -5.175  -0.241   0.568  0.00  0.00    +0.029 C 
ATOM     12  C   UNL     1      -6.232  -1.341   0.687  0.00  0.00    +0.006 C 
ENDBRANCH  10  11
BRANCH  10  13
ATOM     13  C   UNL     1      -3.644  -1.839  -0.592  0.00  0.00    +0.186 C 
BRANCH  13  14
ATOM     14  O   UNL     1      -3.715  -1.109  -1.819  0.00  0.00    -0.393 OA
ATOM     15  H   UNL     1      -3.636  -1.640  -2.780  0.00  0.00    +0.209 HD
ENDBRANCH  13  14
ENDBRANCH  10  13
BRANCH  10  16
ATOM     16  C   UNL     1      -3.580  -1.632   1.897  0.00  0.00    +0.186 C 
BRANCH  16  17
ATOM     17  O   UNL     1      -3.708  -0.728   2.996  0.00  0.00    -0.393 OA
ATOM     18  H   UNL     1      -3.594  -1.096   4.027  0.00  0.00    +0.209 HD
ENDBRANCH  16  17
ENDBRANCH  10  16
ENDBRANCH   8  10
ENDBRANCH   4   7
BRANCH   1  19
ATOM     19  C   UNL     1       2.463   4.006   0.007  0.00  0.00    +0.135 C 
BRANCH  19  20
ATOM     20  C   UNL     1       2.592   4.426  -1.459  0.00  0.00    +0.210 C 
ATOM     21 CL   UNL     1       1.053   5.190  -2.003  0.00  0.00    -0.081 Cl
ATOM     22 CL   UNL     1       3.943   5.608  -1.628  0.00  0.00    -0.081 Cl
ATOM     23 CL   UNL     1       2.934   2.974  -2.472  0.00  0.00    -0.081 Cl
ENDBRANCH  19  20
BRANCH  19  24
ATOM     24  N   UNL     1       2.061   5.166   0.815  0.00  0.00    -0.306 NA
ATOM     25  H   UNL     1       0.971   5.292   0.733  0.00  0.00    +0.123 HD
BRANCH  24  26
ATOM     26  C   UNL     1       2.428   4.978   2.225  0.00  0.00    +0.081 C 
BRANCH  26  28
ATOM     27  C   UNL     1       2.299   5.966   4.516  0.00  0.00    +0.005 C 
ATOM     28  C   UNL     1       1.917   6.162   3.047  0.00  0.00    +0.012 C 
ENDBRANCH  26  28
ENDBRANCH  24  26
ENDBRANCH  19  24
ENDBRANCH   1  19
TORSDOF 12
