REMARK  Name = ZINC26805851
REMARK  7 active torsions:
REMARK  status: ('A' for Active; 'I' for Inactive)
REMARK    1  A    between atoms: C_4  and  C_7
REMARK    2  A    between atoms: C_8  and  C_9
REMARK    3  A    between atoms: C_8  and  N_20
REMARK    4  A    between atoms: N_11  and  C_12
REMARK    5  A    between atoms: C_12  and  C_13
REMARK    6  A    between atoms: C_13  and  N_14
REMARK    7  A    between atoms: C_21  and  C_23
REMARK                            x       y       z     vdW  Elec       q    Type
REMARK                         _______ _______ _______ _____ _____    ______ ____
ROOT
ATOM      1  C   UNL     1       3.795   2.220   0.150  0.00  0.00    +0.036 C 
ATOM      2  C   UNL     1       3.669   3.544  -0.100  0.00  0.00    +0.097 C 
ENDROOT
BRANCH   1   6
ATOM      3  C   UNL     1       0.424  -0.032   1.397  0.00  0.00    +0.000 A 
ATOM      4  C   UNL     1       0.435   1.342   1.565  0.00  0.00    +0.001 A 
ATOM      5  C   UNL     1       1.527   2.081   1.163  0.00  0.00    +0.008 A 
ATOM      6  C   UNL     1       2.626   1.439   0.583  0.00  0.00    -0.023 A 
ATOM      7  C   UNL     1       2.607   0.051   0.416  0.00  0.00    +0.008 A 
ATOM      8  C   UNL     1       1.508  -0.674   0.825  0.00  0.00    +0.001 A 
ENDBRANCH   1   6
BRANCH   2   9
ATOM      9  C   UNL     1       4.864   4.360  -0.362  0.00  0.00    +0.258 C 
ATOM     10  O   UNL     1       5.971   3.867  -0.258  0.00  0.00    -0.269 OA
ATOM     11  N   UNL     1       4.732   5.653  -0.718  0.00  0.00    -0.309 N 
ATOM     12  H   UNL     1       3.737   6.120  -0.737  0.00  0.00    +0.149 HD
BRANCH  11  13
ATOM     13  C   UNL     1       5.916   6.438  -1.079  0.00  0.00    +0.120 C 
BRANCH  13  14
ATOM     14  C   UNL     1       5.493   7.863  -1.438  0.00  0.00    +0.103 C 
BRANCH  14  15
ATOM     15  N   UNL     1       6.679   8.650  -1.801  0.00  0.00    -0.304 NA
ATOM     16  C   UNL     1       7.546   7.902  -2.722  0.00  0.00    +0.065 C 
ATOM     17  C   UNL     1       8.806   8.721  -3.012  0.00  0.00    -0.067 C 
ATOM     18  N   UNL     1       8.422  10.017  -3.588  0.00  0.00    +0.381 N 
ATOM     19  C   UNL     1       7.556  10.765  -2.667  0.00  0.00    -0.067 C 
ATOM     20  C   UNL     1       6.296   9.946  -2.377  0.00  0.00    +0.065 C 
ATOM     21  H   UNL     1       9.326  10.612  -3.786  0.00  0.00    -0.086 HD
ATOM     22  H   UNL     1       7.879   9.853  -4.530  0.00  0.00    -0.086 HD
ENDBRANCH  14  15
ENDBRANCH  13  14
ENDBRANCH  11  13
ENDBRANCH   2   9
BRANCH   2  23
ATOM     23  N   UNL     1       2.403   4.136  -0.109  0.00  0.00    -0.275 N 
ATOM     24  C   UNL     1       2.138   5.172   0.711  0.00  0.00    +0.284 C 
ATOM     25  O   UNL     1       3.023   5.646   1.399  0.00  0.00    -0.266 OA
ATOM     26  H   UNL     1       1.623   3.757  -0.785  0.00  0.00    +0.155 HD
BRANCH  24  27
ATOM     27  C   UNL     1       0.782   5.728   0.776  0.00  0.00    +0.189 A 
ATOM     28  C   UNL     1       0.379   6.771   1.560  0.00  0.00    +0.054 A 
ATOM     29  C   UNL     1      -0.987   6.964   1.304  0.00  0.00    +0.042 A 
ATOM     30  C   UNL     1      -1.354   6.041   0.387  0.00  0.00    +0.196 A 
ATOM     31  O   UNL     1      -0.283   5.302   0.067  0.00  0.00    -0.458 OA
ENDBRANCH  24  27
ENDBRANCH   2  23
TORSDOF 7
