REMARK  Name = ZINC63271460
REMARK  6 active torsions:
REMARK  status: ('A' for Active; 'I' for Inactive)
REMARK    1  A    between atoms: N_17  and  C_18
REMARK    2  A    between atoms: C_18  and  C_19
REMARK    3  A    between atoms: C_19  and  C_20
REMARK    4  A    between atoms: C_20  and  C_21
REMARK    5  A    between atoms: N_23  and  C_24
REMARK    6  A    between atoms: C_28  and  O_30
REMARK                            x       y       z     vdW  Elec       q    Type
REMARK                         _______ _______ _______ _____ _____    ______ ____
ROOT
ATOM      1  C   UNL     1      -0.011   1.211   1.611  0.00  0.00    +0.001 A 
ATOM      2  C   UNL     1       1.161   1.978   1.553  0.00  0.00    +0.002 A 
ATOM      3  C   UNL     1       2.379   1.431   1.357  0.00  0.00    +0.026 A 
ATOM      4  C   UNL     1       2.522   0.026   1.197  0.00  0.00    +0.043 A 
ATOM      5  N   UNL     1       3.577  -0.725   0.978  0.00  0.00    -0.376 N 
ATOM      6  C   UNL     1       3.158  -2.124   0.974  0.00  0.00    +0.124 C 
ATOM      7  C   UNL     1       3.526  -2.827  -0.338  0.00  0.00    +0.138 C 
ATOM      8  N   UNL     1       2.735  -4.064  -0.425  0.00  0.00    -0.283 N 
ATOM      9  C   UNL     1       1.269  -4.014  -0.424  0.00  0.00    +0.114 C 
ATOM     10  C   UNL     1       0.783  -3.319   0.861  0.00  0.00    +0.052 C 
ATOM     11  C   UNL     1       1.641  -2.091   1.067  0.00  0.00    -0.036 C 
ATOM     12  C   UNL     1       1.296  -0.808   1.248  0.00  0.00    -0.001 A 
ATOM     13  C   UNL     1       0.011  -0.133   1.469  0.00  0.00    +0.010 A 
ATOM     14  C   UNL     1       3.362  -5.254  -0.507  0.00  0.00    +0.302 C 
ATOM     15  O   UNL     1       4.573  -5.298  -0.602  0.00  0.00    -0.253 OA
ATOM     16  N   UNL     1       2.646  -6.396  -0.482  0.00  0.00    -0.299 N 
ATOM     17  H   UNL     1       1.677  -6.361  -0.480  0.00  0.00    +0.150 HD
ATOM     18  H   UNL     1       4.482  -0.404   0.842  0.00  0.00    +0.160 HD
ENDROOT
BRANCH  16  19
ATOM     19  C   UNL     1       3.333  -7.690  -0.459  0.00  0.00    +0.106 C 
BRANCH  19  20
ATOM     20  C   UNL     1       2.297  -8.816  -0.434  0.00  0.00    +0.028 C 
BRANCH  20  21
ATOM     21  C   UNL     1       3.014 -10.168  -0.409  0.00  0.00    +0.097 C 
BRANCH  21  22
ATOM     22  C   UNL     1       1.994 -11.277  -0.385  0.00  0.00    +0.217 C 
ATOM     23  O   UNL     1       0.810 -11.013  -0.386  0.00  0.00    -0.275 OA
ATOM     24  N   UNL     1       2.397 -12.563  -0.361  0.00  0.00    -0.285 N 
ATOM     25  H   UNL     1       3.341 -12.774  -0.284  0.00  0.00    +0.155 HD
BRANCH  24  26
ATOM     26  C   UNL     1       1.455 -13.593  -0.446  0.00  0.00    +0.037 A 
ATOM     27  C   UNL     1       1.668 -14.789   0.230  0.00  0.00    +0.023 A 
ATOM     28  C   UNL     1       0.738 -15.806   0.145  0.00  0.00    +0.005 A 
ATOM     29  C   UNL     1      -0.407 -15.638  -0.610  0.00  0.00    +0.045 A 
ATOM     30  C   UNL     1      -0.625 -14.447  -1.287  0.00  0.00    +0.119 A 
ATOM     31  C   UNL     1       0.303 -13.421  -1.200  0.00  0.00    +0.068 A 
BRANCH  30  32
ATOM     32  O   UNL     1      -1.752 -14.283  -2.030  0.00  0.00    -0.507 OA
ATOM     33  H   UNL     1      -2.497 -13.911  -1.538  0.00  0.00    +0.292 HD
ENDBRANCH  30  32
ENDBRANCH  24  26
ENDBRANCH  21  22
ENDBRANCH  20  21
ENDBRANCH  19  20
ENDBRANCH  16  19
TORSDOF 6
