REMARK  Name = ZINC12341781
REMARK  4 active torsions:
REMARK  status: ('A' for Active; 'I' for Inactive)
REMARK    1  A    between atoms: C_1  and  N_2
REMARK    2  A    between atoms: C_6  and  C_7
REMARK    3  A    between atoms: N_11  and  C_15
REMARK    4  A    between atoms: C_15  and  C_16
REMARK                            x       y       z     vdW  Elec       q    Type
REMARK                         _______ _______ _______ _____ _____    ______ ____
ROOT
ATOM      1  C   UNL     1       2.482   1.527  -0.004  0.00  0.00    +0.046 C 
ATOM      2  C   UNL     1       1.237   1.990   0.302  0.00  0.00    +0.081 C 
ATOM      3  C   UNL     1       0.117   1.290   0.845  0.00  0.00    +0.261 C 
ATOM      4  O   UNL     1       0.185   0.103   1.108  0.00  0.00    -0.269 OA
ATOM      5  N   UNL     1      -0.999   1.969   1.050  0.00  0.00    -0.217 N 
ATOM      6  C   UNL     1      -1.073   3.288   0.764  0.00  0.00    +0.287 C 
ATOM      7  O   UNL     1      -2.015   4.045   0.898  0.00  0.00    -0.262 OA
ATOM      8  S   UNL     1       0.561   3.636   0.132  0.00  0.00    -0.026 S 
ENDROOT
BRANCH   1  14
ATOM      9  C   UNL     1       1.049  -0.688  -1.572  0.00  0.00    +0.149 C 
ATOM     10  N   UNL     1       2.136  -0.864  -0.606  0.00  0.00    -0.350 N 
ATOM     11  C   UNL     1       2.691  -2.051  -0.245  0.00  0.00    +0.086 A 
ATOM     12  C   UNL     1       3.665  -1.821   0.668  0.00  0.00    +0.020 A 
ATOM     13  C   UNL     1       3.731  -0.442   0.888  0.00  0.00    +0.027 A 
ATOM     14  C   UNL     1       2.766   0.144   0.088  0.00  0.00    +0.043 A 
ENDBRANCH   1  14
BRANCH   5  15
ATOM     15  C   UNL     1      -2.170   1.283   1.600  0.00  0.00    +0.206 C 
BRANCH  15  16
ATOM     16  C   UNL     1      -2.140   1.362   3.070  0.00  0.00    -0.086 C 
ATOM     17  C   UNL     1      -2.115   1.424   4.242  0.00  0.00    +0.005 C 
ENDBRANCH  15  16
ENDBRANCH   5  15
TORSDOF 3
