REMARK  Name = ZINC03582627
REMARK  12 active torsions:
REMARK  status: ('A' for Active; 'I' for Inactive)
REMARK    1  A    between atoms: C_1  and  C_2
REMARK    2  A    between atoms: C_2  and  C_3
REMARK    3  A    between atoms: C_2  and  C_4
REMARK    4  A    between atoms: C_4  and  N_5
REMARK    5  A    between atoms: C_6  and  N_27
REMARK    6  A    between atoms: C_7  and  N_14
REMARK    7  A    between atoms: N_14  and  C_15
REMARK    8  A    between atoms: C_15  and  C_16
REMARK    9  A    between atoms: C_16  and  C_17
REMARK   10  A    between atoms: C_16  and  C_18
REMARK   11  A    between atoms: C_19  and  C_21
REMARK   12  A    between atoms: C_21  and  N_60
REMARK                            x       y       z     vdW  Elec       q    Type
REMARK                         _______ _______ _______ _____ _____    ______ ____
ROOT
ATOM      1  N   UNL     1       4.796   1.050   0.326  0.00  0.00    -0.280 N 
ATOM      2  C   UNL     1       3.440   1.216   0.481  0.00  0.00    +0.127 A 
ATOM      3  C   UNL     1       2.782   2.149  -0.293  0.00  0.00    +0.140 A 
ATOM      4  C   UNL     1       3.521   2.901  -1.226  0.00  0.00    +0.277 A 
ATOM      5  O   UNL     1       2.964   3.729  -1.926  0.00  0.00    -0.266 OA
ATOM      6  N   UNL     1       4.849   2.704  -1.334  0.00  0.00    -0.273 N 
ATOM      7  H   UNL     1       5.377   3.243  -1.990  0.00  0.00    +0.173 HD
ATOM      8  C   UNL     1       5.474   1.789  -0.571  0.00  0.00    +0.331 A 
ATOM      9  O   UNL     1       6.673   1.628  -0.694  0.00  0.00    -0.246 OA
ENDROOT
BRANCH   3  10
ATOM     10  N   UNL     1       1.391   2.342  -0.158  0.00  0.00    -0.266 N 
ATOM     11  C   UNL     1       0.541   1.323  -0.404  0.00  0.00    +0.203 C 
ATOM     12  O   UNL     1       0.966   0.267  -0.825  0.00  0.00    -0.277 OA
BRANCH  10  13
ATOM     13  C   UNL     1       0.869   3.648   0.250  0.00  0.00    +0.117 C 
BRANCH  13  14
ATOM     14  C   UNL     1       0.663   3.664   1.766  0.00  0.00    +0.001 C 
ATOM     15  C   UNL     1       2.019   3.559   2.466  0.00  0.00    +0.009 C 
ATOM     16  C   UNL     1      -0.022   4.970   2.174  0.00  0.00    +0.009 C 
ENDBRANCH  13  14
ENDBRANCH  10  13
BRANCH  11  17
ATOM     17  C   UNL     1      -0.936   1.498  -0.163  0.00  0.00    +0.019 C 
BRANCH  17  23
ATOM     18  C   UNL     1      -1.546  -0.016  -1.950  0.00  0.00    -0.078 C 
ATOM     19  C   UNL     1      -2.162  -1.384  -2.253  0.00  0.00    -0.019 C 
ATOM     20  C   UNL     1      -3.627  -1.389  -1.808  0.00  0.00    -0.004 C 
ATOM     21  C   UNL     1      -3.700  -1.054  -0.316  0.00  0.00    -0.019 C 
ATOM     22  C   UNL     1      -3.040   0.304  -0.069  0.00  0.00    -0.078 C 
ATOM     23  N   UNL     1      -1.626   0.235  -0.495  0.00  0.00    +0.385 N 
ATOM     24  H   UNL     1      -1.166  -0.537   0.001  0.00  0.00    -0.081 HD
ENDBRANCH  17  23
ENDBRANCH  11  17
ENDBRANCH   3  10
BRANCH   2  25
ATOM     25  N   UNL     1       2.748   0.461   1.398  0.00  0.00    -0.343 N 
ATOM     26  H   UNL     1       1.807   0.636   1.560  0.00  0.00    +0.144 HD
ATOM     27  H   UNL     1       3.200  -0.247   1.883  0.00  0.00    +0.144 HD
ENDBRANCH   2  25
BRANCH   1  28
ATOM     28  C   UNL     1       5.508   0.062   1.141  0.00  0.00    +0.131 C 
BRANCH  28  30
ATOM     29  C   UNL     1       6.330  -1.165  -0.873  0.00  0.00    +0.009 C 
ATOM     30  C   UNL     1       5.517  -1.285   0.417  0.00  0.00    +0.003 C 
ATOM     31  C   UNL     1       6.149  -2.345   1.322  0.00  0.00    +0.009 C 
ENDBRANCH  28  30
ENDBRANCH   1  28
TORSDOF 8
