REMARK  Name = ZINC07614138
REMARK  9 active torsions:
REMARK  status: ('A' for Active; 'I' for Inactive)
REMARK    1  A    between atoms: C_1  and  C_2
REMARK    2  A    between atoms: C_2  and  N_52
REMARK    3  A    between atoms: C_8  and  N_13
REMARK    4  A    between atoms: C_9  and  C_10
REMARK    5  A    between atoms: C_14  and  C_16
REMARK    6  A    between atoms: C_16  and  C_17
REMARK    7  A    between atoms: C_20  and  O_23
REMARK    8  A    between atoms: O_23  and  C_24
REMARK    9  A    between atoms: C_24  and  C_25
REMARK                            x       y       z     vdW  Elec       q    Type
REMARK                         _______ _______ _______ _____ _____    ______ ____
ROOT
ATOM      1  C   UNL     1       0.695   8.553   7.027  0.00  0.00    -0.074 C 
ATOM      2  C   UNL     1       1.117   8.749   5.569  0.00  0.00    +0.018 C 
ATOM      3  C   UNL     1       1.134   7.384   4.891  0.00  0.00    -0.027 A 
ATOM      4  C   UNL     1       1.159   6.256   5.637  0.00  0.00    -0.021 A 
ATOM      5  S   UNL     1       1.169   4.936   4.460  0.00  0.00    -0.079 S 
ATOM      6  C   UNL     1       1.140   5.866   2.997  0.00  0.00    +0.084 A 
ATOM      7  C   UNL     1       1.130   7.177   3.455  0.00  0.00    +0.068 A 
ATOM      8  C   UNL     1       1.177   6.180   7.132  0.00  0.00    -0.035 C 
ATOM      9  N   UNL     1       1.549   7.520   7.650  0.00  0.00    +0.383 N 
ATOM     10  H   UNL     1       2.529   7.709   7.413  0.00  0.00    -0.081 HD
ENDROOT
BRANCH   7  11
ATOM     11  C   UNL     1       1.111   8.309   2.523  0.00  0.00    +0.244 C 
ATOM     12  O   UNL     1       0.049   8.767   2.144  0.00  0.00    -0.270 OA
ATOM     13  N   UNL     1       2.269   8.841   2.085  0.00  0.00    -0.325 N 
ATOM     14  H   UNL     1       3.115   8.475   2.387  0.00  0.00    +0.145 HD
ATOM     15  H   UNL     1       2.257   9.589   1.469  0.00  0.00    +0.145 HD
ENDBRANCH   7  11
BRANCH   6  16
ATOM     16  N   UNL     1       1.135   5.411   1.688  0.00  0.00    -0.279 N 
ATOM     17  C   UNL     1       1.153   4.087   1.434  0.00  0.00    +0.222 C 
ATOM     18  O   UNL     1       1.174   3.294   2.351  0.00  0.00    -0.275 OA
ATOM     19  H   UNL     1       1.118   6.045   0.954  0.00  0.00    +0.155 HD
BRANCH  17  20
ATOM     20  C   UNL     1       1.147   3.593   0.011  0.00  0.00    +0.131 C 
BRANCH  20  21
ATOM     21  C   UNL     1       1.171   2.086   0.002  0.00  0.00    -0.038 A 
ATOM     22  C   UNL     1      -0.017   1.377   0.010  0.00  0.00    +0.007 A 
ATOM     23  C   UNL     1       0.002  -0.004   0.002  0.00  0.00    +0.046 A 
ATOM     24  C   UNL     1       1.213  -0.680  -0.013  0.00  0.00    +0.121 A 
ATOM     25  C   UNL     1       2.403   0.033  -0.021  0.00  0.00    +0.046 A 
ATOM     26  C   UNL     1       2.379   1.415  -0.013  0.00  0.00    +0.007 A 
BRANCH  24  27
ATOM     27  O   UNL     1       1.234  -2.039  -0.020  0.00  0.00    -0.492 OA
BRANCH  27  28
ATOM     28  C   UNL     1       2.518  -2.668  -0.036  0.00  0.00    +0.225 C 
ATOM     29  C   UNL     1       2.341  -4.188  -0.042  0.00  0.00    +0.048 C 
ENDBRANCH  27  28
ENDBRANCH  24  27
ENDBRANCH  20  21
ENDBRANCH  17  20
ENDBRANCH   6  16
BRANCH   9  31
ATOM     30  C   UNL     1      -0.076   7.380   9.507  0.00  0.00    -0.017 C 
ATOM     31  C   UNL     1       1.394   7.554   9.120  0.00  0.00    -0.082 C 
ENDBRANCH   9  31
TORSDOF 7
