REMARK  Name = ZINC43287088
REMARK  6 active torsions:
REMARK  status: ('A' for Active; 'I' for Inactive)
REMARK    1  A    between atoms: C_1  and  N_2
REMARK    2  A    between atoms: C_3  and  C_5
REMARK    3  A    between atoms: N_10  and  C_11
REMARK    4  A    between atoms: C_11  and  C_13
REMARK    5  A    between atoms: C_11  and  C_15
REMARK    6  A    between atoms: C_13  and  N_14
REMARK                            x       y       z     vdW  Elec       q    Type
REMARK                         _______ _______ _______ _____ _____    ______ ____
ROOT
ATOM      1  C   UNL     1       0.625  -2.182   0.995  0.00  0.00    +0.020 C 
ATOM      2  C   UNL     1       1.383  -2.690  -0.249  0.00  0.00    -0.008 C 
ATOM      3  C   UNL     1       2.807  -2.969   0.299  0.00  0.00    -0.020 C 
ATOM      4  C   UNL     1       2.497  -3.490   1.725  0.00  0.00    -0.077 C 
ATOM      5  N   UNL     1       1.343  -2.681   2.183  0.00  0.00    +0.393 N 
ATOM      6  H   UNL     1       1.671  -1.901   2.733  0.00  0.00    -0.080 HD
ENDROOT
BRANCH   1   9
ATOM      7  C   UNL     1      -0.018   1.461   0.010  0.00  0.00    +0.128 C 
ATOM      8  N   UNL     1       0.002  -0.004   0.002  0.00  0.00    -0.320 N 
ATOM      9  C   UNL     1       0.604  -0.675   1.004  0.00  0.00    +0.199 C 
ATOM     10  O   UNL     1       1.130  -0.067   1.911  0.00  0.00    -0.278 OA
ATOM     11  H   UNL     1      -0.418  -0.491  -0.724  0.00  0.00    +0.148 HD
ENDBRANCH   1   9
BRANCH   5  12
ATOM     12  C   UNL     1       0.443  -3.512   2.992  0.00  0.00    -0.016 C 
BRANCH  12  13
ATOM     13  C   UNL     1      -0.741  -2.689   3.433  0.00  0.00    -0.021 A 
ATOM     14  C   UNL     1      -2.045  -3.047   3.516  0.00  0.00    +0.025 A 
ATOM     15  C   UNL     1      -2.969  -2.115   3.952  0.00  0.00    +0.025 A 
ATOM     16  C   UNL     1      -2.542  -0.871   4.283  0.00  0.00    +0.060 A 
ATOM     17  S   UNL     1      -0.786  -0.993   3.987  0.00  0.00    -0.102 S 
ATOM     18 BR   UNL     1      -4.801  -2.568   4.084  0.00  0.00    -0.050 Br
ENDBRANCH  12  13
BRANCH  12  19
ATOM     19  C   UNL     1       1.192  -4.027   4.223  0.00  0.00    +0.067 C 
BRANCH  19  20
ATOM     20  N   UNL     1       2.411  -4.727   3.796  0.00  0.00    -0.331 NA
ATOM     21  H   UNL     1       2.924  -5.077   4.591  0.00  0.00    +0.118 HD
ATOM     22  H   UNL     1       2.193  -5.472   3.151  0.00  0.00    +0.118 HD
ENDBRANCH  19  20
ENDBRANCH  12  19
ENDBRANCH   5  12
TORSDOF 5
