REMARK  Name = ZINC49150691
REMARK  7 active torsions:
REMARK  status: ('A' for Active; 'I' for Inactive)
REMARK    1  A    between atoms: C_1  and  C_2
REMARK    2  A    between atoms: C_2  and  C_4
REMARK    3  A    between atoms: C_2  and  N_10
REMARK    4  A    between atoms: C_4  and  N_5
REMARK    5  A    between atoms: N_10  and  S_11
REMARK    6  A    between atoms: S_11  and  C_14
REMARK    7  A    between atoms: C_19  and  N_20
REMARK                            x       y       z     vdW  Elec       q    Type
REMARK                         _______ _______ _______ _____ _____    ______ ____
ROOT
ATOM      1  S   UNL     1      -2.344  -0.669  -1.835  0.00  0.00    +0.060 S 
ATOM      2  O   UNL     1      -3.725  -0.989  -1.744  0.00  0.00    -0.153 OA
ATOM      3  O   UNL     1      -1.867   0.437  -2.588  0.00  0.00    -0.153 OA
ENDROOT
BRANCH   1   4
ATOM      4  C   UNL     1      -1.536  -2.099  -2.473  0.00  0.00    +0.127 A 
ATOM      5  C   UNL     1      -0.669  -1.984  -3.542  0.00  0.00    +0.045 A 
ATOM      6  C   UNL     1      -0.035  -3.106  -4.044  0.00  0.00    +0.020 A 
ATOM      7  C   UNL     1      -0.267  -4.347  -3.478  0.00  0.00    +0.017 A 
ATOM      8  C   UNL     1      -1.133  -4.468  -2.409  0.00  0.00    +0.026 A 
ATOM      9  C   UNL     1      -1.767  -3.342  -1.899  0.00  0.00    +0.051 A 
ATOM     10 BR   UNL     1       1.151  -2.945  -5.509  0.00  0.00    -0.050 Br
BRANCH   9  11
ATOM     11  N   UNL     1      -2.639  -3.461  -0.814  0.00  0.00    -0.356 N 
ATOM     12  H   UNL     1      -3.133  -2.687  -0.501  0.00  0.00    +0.142 HD
ATOM     13  H   UNL     1      -2.750  -4.317  -0.372  0.00  0.00    +0.142 HD
ENDBRANCH   9  11
ENDBRANCH   1   4
BRANCH   1  14
ATOM     14  N   UNL     1      -1.805  -0.454  -0.284  0.00  0.00    -0.189 NA
ATOM     15  H   UNL     1      -2.418  -0.552   0.461  0.00  0.00    +0.148 HD
BRANCH  14  17
ATOM     16  C   UNL     1      -0.252   1.406   0.051  0.00  0.00    +0.024 C 
ATOM     17  C   UNL     1      -0.401  -0.114  -0.037  0.00  0.00    +0.057 C 
BRANCH  17  18
ATOM     18  C   UNL     1       0.053  -0.748   1.279  0.00  0.00    -0.059 C 
BRANCH  18  19
ATOM     19  N   UNL     1      -0.129  -2.204   1.210  0.00  0.00    +0.381 N 
ATOM     20  C   UNL     1       0.841  -2.796   0.254  0.00  0.00    -0.079 C 
ATOM     21  C   UNL     1       0.921  -4.278   0.701  0.00  0.00    -0.020 C 
ATOM     22  C   UNL     1       0.837  -4.179   2.241  0.00  0.00    -0.020 C 
ATOM     23  C   UNL     1       0.171  -2.819   2.521  0.00  0.00    -0.079 C 
ATOM     24  H   UNL     1      -1.073  -2.425   0.930  0.00  0.00    -0.082 HD
ENDBRANCH  18  19
ENDBRANCH  17  18
ENDBRANCH  14  17
ENDBRANCH   1  14
TORSDOF 6
