REMARK  Name = ZINC15924978
REMARK  11 active torsions:
REMARK  status: ('A' for Active; 'I' for Inactive)
REMARK    1  A    between atoms: C_1  and  C_2
REMARK    2  A    between atoms: C_2  and  C_3
REMARK    3  A    between atoms: C_2  and  C_4
REMARK    4  A    between atoms: C_2  and  O_24
REMARK    5  A    between atoms: N_6  and  C_7
REMARK    6  A    between atoms: C_7  and  C_8
REMARK    7  A    between atoms: C_8  and  C_10
REMARK    8  A    between atoms: C_8  and  N_18
REMARK    9  A    between atoms: C_13  and  O_16
REMARK   10  A    between atoms: O_16  and  C_17
REMARK   11  A    between atoms: O_24  and  C_25
REMARK                            x       y       z     vdW  Elec       q    Type
REMARK                         _______ _______ _______ _____ _____    ______ ____
ROOT
ATOM      1  C   UNL     1      -4.470  -0.585   1.396  0.00  0.00    +0.093 C 
ENDROOT
BRANCH   1   4
ATOM      2  C   UNL     1      -4.310  -0.647  -1.034  0.00  0.00    +0.256 C 
ATOM      3  O   UNL     1      -3.332  -1.355  -0.923  0.00  0.00    -0.271 OA
ATOM      4  N   UNL     1      -4.952  -0.207   0.066  0.00  0.00    -0.313 N 
ATOM      5  H   UNL     1      -5.735   0.359  -0.024  0.00  0.00    +0.149 HD
BRANCH   2   7
ATOM      6  C   UNL     1      -6.240  -0.760  -2.587  0.00  0.00    +0.065 C 
ATOM      7  C   UNL     1      -4.806  -0.258  -2.403  0.00  0.00    +0.180 C 
ATOM      8  C   UNL     1      -4.778   1.266  -2.542  0.00  0.00    +0.065 C 
BRANCH   7   9
ATOM      9  O   UNL     1      -3.965  -0.843  -3.399  0.00  0.00    -0.477 OA
BRANCH   9  10
ATOM     10  C   UNL     1      -2.655  -0.481  -3.390  0.00  0.00    +0.122 A 
ATOM     11  C   UNL     1      -2.162   0.317  -2.368  0.00  0.00    +0.047 A 
ATOM     12  C   UNL     1      -0.830   0.683  -2.361  0.00  0.00    +0.023 A 
ATOM     13  C   UNL     1       0.012   0.257  -3.373  0.00  0.00    +0.041 A 
ATOM     14  C   UNL     1      -0.478  -0.538  -4.394  0.00  0.00    +0.023 A 
ATOM     15  C   UNL     1      -1.808  -0.913  -4.401  0.00  0.00    +0.047 A 
ATOM     16 CL   UNL     1       1.685   0.719  -3.362  0.00  0.00    -0.084 Cl
ENDBRANCH   9  10
ENDBRANCH   7   9
ENDBRANCH   2   7
ENDBRANCH   1   4
BRANCH   1  17
ATOM     17  C   UNL     1      -5.296   0.137   2.463  0.00  0.00    -0.020 C 
BRANCH  17  18
ATOM     18  N   UNL     1      -4.771  -0.192   3.795  0.00  0.00    +0.385 N 
ATOM     19  C   UNL     1      -5.623   0.421   4.820  0.00  0.00    -0.078 C 
ATOM     20  C   UNL     1      -5.128   0.015   6.210  0.00  0.00    -0.019 C 
ATOM     21  C   UNL     1      -3.684   0.494   6.391  0.00  0.00    -0.004 C 
ATOM     22  C   UNL     1      -2.818  -0.093   5.272  0.00  0.00    -0.019 C 
ATOM     23  C   UNL     1      -3.399   0.317   3.917  0.00  0.00    -0.078 C 
ATOM     24  H   UNL     1      -4.769  -1.193   3.916  0.00  0.00    -0.081 HD
ENDBRANCH  17  18
BRANCH  17  25
ATOM     25  C   UNL     1      -6.734  -0.303   2.367  0.00  0.00    -0.059 A 
ATOM     26  C   UNL     1      -7.128  -1.503   2.931  0.00  0.00    +0.005 A 
ATOM     27  C   UNL     1      -8.445  -1.909   2.844  0.00  0.00    +0.046 A 
ATOM     28  C   UNL     1      -9.374  -1.111   2.192  0.00  0.00    +0.120 A 
ATOM     29  C   UNL     1      -8.977   0.092   1.627  0.00  0.00    +0.046 A 
ATOM     30  C   UNL     1      -7.659   0.496   1.721  0.00  0.00    +0.005 A 
BRANCH  28  31
ATOM     31  O   UNL     1     -10.671  -1.508   2.105  0.00  0.00    -0.495 OA
ATOM     32  C   UNL     1     -11.572  -0.637   1.418  0.00  0.00    +0.277 C 
ENDBRANCH  28  31
ENDBRANCH  17  25
ENDBRANCH   1  17
TORSDOF 8
