REMARK  Name = ZINC39666779
REMARK  9 active torsions:
REMARK  status: ('A' for Active; 'I' for Inactive)
REMARK    1  A    between atoms: C_1  and  C_2
REMARK    2  A    between atoms: C_2  and  C_3
REMARK    3  A    between atoms: C_3  and  C_4
REMARK    4  A    between atoms: C_3  and  C_6
REMARK    5  A    between atoms: C_4  and  C_5
REMARK    6  A    between atoms: C_6  and  N_7
REMARK    7  A    between atoms: C_8  and  C_10
REMARK    8  A    between atoms: C_21  and  C_23
REMARK    9  A    between atoms: C_23  and  C_29
REMARK                            x       y       z     vdW  Elec       q    Type
REMARK                         _______ _______ _______ _____ _____    ______ ____
ROOT
ATOM      1  C   UNL     1      -2.872  -4.498  -2.013  0.00  0.00    +0.100 C 
ATOM      2  C   UNL     1      -3.763  -4.086  -0.821  0.00  0.00    +0.121 C 
ATOM      3  N   UNL     1      -4.793  -5.149  -0.738  0.00  0.00    -0.300 N 
ATOM      4  C   UNL     1      -4.053  -6.402  -1.025  0.00  0.00    +0.115 C 
ATOM      5  C   UNL     1      -3.065  -6.019  -2.144  0.00  0.00    -0.004 C 
ATOM      6  C   UNL     1      -3.654  -6.361  -3.509  0.00  0.00    -0.010 C 
ATOM      7  C   UNL     1      -3.783  -7.882  -3.636  0.00  0.00    -0.082 C 
ATOM      8  N   UNL     1      -2.462  -8.502  -3.482  0.00  0.00    +0.379 N 
ATOM      9  C   UNL     1      -1.942  -8.245  -2.133  0.00  0.00    -0.082 C 
ATOM     10  C   UNL     1      -1.735  -6.739  -1.942  0.00  0.00    -0.010 C 
ATOM     11  C   UNL     1      -6.105  -5.008  -0.463  0.00  0.00    +0.222 C 
ATOM     12  O   UNL     1      -6.809  -5.989  -0.347  0.00  0.00    -0.275 OA
ATOM     13  H   UNL     1      -2.540  -9.497  -3.627  0.00  0.00    -0.086 HD
ATOM     14  H   UNL     1      -1.828  -8.114  -4.164  0.00  0.00    -0.086 HD
ENDROOT
BRANCH  11  15
ATOM     15  C   UNL     1      -6.698  -3.633  -0.301  0.00  0.00    +0.044 C 
ATOM     16  C   UNL     1      -5.926  -2.869   0.778  0.00  0.00    +0.016 C 
ATOM     17  C   UNL     1      -6.022  -3.626   2.104  0.00  0.00    +0.001 C 
ATOM     18  C   UNL     1      -7.490  -3.748   2.517  0.00  0.00    +0.000 C 
ATOM     19  C   UNL     1      -8.261  -4.512   1.438  0.00  0.00    +0.001 C 
ATOM     20  C   UNL     1      -8.166  -3.755   0.112  0.00  0.00    +0.016 C 
ATOM     21  C   UNL     1      -6.602  -2.876  -1.627  0.00  0.00    +0.021 C 
ENDBRANCH  11  15
BRANCH   1  23
ATOM     22  N   UNL     1      -0.593  -3.864  -2.736  0.00  0.00    -0.315 N 
ATOM     23  C   UNL     1      -1.428  -4.175  -1.726  0.00  0.00    +0.218 C 
ATOM     24  O   UNL     1      -1.018  -4.196  -0.585  0.00  0.00    -0.275 OA
ATOM     25  H   UNL     1      -0.921  -3.848  -3.649  0.00  0.00    +0.149 HD
BRANCH  22  26
ATOM     26  C   UNL     1       0.810  -3.550  -2.457  0.00  0.00    +0.107 C 
BRANCH  26  27
ATOM     27  C   UNL     1       1.533  -3.234  -3.768  0.00  0.00    +0.006 C 
BRANCH  27  29
ATOM     28  C   UNL     1       1.568  -1.724  -5.758  0.00  0.00    +0.004 C 
ATOM     29  C   UNL     1       0.948  -1.960  -4.379  0.00  0.00    +0.002 C 
ENDBRANCH  27  29
BRANCH  27  30
ATOM     30  C   UNL     1       3.024  -3.029  -3.491  0.00  0.00    +0.002 C 
ATOM     31  C   UNL     1       3.641  -4.345  -3.015  0.00  0.00    +0.004 C 
ENDBRANCH  27  30
ENDBRANCH  26  27
ENDBRANCH  22  26
ENDBRANCH   1  23
TORSDOF 6
