REMARK  Name = ZINC08120840
REMARK  8 active torsions:
REMARK  status: ('A' for Active; 'I' for Inactive)
REMARK    1  A    between atoms: C_1  and  C_2
REMARK    2  A    between atoms: C_2  and  C_4
REMARK    3  A    between atoms: C_2  and  N_41
REMARK    4  A    between atoms: N_9  and  C_10
REMARK    5  A    between atoms: C_11  and  N_41
REMARK    6  A    between atoms: C_12  and  C_13
REMARK    7  A    between atoms: C_12  and  N_41
REMARK    8  A    between atoms: N_15  and  C_16
REMARK                            x       y       z     vdW  Elec       q    Type
REMARK                         _______ _______ _______ _____ _____    ______ ____
ROOT
ATOM      1  C   UNL     1      -2.200   0.250   1.007  0.00  0.00    -0.094 C 
ATOM      2  N   UNL     1      -2.410   1.107  -0.179  0.00  0.00    +0.391 N 
ATOM      3  H   UNL     1      -2.457   0.514  -1.015  0.00  0.00    -0.080 HD
ENDROOT
BRANCH   2   5
ATOM      4  C   UNL     1      -1.364   3.150   0.740  0.00  0.00    -0.004 C 
ATOM      5  C   UNL     1      -1.283   2.053  -0.324  0.00  0.00    +0.017 C 
BRANCH   5   6
ATOM      6  C   UNL     1      -1.347   2.676  -1.694  0.00  0.00    +0.207 C 
ATOM      7  O   UNL     1      -2.305   2.471  -2.409  0.00  0.00    -0.277 OA
ATOM      8  N   UNL     1      -0.342   3.466  -2.123  0.00  0.00    -0.242 N 
ATOM      9  C   UNL     1      -0.402   4.027  -3.347  0.00  0.00    +0.306 C 
ATOM     10  O   UNL     1      -1.362   3.822  -4.064  0.00  0.00    -0.252 OA
ATOM     11  N   UNL     1       0.603   4.816  -3.776  0.00  0.00    -0.302 N 
ATOM     12  C   UNL     1       0.538   5.427  -5.106  0.00  0.00    +0.129 C 
ATOM     13  H   UNL     1       0.424   3.629  -1.551  0.00  0.00    +0.159 HD
ATOM     14  H   UNL     1       1.369   4.980  -3.204  0.00  0.00    +0.150 HD
ENDBRANCH   5   6
ENDBRANCH   2   5
BRANCH   2  15
ATOM     15  C   UNL     1      -3.680   1.851  -0.046  0.00  0.00    +0.020 C 
BRANCH  15  16
ATOM     16  C   UNL     1      -4.826   0.875  -0.122  0.00  0.00    +0.201 C 
ATOM     17  O   UNL     1      -4.604  -0.310  -0.254  0.00  0.00    -0.278 OA
ATOM     18  N   UNL     1      -6.096   1.319  -0.043  0.00  0.00    -0.286 N 
ATOM     19  H   UNL     1      -6.272   2.255   0.141  0.00  0.00    +0.155 HD
BRANCH  18  20
ATOM     20  C   UNL     1      -7.161   0.429  -0.226  0.00  0.00    +0.047 A 
ATOM     21  C   UNL     1      -6.953  -0.780  -0.877  0.00  0.00    +0.024 A 
ATOM     22  C   UNL     1      -8.005  -1.657  -1.053  0.00  0.00    +0.002 A 
ATOM     23  C   UNL     1      -9.266  -1.329  -0.591  0.00  0.00    +0.001 A 
ATOM     24  C   UNL     1      -9.478  -0.124   0.053  0.00  0.00    +0.017 A 
ATOM     25  C   UNL     1      -8.429   0.757   0.237  0.00  0.00    +0.039 A 
ATOM     26 BR   UNL     1      -8.719   2.405   1.117  0.00  0.00    -0.048 Br
ENDBRANCH  18  20
ENDBRANCH  15  16
ENDBRANCH   2  15
TORSDOF 5
