REMARK  Name = ZINC12520456
REMARK  7 active torsions:
REMARK  status: ('A' for Active; 'I' for Inactive)
REMARK    1  A    between atoms: C_1  and  C_2
REMARK    2  A    between atoms: C_2  and  O_3
REMARK    3  A    between atoms: O_3  and  C_4
REMARK    4  A    between atoms: C_6  and  C_15
REMARK    5  A    between atoms: C_9  and  O_10
REMARK    6  A    between atoms: O_10  and  C_11
REMARK    7  A    between atoms: C_11  and  C_12
REMARK                            x       y       z     vdW  Elec       q    Type
REMARK                         _______ _______ _______ _____ _____    ______ ____
ROOT
ATOM      1  C   UNL     1       0.655  -4.954  -0.020  0.00  0.00    +0.209 C 
ATOM      2  N   UNL     1       0.417  -6.118   0.853  0.00  0.00    -0.294 N 
ATOM      3  C   UNL     1      -0.331  -7.169   0.341  0.00  0.00    +0.159 C 
ATOM      4  N   UNL     1       0.077  -7.678  -0.892  0.00  0.00    -0.259 N 
ATOM      5  C   UNL     1       0.604  -6.739  -1.775  0.00  0.00    +0.205 A 
ATOM      6  N   UNL     1       0.892  -5.451  -1.380  0.00  0.00    -0.288 N 
ATOM      7  C   UNL     1       1.402  -4.798  -2.466  0.00  0.00    +0.072 A 
ATOM      8  C   UNL     1       1.865  -3.502  -2.659  0.00  0.00    +0.028 A 
ATOM      9  C   UNL     1       2.321  -3.177  -3.926  0.00  0.00    +0.002 A 
ATOM     10  C   UNL     1       2.321  -4.093  -4.964  0.00  0.00    +0.002 A 
ATOM     11  C   UNL     1       1.866  -5.388  -4.798  0.00  0.00    +0.030 A 
ATOM     12  C   UNL     1       1.401  -5.740  -3.526  0.00  0.00    +0.091 A 
ATOM     13  N   UNL     1       0.901  -6.897  -3.036  0.00  0.00    -0.214 NA
ATOM     14  N   UNL     1      -1.358  -7.655   0.978  0.00  0.00    -0.375 N 
ATOM     15  H   UNL     1       0.771  -6.148   1.755  0.00  0.00    +0.151 HD
ATOM     16  H   UNL     1      -1.619  -7.281   1.835  0.00  0.00    +0.158 HD
ATOM     17  H   UNL     1      -0.001  -8.618  -1.119  0.00  0.00    +0.158 HD
ATOM     18  H   UNL     1      -1.863  -8.390   0.597  0.00  0.00    +0.158 HD
ENDROOT
BRANCH   1  21
ATOM     19  C   UNL     1      -1.498  -1.849   0.006  0.00  0.00    +0.163 A 
ATOM     20  C   UNL     1      -0.389  -2.680  -0.003  0.00  0.00    +0.056 A 
ATOM     21  C   UNL     1      -0.553  -4.052  -0.009  0.00  0.00    -0.002 A 
ATOM     22  C   UNL     1      -1.822  -4.600  -0.006  0.00  0.00    +0.026 A 
ATOM     23  C   UNL     1      -2.934  -3.777   0.003  0.00  0.00    +0.064 A 
ATOM     24  C   UNL     1      -2.776  -2.400   0.016  0.00  0.00    +0.176 A 
ATOM     25 BR   UNL     1      -4.668  -4.531   0.006  0.00  0.00    -0.046 Br
BRANCH  19  26
ATOM     26  O   UNL     1      -1.339  -0.499   0.012  0.00  0.00    -0.489 OA
BRANCH  26  28
ATOM     27  C   UNL     1      -0.019   1.526   0.010  0.00  0.00    +0.048 C 
ATOM     28  C   UNL     1       0.002  -0.004   0.002  0.00  0.00    +0.226 C 
ENDBRANCH  26  28
ENDBRANCH  19  26
BRANCH  24  29
ATOM     29  O   UNL     1      -3.868  -1.589   0.030  0.00  0.00    -0.483 OA
BRANCH  29  30
ATOM     30  C   UNL     1      -4.401  -1.195  -1.236  0.00  0.00    +0.256 C 
BRANCH  30  31
ATOM     31  C   UNL     1      -5.598  -0.305  -1.022  0.00  0.00    +0.006 C 
ATOM     32  C   UNL     1      -5.732   0.792  -1.724  0.00  0.00    +0.007 C 
ENDBRANCH  30  31
ENDBRANCH  29  30
ENDBRANCH  24  29
ENDBRANCH   1  21
TORSDOF 6
