REMARK  Name = ZINC08772556
REMARK  12 active torsions:
REMARK  status: ('A' for Active; 'I' for Inactive)
REMARK    1  A    between atoms: C_1  and  C_2
REMARK    2  A    between atoms: C_5  and  C_8
REMARK    3  A    between atoms: C_8  and  N_9
REMARK    4  A    between atoms: C_10  and  C_12
REMARK    5  A    between atoms: C_17  and  N_18
REMARK    6  A    between atoms: C_19  and  C_21
REMARK    7  A    between atoms: C_21  and  N_60
REMARK    8  A    between atoms: C_22  and  C_24
REMARK    9  A    between atoms: C_22  and  C_25
REMARK   10  A    between atoms: C_22  and  N_60
REMARK   11  A    between atoms: C_30  and  O_31
REMARK   12  A    between atoms: O_31  and  C_32
REMARK                            x       y       z     vdW  Elec       q    Type
REMARK                         _______ _______ _______ _____ _____    ______ ____
ROOT
ATOM      1  C   UNL     1       1.142   5.884   3.046  0.00  0.00    +0.058 A 
ATOM      2  C   UNL     1       1.048   4.981   4.107  0.00  0.00    +0.015 A 
ATOM      3  C   UNL     1       1.056   5.443   5.405  0.00  0.00    +0.001 A 
ATOM      4  C   UNL     1       1.145   6.801   5.664  0.00  0.00    +0.002 A 
ATOM      5  C   UNL     1       1.233   7.706   4.625  0.00  0.00    +0.024 A 
ATOM      6  C   UNL     1       1.232   7.259   3.311  0.00  0.00    +0.045 A 
ENDROOT
BRANCH   1   8
ATOM      7  N   UNL     1       1.153   4.072   1.404  0.00  0.00    -0.307 N 
ATOM      8  C   UNL     1       1.140   5.396   1.653  0.00  0.00    +0.246 C 
ATOM      9  O   UNL     1       1.125   6.188   0.731  0.00  0.00    -0.270 OA
ATOM     10  H   UNL     1       1.165   3.439   2.139  0.00  0.00    +0.149 HD
BRANCH   7  11
ATOM     11  C   UNL     1       1.151   3.587   0.021  0.00  0.00    +0.139 C 
BRANCH  11  16
ATOM     12  C   UNL     1       1.217  -2.192   0.005  0.00  0.00    +0.044 C 
ATOM     13  C   UNL     1       1.200  -0.685   0.009  0.00  0.00    -0.050 A 
ATOM     14  C   UNL     1      -0.005  -0.007   0.019  0.00  0.00    +0.003 A 
ATOM     15  C   UNL     1      -0.021   1.375   0.023  0.00  0.00    +0.005 A 
ATOM     16  C   UNL     1       1.168   2.080   0.018  0.00  0.00    -0.030 A 
ATOM     17  C   UNL     1       2.373   1.402   0.008  0.00  0.00    +0.005 A 
ATOM     18  C   UNL     1       2.389   0.020   0.004  0.00  0.00    +0.003 A 
ENDBRANCH  11  16
ENDBRANCH   7  11
ENDBRANCH   1   8
BRANCH   6  19
ATOM     19  N   UNL     1       1.321   8.170   2.261  0.00  0.00    -0.286 N 
ATOM     20  C   UNL     1       2.067   9.284   2.398  0.00  0.00    +0.200 C 
ATOM     21  O   UNL     1       2.736   9.447   3.396  0.00  0.00    -0.278 OA
ATOM     22  H   UNL     1       0.846   8.002   1.432  0.00  0.00    +0.155 HD
BRANCH  20  23
ATOM     23  C   UNL     1       2.069  10.327   1.310  0.00  0.00    +0.016 C 
BRANCH  23  24
ATOM     24  N   UNL     1       2.959  11.435   1.704  0.00  0.00    +0.389 N 
ATOM     25  H   UNL     1       3.910  11.073   1.842  0.00  0.00    -0.084 HD
ATOM     26  H   UNL     1       2.619  11.847   2.582  0.00  0.00    -0.084 HD
BRANCH  24  27
ATOM     27  C   UNL     1       2.981  12.473   0.656  0.00  0.00    -0.040 C 
ATOM     28  C   UNL     1       1.804  13.429   0.860  0.00  0.00    -0.009 C 
BRANCH  27  29
ATOM     29  C   UNL     1       4.274  13.242   0.748  0.00  0.00    -0.020 A 
ATOM     30  C   UNL     1       5.008  13.223   1.918  0.00  0.00    +0.005 A 
ATOM     31  C   UNL     1       6.196  13.925   2.001  0.00  0.00    +0.000 A 
ATOM     32  C   UNL     1       6.648  14.654   0.917  0.00  0.00    +0.004 A 
ATOM     33  C   UNL     1       5.915  14.680  -0.253  0.00  0.00    +0.046 A 
ATOM     34  C   UNL     1       4.725  13.973  -0.341  0.00  0.00    +0.122 A 
BRANCH  34  35
ATOM     35  O   UNL     1       4.002  13.997  -1.492  0.00  0.00    -0.495 OA
ATOM     36  C   UNL     1       4.527  14.771  -2.572  0.00  0.00    +0.277 C 
ENDBRANCH  34  35
ENDBRANCH  27  29
ENDBRANCH  24  27
ENDBRANCH  23  24
ENDBRANCH  20  23
ENDBRANCH   6  19
TORSDOF 9
