REMARK  Name = ZINC35863659
REMARK  5 active torsions:
REMARK  status: ('A' for Active; 'I' for Inactive)
REMARK    1  A    between atoms: C_3  and  C_31
REMARK    2  A    between atoms: C_5  and  N_7
REMARK    3  A    between atoms: N_10  and  C_13
REMARK    4  A    between atoms: C_13  and  C_14
REMARK    5  A    between atoms: N_23  and  C_24
REMARK                            x       y       z     vdW  Elec       q    Type
REMARK                         _______ _______ _______ _____ _____    ______ ____
ROOT
ATOM      1  C   UNL     1       1.920  -6.682  -2.225  0.00  0.00    -0.045 C 
ENDROOT
BRANCH   1   2
ATOM      2  C   UNL     1       0.581  -7.320  -1.850  0.00  0.00    +0.119 C 
ATOM      3  C   UNL     1       0.328  -8.542  -2.741  0.00  0.00    +0.139 C 
ATOM      4  N   UNL     1      -0.864  -9.244  -2.239  0.00  0.00    -0.281 N 
ATOM      5  C   UNL     1      -0.923  -9.568  -0.805  0.00  0.00    +0.137 C 
ATOM      6  C   UNL     1      -0.610  -8.297  -0.008  0.00  0.00    +0.179 C 
ATOM      7  O   UNL     1       0.616  -7.734  -0.481  0.00  0.00    -0.375 OA
ATOM      8  C   UNL     1      -1.872  -9.579  -3.069  0.00  0.00    +0.307 C 
ATOM      9  O   UNL     1      -1.757  -9.405  -4.267  0.00  0.00    -0.252 OA
ATOM     10  N   UNL     1      -3.007 -10.107  -2.571  0.00  0.00    -0.269 N 
ATOM     11  H   UNL     1      -3.155 -10.123  -1.612  0.00  0.00    +0.156 HD
BRANCH  10  12
ATOM     12  C   UNL     1      -3.973 -10.633  -3.437  0.00  0.00    +0.036 A 
ATOM     13  C   UNL     1      -4.024 -10.212  -4.759  0.00  0.00    +0.023 A 
ATOM     14  C   UNL     1      -4.978 -10.733  -5.612  0.00  0.00    +0.003 A 
ATOM     15  C   UNL     1      -5.882 -11.671  -5.150  0.00  0.00    +0.020 A 
ATOM     16  C   UNL     1      -5.835 -12.092  -3.833  0.00  0.00    +0.043 A 
ATOM     17  C   UNL     1      -4.878 -11.579  -2.976  0.00  0.00    +0.043 A 
ATOM     18 CL   UNL     1      -6.972 -13.271  -3.257  0.00  0.00    -0.083 Cl
ENDBRANCH  10  12
ENDBRANCH   1   2
BRANCH   1  22
ATOM     19  N   UNL     1       2.711  -2.838  -0.773  0.00  0.00    -0.333 N 
ATOM     20  C   UNL     1       3.797  -3.826  -0.677  0.00  0.00    +0.086 C 
ATOM     21  C   UNL     1       3.498  -4.973  -1.648  0.00  0.00    -0.060 C 
ATOM     22  N   UNL     1       2.162  -5.513  -1.369  0.00  0.00    +0.383 N 
ATOM     23  C   UNL     1       1.143  -4.491  -1.639  0.00  0.00    -0.060 C 
ATOM     24  C   UNL     1       1.325  -3.319  -0.662  0.00  0.00    +0.086 C 
ATOM     25  H   UNL     1       2.108  -5.792  -0.401  0.00  0.00    -0.082 HD
BRANCH  19  30
ATOM     26  C   UNL     1       4.568   0.319  -1.076  0.00  0.00    +0.002 A 
ATOM     27  C   UNL     1       3.536   1.205  -1.326  0.00  0.00    +0.012 A 
ATOM     28  C   UNL     1       2.232   0.752  -1.392  0.00  0.00    +0.057 A 
ATOM     29  C   UNL     1       1.954  -0.588  -1.209  0.00  0.00    +0.035 A 
ATOM     30  C   UNL     1       2.988  -1.482  -0.958  0.00  0.00    +0.030 A 
ATOM     31  C   UNL     1       4.298  -1.023  -0.892  0.00  0.00    +0.023 A 
BRANCH  28  32
ATOM     32  C   UNL     1       1.111   1.722  -1.663  0.00  0.00    +0.417 C 
ATOM     33  F   UNL     1       1.635   3.011  -1.811  0.00  0.00    -0.166 F 
ATOM     34  F   UNL     1       0.447   1.351  -2.838  0.00  0.00    -0.166 F 
ATOM     35  F   UNL     1       0.210   1.706  -0.593  0.00  0.00    -0.166 F 
ENDBRANCH  28  32
ENDBRANCH  19  30
ENDBRANCH   1  22
TORSDOF 5
