REMARK  Name = ZINC02097842
REMARK  12 active torsions:
REMARK  status: ('A' for Active; 'I' for Inactive)
REMARK    1  A    between atoms: C_1  and  C_2
REMARK    2  A    between atoms: C_2  and  C_4
REMARK    3  A    between atoms: C_2  and  S_20
REMARK    4  A    between atoms: N_6  and  N_7
REMARK    5  A    between atoms: C_8  and  C_9
REMARK    6  A    between atoms: C_18  and  O_19
REMARK    7  A    between atoms: S_20  and  C_21
REMARK    8  A    between atoms: C_24  and  C_29
REMARK    9  A    between atoms: N_25  and  C_26
REMARK   10  A    between atoms: C_26  and  C_27
REMARK   11  A    between atoms: C_29  and  N_30
REMARK   12  A    between atoms: N_30  and  C_31
REMARK                            x       y       z     vdW  Elec       q    Type
REMARK                         _______ _______ _______ _____ _____    ______ ____
ROOT
ATOM      1  C   UNL     1      -0.019   1.526   0.010  0.00  0.00    +0.029 C 
ATOM      2  C   UNL     1       0.002  -0.004   0.002  0.00  0.00    +0.139 C 
ENDROOT
BRANCH   2   3
ATOM      3  C   UNL     1      -1.412  -0.526   0.013  0.00  0.00    +0.245 C 
ATOM      4  O   UNL     1      -1.928  -0.901  -1.019  0.00  0.00    -0.273 OA
ATOM      5  N   UNL     1      -2.103  -0.575   1.169  0.00  0.00    -0.206 N 
ATOM      6  H   UNL     1      -1.691  -0.275   1.994  0.00  0.00    +0.177 HD
BRANCH   5   7
ATOM      7  N   UNL     1      -3.417  -1.060   1.179  0.00  0.00    -0.188 NA
ATOM      8  C   UNL     1      -4.084  -1.107   2.293  0.00  0.00    +0.142 C 
BRANCH   8   9
ATOM      9  C   UNL     1      -5.463  -1.616   2.304  0.00  0.00    +0.044 A 
ATOM     10  C   UNL     1      -6.229  -1.671   3.547  0.00  0.00    -0.006 A 
ATOM     11  C   UNL     1      -5.681  -1.244   4.763  0.00  0.00    +0.009 A 
ATOM     12  C   UNL     1      -6.430  -1.311   5.900  0.00  0.00    +0.001 A 
ATOM     13  C   UNL     1      -7.734  -1.799   5.870  0.00  0.00    +0.001 A 
ATOM     14  C   UNL     1      -8.298  -2.223   4.705  0.00  0.00    +0.008 A 
ATOM     15  C   UNL     1      -7.555  -2.168   3.513  0.00  0.00    -0.017 A 
ATOM     16  C   UNL     1      -8.104  -2.595   2.291  0.00  0.00    +0.012 A 
ATOM     17  C   UNL     1      -7.378  -2.537   1.144  0.00  0.00    +0.046 A 
ATOM     18  C   UNL     1      -6.071  -2.052   1.126  0.00  0.00    +0.126 A 
BRANCH  18  19
ATOM     19  O   UNL     1      -5.384  -2.007  -0.044  0.00  0.00    -0.506 OA
ATOM     20  H   UNL     1      -4.882  -2.811  -0.237  0.00  0.00    +0.292 HD
ENDBRANCH  18  19
ENDBRANCH   8   9
ENDBRANCH   5   7
ENDBRANCH   2   3
BRANCH   2  21
ATOM     21  S   UNL     1       0.851  -0.589  -1.490  0.00  0.00    -0.073 S 
BRANCH  21  22
ATOM     22  C   UNL     1       2.509  -0.029  -1.285  0.00  0.00    +0.193 A 
ATOM     23  N   UNL     1       2.983   0.649  -0.266  0.00  0.00    -0.122 NA
ATOM     24  N   UNL     1       4.232   0.891  -0.446  0.00  0.00    -0.132 NA
ATOM     25  C   UNL     1       4.627   0.387  -1.581  0.00  0.00    +0.152 A 
ATOM     26  N   UNL     1       3.545  -0.222  -2.153  0.00  0.00    -0.301 N 
BRANCH  26  27
ATOM     27  C   UNL     1       3.505  -0.932  -3.434  0.00  0.00    +0.152 C 
BRANCH  27  28
ATOM     28  C   UNL     1       3.163   0.038  -4.536  0.00  0.00    -0.013 C 
ATOM     29  C   UNL     1       3.952   0.152  -5.575  0.00  0.00    +0.005 C 
ENDBRANCH  27  28
ENDBRANCH  26  27
BRANCH  25  30
ATOM     30  C   UNL     1       6.019   0.457  -2.153  0.00  0.00    +0.178 C 
BRANCH  30  31
ATOM     31  N   UNL     1       6.791  -0.704  -1.701  0.00  0.00    -0.337 N 
ATOM     32  H   UNL     1       6.380  -1.364  -1.122  0.00  0.00    +0.147 HD
BRANCH  31  33
ATOM     33  C   UNL     1       8.120  -0.859  -2.105  0.00  0.00    +0.028 A 
ATOM     34  C   UNL     1       8.712   0.089  -2.930  0.00  0.00    +0.024 A 
ATOM     35  C   UNL     1      10.025  -0.067  -3.328  0.00  0.00    +0.022 A 
ATOM     36  C   UNL     1      10.752  -1.167  -2.905  0.00  0.00    +0.041 A 
ATOM     37  C   UNL     1      10.165  -2.112  -2.083  0.00  0.00    +0.022 A 
ATOM     38  C   UNL     1       8.853  -1.959  -1.678  0.00  0.00    +0.024 A 
ATOM     39 CL   UNL     1      12.402  -1.360  -3.407  0.00  0.00    -0.084 Cl
ENDBRANCH  31  33
ENDBRANCH  30  31
ENDBRANCH  25  30
ENDBRANCH  21  22
ENDBRANCH   2  21
TORSDOF 11
