REMARK  Name = ZINC39537338
REMARK  5 active torsions:
REMARK  status: ('A' for Active; 'I' for Inactive)
REMARK    1  A    between atoms: C_4  and  C_7
REMARK    2  A    between atoms: N_12  and  C_18
REMARK    3  A    between atoms: C_18  and  C_19
REMARK    4  A    between atoms: C_22  and  S_24
REMARK    5  A    between atoms: S_24  and  C_25
REMARK                            x       y       z     vdW  Elec       q    Type
REMARK                         _______ _______ _______ _____ _____    ______ ____
ROOT
ATOM      1  C   UNL     1       3.711  -0.707  -0.038  0.00  0.00    +0.126 C 
ATOM      2  C   UNL     1       4.049  -1.246   1.358  0.00  0.00    +0.044 C 
ATOM      3  C   UNL     1       5.354  -0.659   1.899  0.00  0.00    -0.067 C 
ATOM      4  N   UNL     1       5.761  -1.441   3.077  0.00  0.00    +0.385 N 
ATOM      5  C   UNL     1       6.153  -2.805   2.716  0.00  0.00    -0.072 C 
ATOM      6  C   UNL     1       4.938  -3.590   2.190  0.00  0.00    +0.034 C 
ATOM      7  C   UNL     1       4.293  -2.730   1.116  0.00  0.00    +0.038 C 
ATOM      8  N   UNL     1       3.998  -3.022  -0.073  0.00  0.00    -0.195 NA
ATOM      9  N   UNL     1       3.614  -1.929  -0.859  0.00  0.00    -0.261 N 
ATOM     10  H   UNL     1       3.331  -1.966  -1.786  0.00  0.00    +0.169 HD
ATOM     11  H   UNL     1       4.990  -1.481   3.727  0.00  0.00    -0.081 HD
ENDROOT
BRANCH   1  15
ATOM     12  C   UNL     1      -0.017   1.378   0.010  0.00  0.00    +0.000 A 
ATOM     13  C   UNL     1       1.171   2.086   0.002  0.00  0.00    +0.000 A 
ATOM     14  C   UNL     1       2.377   1.411  -0.013  0.00  0.00    +0.005 A 
ATOM     15  C   UNL     1       2.396   0.029  -0.020  0.00  0.00    -0.025 A 
ATOM     16  C   UNL     1       1.208  -0.679  -0.012  0.00  0.00    +0.005 A 
ATOM     17  C   UNL     1       0.002  -0.004   0.002  0.00  0.00    +0.000 A 
ENDBRANCH   1  15
BRANCH   4  18
ATOM     18  C   UNL     1       6.896  -0.773   3.726  0.00  0.00    -0.003 C 
BRANCH  18  19
ATOM     19  C   UNL     1       7.243  -1.496   5.002  0.00  0.00    +0.090 A 
ATOM     20  C   UNL     1       8.119  -2.510   5.116  0.00  0.00    +0.044 A 
ATOM     21  C   UNL     1       8.137  -2.888   6.478  0.00  0.00    +0.057 A 
ATOM     22  C   UNL     1       7.264  -2.076   7.120  0.00  0.00    +0.169 A 
ATOM     23  O   UNL     1       6.731  -1.233   6.219  0.00  0.00    -0.455 OA
BRANCH  22  24
ATOM     24  S   UNL     1       6.896  -2.113   8.843  0.00  0.00    -0.013 S 
BRANCH  24  25
ATOM     25  C   UNL     1       5.705  -0.831   9.052  0.00  0.00    +0.192 A 
ATOM     26  H   UNL     1       5.257  -0.876  11.085  0.00  0.00    +0.191 HD
ATOM     27  N   UNL     1       5.231  -0.051   8.103  0.00  0.00    -0.209 NA
ATOM     28  C   UNL     1       4.348   0.803   8.622  0.00  0.00    +0.245 A 
ATOM     29  N   UNL     1       4.245   0.584   9.906  0.00  0.00    -0.160 NA
ATOM     30  N   UNL     1       5.111  -0.477  10.213  0.00  0.00    -0.253 N 
ENDBRANCH  24  25
ENDBRANCH  22  24
ENDBRANCH  18  19
ENDBRANCH   4  18
TORSDOF 5
