REMARK  Name = ZINC21866040
REMARK  12 active torsions:
REMARK  status: ('A' for Active; 'I' for Inactive)
REMARK    1  A    between atoms: C_1  and  C_2
REMARK    2  A    between atoms: C_2  and  C_3
REMARK    3  A    between atoms: C_2  and  C_4
REMARK    4  A    between atoms: C_4  and  C_5
REMARK    5  A    between atoms: C_5  and  N_6
REMARK    6  A    between atoms: C_10  and  N_33
REMARK    7  A    between atoms: C_13  and  O_31
REMARK    8  A    between atoms: C_19  and  C_20
REMARK    9  A    between atoms: C_19  and  C_21
REMARK   10  A    between atoms: N_23  and  C_24
REMARK   11  A    between atoms: O_31  and  C_32
REMARK   12  A    between atoms: C_34  and  C_36
REMARK                            x       y       z     vdW  Elec       q    Type
REMARK                         _______ _______ _______ _____ _____    ______ ____
ROOT
ATOM      1  N   UNL     1      -2.256   1.069   5.852  0.00  0.00    -0.281 N 
ATOM      2  C   UNL     1      -1.899  -0.211   5.601  0.00  0.00    +0.266 C 
ATOM      3  O   UNL     1      -2.725  -1.100   5.507  0.00  0.00    -0.268 OA
ATOM      4  C   UNL     1      -0.465  -0.473   5.444  0.00  0.00    +0.127 A 
ATOM      5  C   UNL     1       0.175  -1.599   4.998  0.00  0.00    +0.072 A 
ATOM      6  C   UNL     1       1.599  -1.297   5.025  0.00  0.00    +0.025 A 
ATOM      7  C   UNL     1       2.718  -2.062   4.677  0.00  0.00    +0.057 A 
ATOM      8  C   UNL     1       3.957  -1.456   4.819  0.00  0.00    +0.121 A 
ATOM      9  C   UNL     1       4.084  -0.152   5.285  0.00  0.00    +0.047 A 
ATOM     10  C   UNL     1       2.991   0.618   5.634  0.00  0.00    +0.030 A 
ATOM     11  C   UNL     1       1.729   0.034   5.503  0.00  0.00    +0.052 A 
ATOM     12  N   UNL     1       0.483   0.511   5.759  0.00  0.00    -0.332 N 
ATOM     13  C   UNL     1       0.072   1.819   6.287  0.00  0.00    +0.157 C 
ATOM     14  C   UNL     1      -1.308   2.171   5.736  0.00  0.00    +0.128 C 
ATOM     15  C   UNL     1      -1.854   3.377   6.504  0.00  0.00    +0.043 C 
ENDROOT
BRANCH   5  16
ATOM     16  N   UNL     1      -0.418  -2.793   4.599  0.00  0.00    -0.283 N 
ATOM     17  C   UNL     1      -0.526  -3.816   5.471  0.00  0.00    +0.214 C 
ATOM     18  O   UNL     1      -0.195  -3.664   6.627  0.00  0.00    -0.276 OA
ATOM     19  C   UNL     1      -1.059  -5.147   5.007  0.00  0.00    +0.109 C 
ATOM     20  H   UNL     1      -0.798  -2.903   3.573  0.00  0.00    +0.155 HD
ENDBRANCH   5  16
BRANCH  14  21
ATOM     21  C   UNL     1      -1.170   2.543   4.282  0.00  0.00    +0.238 C 
ATOM     22  O   UNL     1      -1.002   3.702   3.966  0.00  0.00    -0.273 OA
ATOM     23  N   UNL     1      -1.233   1.588   3.333  0.00  0.00    -0.311 N 
ATOM     24  H   UNL     1      -1.386   0.537   3.620  0.00  0.00    +0.149 HD
BRANCH  23  25
ATOM     25  C   UNL     1      -1.099   1.950   1.920  0.00  0.00    +0.073 C 
ATOM     26  C   UNL     1      -2.471   2.413   1.390  0.00  0.00    +0.022 C 
ATOM     27  C   UNL     1      -2.250   3.245   0.155  0.00  0.00    +0.002 C 
ATOM     28  C   UNL     1      -2.353   2.414  -1.139  0.00  0.00    +0.000 C 
ATOM     29  C   UNL     1      -1.665   1.041  -1.024  0.00  0.00    +0.000 C 
ATOM     30  C   UNL     1      -0.345   1.117  -0.304  0.00  0.00    +0.002 C 
ATOM     31  C   UNL     1      -0.582   0.803   1.187  0.00  0.00    +0.022 C 
ENDBRANCH  23  25
ENDBRANCH  14  21
BRANCH   8  32
ATOM     32  O   UNL     1       5.077  -2.155   4.495  0.00  0.00    -0.495 OA
ATOM     33  C   UNL     1       6.330  -1.486   4.658  0.00  0.00    +0.277 C 
ENDBRANCH   8  32
BRANCH   1  34
ATOM     34  C   UNL     1      -3.634   1.356   6.259  0.00  0.00    +0.109 C 
BRANCH  34  35
ATOM     35  C   UNL     1      -4.486   1.630   5.018  0.00  0.00    +0.022 C 
BRANCH  35  37
ATOM     36  C   UNL     1      -6.747   2.325   4.214  0.00  0.00    +0.007 C 
ATOM     37  C   UNL     1      -5.925   1.930   5.442  0.00  0.00    -0.016 C 
ATOM     38  C   UNL     1      -6.537   0.684   6.086  0.00  0.00    +0.007 C 
ENDBRANCH  35  37
ENDBRANCH  34  35
ENDBRANCH   1  34
TORSDOF 7
