REMARK  Name = ZINC35861406
REMARK  10 active torsions:
REMARK  status: ('A' for Active; 'I' for Inactive)
REMARK    1  A    between atoms: C_1  and  O_2
REMARK    2  A    between atoms: O_2  and  C_3
REMARK    3  A    between atoms: C_3  and  C_4
REMARK    4  A    between atoms: C_4  and  N_5
REMARK    5  A    between atoms: C_6  and  C_8
REMARK    6  A    between atoms: C_11  and  C_13
REMARK    7  A    between atoms: C_13  and  O_14
REMARK    8  A    between atoms: O_14  and  C_15
REMARK    9  A    between atoms: C_21  and  C_33
REMARK   10  A    between atoms: C_26  and  C_28
REMARK                            x       y       z     vdW  Elec       q    Type
REMARK                         _______ _______ _______ _____ _____    ______ ____
ROOT
ATOM      1  C   UNL     1       4.806  -2.097  -6.886  0.00  0.00    +0.121 A 
ATOM      2  C   UNL     1       6.093  -1.694  -7.212  0.00  0.00    +0.046 A 
ATOM      3  C   UNL     1       6.392  -1.344  -8.511  0.00  0.00    +0.007 A 
ATOM      4  C   UNL     1       5.417  -1.393  -9.501  0.00  0.00    -0.040 A 
ATOM      5  C   UNL     1       4.142  -1.803  -9.180  0.00  0.00    -0.016 A 
ATOM      6  C   UNL     1       3.837  -2.154  -7.873  0.00  0.00    +0.051 A 
ATOM      7  C   UNL     1       3.046  -1.907 -10.210  0.00  0.00    +0.137 C 
ATOM      8  N   UNL     1       3.473  -1.258 -11.454  0.00  0.00    -0.284 N 
ATOM      9  C   UNL     1       4.839  -1.537 -11.927  0.00  0.00    +0.114 C 
ATOM     10  C   UNL     1       5.817  -0.981 -10.893  0.00  0.00    +0.054 C 
ATOM     11  C   UNL     1       2.648  -0.440 -12.137  0.00  0.00    +0.283 C 
ATOM     12  O   UNL     1       1.564  -0.141 -11.671  0.00  0.00    -0.267 OA
ENDROOT
BRANCH   7  13
ATOM     13  C   UNL     1       1.804  -1.228  -9.692  0.00  0.00    -0.022 A 
ATOM     14  C   UNL     1       1.844   0.108  -9.340  0.00  0.00    +0.008 A 
ATOM     15  C   UNL     1       0.706   0.733  -8.865  0.00  0.00    +0.038 A 
ATOM     16  C   UNL     1      -0.474   0.019  -8.741  0.00  0.00    +0.123 A 
ATOM     17  C   UNL     1      -0.513  -1.319  -9.094  0.00  0.00    +0.038 A 
ATOM     18  C   UNL     1       0.625  -1.940  -9.574  0.00  0.00    +0.008 A 
ATOM     19  F   UNL     1      -1.587   0.628  -8.277  0.00  0.00    -0.205 F 
ENDBRANCH   7  13
BRANCH  11  20
ATOM     20  C   UNL     1       3.056   0.090 -13.442  0.00  0.00    +0.189 A 
ATOM     21  C   UNL     1       2.383   1.026 -14.174  0.00  0.00    +0.054 A 
ATOM     22  C   UNL     1       3.128   1.234 -15.345  0.00  0.00    +0.042 A 
ATOM     23  C   UNL     1       4.210   0.427 -15.278  0.00  0.00    +0.196 A 
ATOM     24  O   UNL     1       4.165  -0.258 -14.127  0.00  0.00    -0.458 OA
ENDBRANCH  11  20
BRANCH   1  25
ATOM     25  O   UNL     1       4.500  -2.440  -5.607  0.00  0.00    -0.484 OA
BRANCH  25  26
ATOM     26  C   UNL     1       5.552  -2.356  -4.643  0.00  0.00    +0.303 C 
BRANCH  26  30
ATOM     27  C   UNL     1       4.132  -2.667  -1.293  0.00  0.00    +0.190 A 
ATOM     28  C   UNL     1       4.461  -3.973  -1.519  0.00  0.00    +0.055 A 
ATOM     29  C   UNL     1       5.034  -4.029  -2.799  0.00  0.00    +0.049 A 
ATOM     30  C   UNL     1       5.029  -2.771  -3.292  0.00  0.00    +0.143 A 
ATOM     31  O   UNL     1       4.480  -1.954  -2.384  0.00  0.00    -0.452 OA
BRANCH  27  33
ATOM     32  N   UNL     1       3.224  -0.819   0.013  0.00  0.00    -0.307 N 
ATOM     33  C   UNL     1       3.503  -2.134  -0.080  0.00  0.00    +0.279 C 
ATOM     34  O   UNL     1       3.233  -2.880   0.844  0.00  0.00    -0.267 OA
ATOM     35  H   UNL     1       3.439  -0.225  -0.723  0.00  0.00    +0.149 HD
BRANCH  32  36
ATOM     36  C   UNL     1       2.596  -0.287   1.225  0.00  0.00    +0.132 C 
BRANCH  36  37
ATOM     37  C   UNL     1       2.390   1.222   1.072  0.00  0.00    +0.178 C 
BRANCH  37  39
ATOM     38  C   UNL     1       1.189   2.856  -0.205  0.00  0.00    +0.194 C 
ATOM     39  O   UNL     1       1.454   1.470   0.021  0.00  0.00    -0.381 OA
ENDBRANCH  37  39
ENDBRANCH  36  37
ENDBRANCH  32  36
ENDBRANCH  27  33
ENDBRANCH  26  30
ENDBRANCH  25  26
ENDBRANCH   1  25
TORSDOF 9
