REMARK  Name = ZINC13452025
REMARK  7 active torsions:
REMARK  status: ('A' for Active; 'I' for Inactive)
REMARK    1  A    between atoms: C_1  and  C_2
REMARK    2  A    between atoms: C_2  and  C_4
REMARK    3  A    between atoms: C_2  and  O_33
REMARK    4  A    between atoms: C_7  and  N_10
REMARK    5  A    between atoms: C_11  and  C_13
REMARK    6  A    between atoms: C_17  and  C_28
REMARK    7  A    between atoms: C_20  and  C_24
REMARK                            x       y       z     vdW  Elec       q    Type
REMARK                         _______ _______ _______ _____ _____    ______ ____
ROOT
ATOM      1  C   UNL     1      -7.347  -2.700  -1.117  0.00  0.00    +0.110 C 
ATOM      2  C   UNL     1      -8.144  -2.776  -0.022  0.00  0.00    +0.072 C 
ATOM      3  C   UNL     1      -9.462  -3.216  -0.475  0.00  0.00    +0.114 C 
ATOM      4  N   UNL     1     -10.548  -3.442   0.208  0.00  0.00    -0.362 N 
ATOM      5  C   UNL     1     -11.746  -3.920  -0.493  0.00  0.00    +0.149 C 
ATOM      6  C   UNL     1     -11.797  -3.357  -1.914  0.00  0.00    +0.065 C 
ATOM      7  C   UNL     1     -10.527  -3.760  -2.678  0.00  0.00    +0.202 C 
ATOM      8  N   UNL     1      -9.380  -3.362  -1.855  0.00  0.00    -0.226 N 
ATOM      9  N   UNL     1      -8.079  -3.058  -2.238  0.00  0.00    -0.258 N 
ATOM     10  H   UNL     1      -7.737  -3.093  -3.146  0.00  0.00    +0.170 HD
ATOM     11  H   UNL     1     -10.565  -3.297   1.167  0.00  0.00    +0.162 HD
ENDROOT
BRANCH   5  12
ATOM     12  C   UNL     1     -12.973  -3.478   0.261  0.00  0.00    +0.127 A 
ATOM     13  C   UNL     1     -14.079  -4.216   0.465  0.00  0.00    +0.047 A 
ATOM     14  C   UNL     1     -14.973  -3.416   1.214  0.00  0.00    +0.041 A 
ATOM     15  C   UNL     1     -14.359  -2.237   1.423  0.00  0.00    +0.195 A 
ATOM     16  O   UNL     1     -13.146  -2.283   0.848  0.00  0.00    -0.466 OA
ENDBRANCH   5  12
BRANCH   1  18
ATOM     17  N   UNL     1      -5.319  -1.966   0.042  0.00  0.00    -0.280 N 
ATOM     18  C   UNL     1      -5.926  -2.294  -1.116  0.00  0.00    +0.264 C 
ATOM     19  O   UNL     1      -5.304  -2.255  -2.160  0.00  0.00    -0.268 OA
ATOM     20  H   UNL     1      -5.792  -2.070   0.883  0.00  0.00    +0.155 HD
BRANCH  17  24
ATOM     21  C   UNL     1      -1.418  -0.509   0.011  0.00  0.00    -0.019 A 
ATOM     22  C   UNL     1      -1.855  -1.287   1.067  0.00  0.00    +0.008 A 
ATOM     23  C   UNL     1      -3.148  -1.772   1.081  0.00  0.00    +0.023 A 
ATOM     24  C   UNL     1      -4.010  -1.477   0.032  0.00  0.00    +0.034 A 
ATOM     25  C   UNL     1      -3.567  -0.696  -1.028  0.00  0.00    +0.023 A 
ATOM     26  C   UNL     1      -2.275  -0.210  -1.033  0.00  0.00    +0.008 A 
BRANCH  21  28
ATOM     27  C   UNL     1       0.085   1.250   0.903  0.00  0.00    +0.043 C 
ATOM     28  C   UNL     1      -0.006   0.018  -0.001  0.00  0.00    +0.141 C 
BRANCH  28  29
ATOM     29  O   UNL     1       0.883  -0.992   0.480  0.00  0.00    -0.387 OA
ATOM     30  H   UNL     1       1.812  -0.721   0.500  0.00  0.00    +0.210 HD
ENDBRANCH  28  29
ENDBRANCH  21  28
ENDBRANCH  17  24
ENDBRANCH   1  18
BRANCH   7  31
ATOM     31  C   UNL     1     -10.478  -3.038  -4.026  0.00  0.00    +0.410 C 
ATOM     32  F   UNL     1     -10.469  -1.655  -3.814  0.00  0.00    -0.169 F 
ATOM     33  F   UNL     1      -9.318  -3.411  -4.714  0.00  0.00    -0.169 F 
ATOM     34  F   UNL     1     -11.602  -3.386  -4.783  0.00  0.00    -0.169 F 
ENDBRANCH   7  31
TORSDOF 6
