REMARK  Name = ZINC08970038
REMARK  12 active torsions:
REMARK  status: ('A' for Active; 'I' for Inactive)
REMARK    1  A    between atoms: C_1  and  C_2
REMARK    2  A    between atoms: C_2  and  C_3
REMARK    3  A    between atoms: C_2  and  C_4
REMARK    4  A    between atoms: C_2  and  C_5
REMARK    5  A    between atoms: C_8  and  C_11
REMARK    6  A    between atoms: N_12  and  N_13
REMARK    7  A    between atoms: N_20  and  C_21
REMARK    8  A    between atoms: C_24  and  O_27
REMARK    9  A    between atoms: O_27  and  C_28
REMARK   10  A    between atoms: N_29  and  C_30
REMARK   11  A    between atoms: C_33  and  O_36
REMARK   12  A    between atoms: O_36  and  C_37
REMARK                            x       y       z     vdW  Elec       q    Type
REMARK                         _______ _______ _______ _____ _____    ______ ____
ROOT
ATOM      1  N   UNL     1       5.778   3.679  -0.405  0.00  0.00    -0.205 N 
ATOM      2  C   UNL     1       4.577   4.299  -0.120  0.00  0.00    +0.241 A 
ATOM      3  N   UNL     1       4.520   5.623  -0.017  0.00  0.00    -0.179 NA
ATOM      4  C   UNL     1       3.365   6.220   0.258  0.00  0.00    +0.225 A 
ATOM      5  N   UNL     1       2.265   5.492   0.429  0.00  0.00    -0.181 NA
ATOM      6  C   UNL     1       2.321   4.168   0.325  0.00  0.00    +0.225 A 
ATOM      7  N   UNL     1       3.478   3.571   0.055  0.00  0.00    -0.179 NA
ATOM      8  N   UNL     1       1.179   3.412   0.503  0.00  0.00    -0.283 N 
ATOM      9  N   UNL     1       3.306   7.596   0.365  0.00  0.00    -0.283 N 
ATOM     10  H   UNL     1       6.596   4.199  -0.440  0.00  0.00    +0.177 HD
ATOM     11  H   UNL     1       0.355   3.838   0.788  0.00  0.00    +0.155 HD
ATOM     12  H   UNL     1       2.451   8.037   0.489  0.00  0.00    +0.155 HD
ENDROOT
BRANCH   8  13
ATOM     13  C   UNL     1       1.210   2.031   0.272  0.00  0.00    +0.034 A 
ATOM     14  C   UNL     1       1.936   1.522  -0.796  0.00  0.00    +0.027 A 
ATOM     15  C   UNL     1       1.967   0.160  -1.023  0.00  0.00    +0.047 A 
ATOM     16  C   UNL     1       1.272  -0.699  -0.184  0.00  0.00    +0.120 A 
ATOM     17  C   UNL     1       0.545  -0.191   0.883  0.00  0.00    +0.047 A 
ATOM     18  C   UNL     1       0.514   1.171   1.111  0.00  0.00    +0.027 A 
BRANCH  16  19
ATOM     19  O   UNL     1       1.303  -2.040  -0.408  0.00  0.00    -0.495 OA
ATOM     20  C   UNL     1       0.564  -2.866   0.495  0.00  0.00    +0.277 C 
ENDBRANCH  16  19
ENDBRANCH   8  13
BRANCH   9  21
ATOM     21  C   UNL     1       4.481   8.354   0.296  0.00  0.00    +0.034 A 
ATOM     22  C   UNL     1       5.654   7.872   0.863  0.00  0.00    +0.027 A 
ATOM     23  C   UNL     1       6.814   8.618   0.789  0.00  0.00    +0.047 A 
ATOM     24  C   UNL     1       6.805   9.853   0.159  0.00  0.00    +0.120 A 
ATOM     25  C   UNL     1       5.633  10.338  -0.403  0.00  0.00    +0.047 A 
ATOM     26  C   UNL     1       4.474   9.591  -0.335  0.00  0.00    +0.027 A 
BRANCH  24  27
ATOM     27  O   UNL     1       7.946  10.590   0.091  0.00  0.00    -0.495 OA
ATOM     28  C   UNL     1       9.116  10.029   0.691  0.00  0.00    +0.277 C 
ENDBRANCH  24  27
ENDBRANCH   9  21
BRANCH   1  30
ATOM     29  C   UNL     1       6.953   1.698  -0.806  0.00  0.00    +0.138 C 
ATOM     30  N   UNL     1       5.814   2.298  -0.642  0.00  0.00    -0.188 NA
BRANCH  29  34
ATOM     31  C   UNL     1       7.054  -2.403  -1.894  0.00  0.00    -0.042 A 
ATOM     32  C   UNL     1       8.232  -1.740  -1.598  0.00  0.00    +0.005 A 
ATOM     33  C   UNL     1       8.207  -0.407  -1.244  0.00  0.00    +0.010 A 
ATOM     34  C   UNL     1       6.988   0.273  -1.184  0.00  0.00    -0.005 A 
ATOM     35  C   UNL     1       5.803  -0.404  -1.479  0.00  0.00    +0.010 A 
ATOM     36  C   UNL     1       5.843  -1.735  -1.837  0.00  0.00    +0.005 A 
BRANCH  31  38
ATOM     37  C   UNL     1       7.698  -4.675  -1.136  0.00  0.00    +0.015 C 
ATOM     38  C   UNL     1       7.090  -3.860  -2.279  0.00  0.00    -0.013 C 
ATOM     39  C   UNL     1       5.666  -4.350  -2.553  0.00  0.00    +0.015 C 
ATOM     40  C   UNL     1       7.940  -4.033  -3.539  0.00  0.00    +0.015 C 
ENDBRANCH  31  38
ENDBRANCH  29  34
ENDBRANCH   1  30
TORSDOF 7
