REMARK  Name = ZINC53778769
REMARK  7 active torsions:
REMARK  status: ('A' for Active; 'I' for Inactive)
REMARK    1  A    between atoms: C_1  and  C_2
REMARK    2  A    between atoms: C_5  and  N_8
REMARK    3  A    between atoms: C_9  and  C_11
REMARK    4  A    between atoms: C_11  and  N_12
REMARK    5  A    between atoms: N_12  and  C_13
REMARK    6  A    between atoms: N_12  and  C_14
REMARK    7  A    between atoms: C_14  and  C_15
REMARK                            x       y       z     vdW  Elec       q    Type
REMARK                         _______ _______ _______ _____ _____    ______ ____
ROOT
ATOM      1  C   UNL     1       0.518  -7.575   2.888  0.00  0.00    -0.001 C 
ENDROOT
BRANCH   1   2
ATOM      2  C   UNL     1       0.835  -8.445   4.077  0.00  0.00    +0.116 A 
ATOM      3  N   UNL     1       2.067  -8.464   4.554  0.00  0.00    -0.219 NA
ATOM      4  C   UNL     1       2.408  -9.207   5.595  0.00  0.00    +0.128 A 
ATOM      5  C   UNL     1       1.419 -10.013   6.224  0.00  0.00    +0.051 A 
ATOM      6  C   UNL     1       1.561 -10.907   7.375  0.00  0.00    -0.025 A 
ATOM      7  C   UNL     1       0.455 -11.564   7.779  0.00  0.00    -0.004 A 
ATOM      8  S   UNL     1      -0.825 -11.041   6.669  0.00  0.00    -0.073 S 
ATOM      9  C   UNL     1       0.130  -9.939   5.660  0.00  0.00    +0.114 A 
ATOM     10  N   UNL     1      -0.126  -9.166   4.622  0.00  0.00    -0.227 NA
ATOM     11  C   UNL     1       0.338 -12.528   8.920  0.00  0.00    +0.043 C 
ATOM     12  C   UNL     1       1.752 -12.951   9.343  0.00  0.00    +0.005 C 
ATOM     13  C   UNL     1       2.620 -11.697   9.480  0.00  0.00    +0.005 C 
ATOM     14  C   UNL     1       2.891 -11.101   8.098  0.00  0.00    +0.037 C 
ATOM     15  N   UNL     1       3.709  -9.200   6.064  0.00  0.00    -0.343 N 
ATOM     16  H   UNL     1       4.319  -8.496   5.793  0.00  0.00    +0.144 HD
ATOM     17  H   UNL     1       4.012  -9.899   6.664  0.00  0.00    +0.144 HD
ENDBRANCH   1   2
BRANCH   1  18
ATOM     18  N   UNL     1       0.109  -6.242   3.351  0.00  0.00    +0.388 N 
ATOM     19  C   UNL     1      -1.150  -6.349   4.100  0.00  0.00    -0.095 C 
ATOM     20  H   UNL     1       0.826  -5.860   3.950  0.00  0.00    -0.081 HD
BRANCH  18  21
ATOM     21  C   UNL     1      -0.083  -5.359   2.193  0.00  0.00    +0.019 C 
BRANCH  21  23
ATOM     22  N   UNL     1      -0.597  -2.975   1.778  0.00  0.00    -0.287 N 
ATOM     23  C   UNL     1      -0.383  -3.962   2.671  0.00  0.00    +0.201 C 
ATOM     24  O   UNL     1      -0.431  -3.725   3.860  0.00  0.00    -0.278 OA
ATOM     25  H   UNL     1      -0.634  -3.179   0.830  0.00  0.00    +0.155 HD
BRANCH  22  30
ATOM     26  C   UNL     1      -1.281   2.367   3.561  0.00  0.00    +0.044 C 
ATOM     27  C   UNL     1      -1.099   0.948   3.087  0.00  0.00    -0.050 A 
ATOM     28  C   UNL     1      -0.253   0.095   3.772  0.00  0.00    +0.005 A 
ATOM     29  C   UNL     1      -0.085  -1.206   3.341  0.00  0.00    +0.023 A 
ATOM     30  C   UNL     1      -0.766  -1.658   2.218  0.00  0.00    +0.033 A 
ATOM     31  C   UNL     1      -1.615  -0.799   1.532  0.00  0.00    +0.023 A 
ATOM     32  C   UNL     1      -1.783   0.500   1.972  0.00  0.00    +0.005 A 
ENDBRANCH  22  30
ENDBRANCH  21  23
ENDBRANCH  18  21
ENDBRANCH   1  18
TORSDOF 5
