REMARK  Name = ZINC09881502
REMARK  9 active torsions:
REMARK  status: ('A' for Active; 'I' for Inactive)
REMARK    1  A    between atoms: C_1  and  C_2
REMARK    2  A    between atoms: C_2  and  C_3
REMARK    3  A    between atoms: C_2  and  C_4
REMARK    4  A    between atoms: C_4  and  C_6
REMARK    5  A    between atoms: C_4  and  S_12
REMARK    6  A    between atoms: S_12  and  C_13
REMARK    7  A    between atoms: C_16  and  C_25
REMARK    8  A    between atoms: N_17  and  C_18
REMARK    9  A    between atoms: C_25  and  N_57
REMARK                            x       y       z     vdW  Elec       q    Type
REMARK                         _______ _______ _______ _____ _____    ______ ____
ROOT
ATOM      1  C   UNL     1      -5.263   0.297   0.612  0.00  0.00    +0.197 A 
ATOM      2  N   UNL     1      -5.071  -0.894   0.094  0.00  0.00    -0.122 NA
ATOM      3  N   UNL     1      -6.159  -1.575   0.149  0.00  0.00    -0.135 NA
ATOM      4  C   UNL     1      -7.104  -0.868   0.700  0.00  0.00    +0.122 A 
ATOM      5  N   UNL     1      -6.567   0.350   1.021  0.00  0.00    -0.276 N 
ENDROOT
BRANCH   5   6
ATOM      6  C   UNL     1      -7.219   1.428   1.638  0.00  0.00    +0.050 A 
ATOM      7  C   UNL     1      -7.685   1.306   2.940  0.00  0.00    +0.029 A 
ATOM      8  C   UNL     1      -8.322   2.370   3.548  0.00  0.00    +0.040 A 
ATOM      9  C   UNL     1      -8.507   3.555   2.855  0.00  0.00    +0.124 A 
ATOM     10  C   UNL     1      -8.048   3.677   1.554  0.00  0.00    +0.040 A 
ATOM     11  C   UNL     1      -7.405   2.617   0.946  0.00  0.00    +0.029 A 
ATOM     12  F   UNL     1      -9.136   4.592   3.449  0.00  0.00    -0.205 F 
ENDBRANCH   5   6
BRANCH   1  13
ATOM     13  S   UNL     1      -4.066   1.582   0.760  0.00  0.00    -0.073 S 
BRANCH  13  14
ATOM     14  C   UNL     1      -2.679   0.822  -0.121  0.00  0.00    +0.143 C 
BRANCH  14  15
ATOM     15  C   UNL     1      -1.448   1.673   0.050  0.00  0.00    +0.234 C 
ATOM     16  O   UNL     1      -1.556   2.837   0.372  0.00  0.00    -0.274 OA
ATOM     17  N   UNL     1      -0.227   1.141  -0.155  0.00  0.00    -0.239 N 
ATOM     18  C   UNL     1       0.875   1.904  -0.007  0.00  0.00    +0.303 C 
ATOM     19  O   UNL     1       0.766   3.071   0.316  0.00  0.00    -0.253 OA
ATOM     20  N   UNL     1       2.095   1.374  -0.217  0.00  0.00    -0.313 N 
ATOM     21  H   UNL     1      -0.140   0.210  -0.412  0.00  0.00    +0.159 HD
ATOM     22  H   UNL     1       2.182   0.443  -0.475  0.00  0.00    +0.146 HD
ATOM     23  H   UNL     1       2.888   1.923  -0.111  0.00  0.00    +0.146 HD
ENDBRANCH  14  15
BRANCH  14  25
ATOM     24  C   UNL     1      -3.156   2.112  -2.207  0.00  0.00    +0.009 C 
ATOM     25  C   UNL     1      -3.019   0.710  -1.609  0.00  0.00    +0.005 C 
ATOM     26  C   UNL     1      -1.903  -0.046  -2.332  0.00  0.00    +0.009 C 
ENDBRANCH  14  25
ENDBRANCH  13  14
ENDBRANCH   1  13
BRANCH   4  27
ATOM     27  C   UNL     1      -8.524  -1.311   0.945  0.00  0.00    -0.001 C 
BRANCH  27  33
ATOM     28  C   UNL     1      -7.846  -3.185   2.319  0.00  0.00    -0.078 C 
ATOM     29  C   UNL     1      -7.849  -3.733   3.748  0.00  0.00    -0.019 C 
ATOM     30  C   UNL     1      -9.293  -3.989   4.188  0.00  0.00    -0.004 C 
ATOM     31  C   UNL     1     -10.089  -2.685   4.081  0.00  0.00    -0.019 C 
ATOM     32  C   UNL     1     -10.021  -2.168   2.643  0.00  0.00    -0.078 C 
ATOM     33  N   UNL     1      -8.608  -1.919   2.289  0.00  0.00    +0.384 N 
ATOM     34  H   UNL     1      -8.202  -1.270   2.974  0.00  0.00    -0.081 HD
ENDBRANCH  27  33
ENDBRANCH   4  27
TORSDOF 7
