REMARK  Name = ZINC64352907
REMARK  6 active torsions:
REMARK  status: ('A' for Active; 'I' for Inactive)
REMARK    1  A    between atoms: C_1  and  C_2
REMARK    2  A    between atoms: C_2  and  C_4
REMARK    3  A    between atoms: C_2  and  S_18
REMARK    4  A    between atoms: N_10  and  C_11
REMARK    5  A    between atoms: S_18  and  C_19
REMARK    6  A    between atoms: C_23  and  C_25
REMARK                            x       y       z     vdW  Elec       q    Type
REMARK                         _______ _______ _______ _____ _____    ______ ____
ROOT
ATOM      1  C   UNL     1      -0.152   1.156  -0.295  0.00  0.00    +0.027 C 
ATOM      2  C   UNL     1      -0.140  -0.348  -0.017  0.00  0.00    +0.116 C 
ENDROOT
BRANCH   2   3
ATOM      3  C   UNL     1       0.681  -0.624   1.217  0.00  0.00    +0.149 A 
ATOM      4  N   UNL     1       0.187  -0.351   2.412  0.00  0.00    -0.198 NA
ATOM      5  C   UNL     1       0.909  -0.593   3.503  0.00  0.00    +0.217 A 
ATOM      6  N   UNL     1       2.128  -1.111   3.390  0.00  0.00    -0.181 NA
ATOM      7  C   UNL     1       2.621  -1.384   2.187  0.00  0.00    +0.224 A 
ATOM      8  N   UNL     1       1.891  -1.143   1.100  0.00  0.00    -0.198 NA
ATOM      9  N   UNL     1       3.887  -1.921   2.064  0.00  0.00    -0.284 N 
ATOM     10  N   UNL     1       0.393  -0.307   4.751  0.00  0.00    -0.327 N 
ATOM     11  H   UNL     1       4.279  -2.045   1.185  0.00  0.00    +0.155 HD
ATOM     12  H   UNL     1      -0.496   0.071   4.832  0.00  0.00    +0.145 HD
ATOM     13  H   UNL     1       0.920  -0.484   5.546  0.00  0.00    +0.145 HD
BRANCH   9  14
ATOM     14  C   UNL     1       4.605  -2.288   3.207  0.00  0.00    +0.034 A 
ATOM     15  C   UNL     1       3.946  -2.854   4.291  0.00  0.00    +0.023 A 
ATOM     16  C   UNL     1       4.659  -3.215   5.418  0.00  0.00    +0.002 A 
ATOM     17  C   UNL     1       6.026  -3.013   5.468  0.00  0.00    +0.000 A 
ATOM     18  C   UNL     1       6.684  -2.449   4.391  0.00  0.00    +0.002 A 
ATOM     19  C   UNL     1       5.979  -2.092   3.259  0.00  0.00    +0.023 A 
ENDBRANCH   9  14
ENDBRANCH   2   3
BRANCH   2  20
ATOM     20  S   UNL     1      -1.839  -0.929   0.246  0.00  0.00    -0.085 S 
BRANCH  20  21
ATOM     21  C   UNL     1      -2.644  -0.668  -1.359  0.00  0.00    +0.340 C 
ATOM     22  N   UNL     1      -2.570   0.751  -1.747  0.00  0.00    -0.219 N 
ATOM     23  N   UNL     1      -1.842   0.775  -2.945  0.00  0.00    -0.145 NA
ATOM     24  C   UNL     1      -1.496  -0.438  -3.285  0.00  0.00    +0.238 C 
ATOM     25  O   UNL     1      -1.935  -1.363  -2.394  0.00  0.00    -0.443 OA
ATOM     26  H   UNL     1      -2.946   1.509  -1.273  0.00  0.00    +0.173 HD
BRANCH  24  27
ATOM     27  C   UNL     1      -0.758  -0.748  -4.436  0.00  0.00    +0.043 C 
ATOM     28  C   UNL     1      -0.271   0.144  -5.392  0.00  0.00    +0.008 A 
ATOM     29  C   UNL     1      -0.349   1.548  -5.514  0.00  0.00    +0.010 A 
ATOM     30  C   UNL     1       0.232   2.166  -6.574  0.00  0.00    +0.001 A 
ATOM     31  C   UNL     1       0.913   1.445  -7.558  0.00  0.00    +0.002 A 
ATOM     32  C   UNL     1       1.027   0.095  -7.505  0.00  0.00    +0.026 A 
ATOM     33  C   UNL     1       0.445  -0.621  -6.426  0.00  0.00    +0.043 A 
ATOM     34  N   UNL     1       0.416  -1.910  -6.150  0.00  0.00    -0.380 N 
ATOM     35  C   UNL     1      -0.319  -2.120  -4.899  0.00  0.00    +0.154 C 
ATOM     36  H   UNL     1       0.821  -2.608  -6.687  0.00  0.00    +0.160 HD
ENDBRANCH  24  27
ENDBRANCH  20  21
ENDBRANCH   2  20
TORSDOF 5
