REMARK  Name = ZINC00788418
REMARK  6 active torsions:
REMARK  status: ('A' for Active; 'I' for Inactive)
REMARK    1  A    between atoms: C_2  and  C_3
REMARK    2  A    between atoms: C_3  and  N_4
REMARK    3  A    between atoms: C_5  and  N_6
REMARK    4  A    between atoms: C_7  and  C_20
REMARK    5  A    between atoms: N_22  and  C_23
REMARK    6  A    between atoms: C_23  and  C_24
REMARK                            x       y       z     vdW  Elec       q    Type
REMARK                         _______ _______ _______ _____ _____    ______ ____
ROOT
ATOM      1  N   UNL     1       0.258  -4.001  -0.036  0.00  0.00    -0.309 N 
ATOM      2  C   UNL     1      -0.812  -4.869  -0.039  0.00  0.00    +0.110 A 
ATOM      3  C   UNL     1      -2.183  -4.337  -0.011  0.00  0.00    +0.075 A 
ATOM      4  C   UNL     1      -2.371  -2.961   0.018  0.00  0.00    +0.033 A 
ATOM      5  C   UNL     1      -1.254  -2.113   0.021  0.00  0.00    +0.083 A 
ATOM      6  C   UNL     1       0.056  -2.643  -0.007  0.00  0.00    +0.150 A 
ATOM      7  N   UNL     1       1.091  -1.814  -0.004  0.00  0.00    -0.211 NA
ATOM      8  C   UNL     1       0.929  -0.491   0.024  0.00  0.00    +0.143 A 
ATOM      9  C   UNL     1       2.067   0.336   0.026  0.00  0.00    +0.047 A 
ATOM     10  C   UNL     1       1.914   1.691   0.054  0.00  0.00    +0.005 A 
ATOM     11  C   UNL     1       0.626   2.241   0.081  0.00  0.00    +0.018 A 
ATOM     12  C   UNL     1      -0.457   1.431   0.080  0.00  0.00    +0.096 A 
ATOM     13  N   UNL     1      -0.315   0.076   0.052  0.00  0.00    -0.268 N 
ATOM     14  C   UNL     1      -1.418  -0.704   0.051  0.00  0.00    +0.268 A 
ATOM     15  O   UNL     1      -2.530  -0.208   0.075  0.00  0.00    -0.267 OA
ENDROOT
BRANCH   3  16
ATOM     16  C   UNL     1      -3.335  -5.245  -0.015  0.00  0.00    +0.248 C 
ATOM     17  O   UNL     1      -3.162  -6.447   0.065  0.00  0.00    -0.270 OA
ATOM     18  N   UNL     1      -4.585  -4.749  -0.106  0.00  0.00    -0.304 N 
ATOM     19  H   UNL     1      -4.741  -3.662  -0.178  0.00  0.00    +0.149 HD
BRANCH  18  20
ATOM     20  C   UNL     1      -5.735  -5.656  -0.110  0.00  0.00    +0.179 C 
BRANCH  20  21
ATOM     21  C   UNL     1      -7.006  -4.855  -0.220  0.00  0.00    +0.122 A 
ATOM     22  C   UNL     1      -7.616  -4.501  -1.365  0.00  0.00    +0.046 A 
ATOM     23  C   UNL     1      -8.767  -3.763  -1.006  0.00  0.00    +0.041 A 
ATOM     24  C   UNL     1      -8.792  -3.710   0.338  0.00  0.00    +0.195 A 
ATOM     25  O   UNL     1      -7.726  -4.378   0.809  0.00  0.00    -0.466 OA
ENDBRANCH  20  21
ENDBRANCH  18  20
ENDBRANCH   3  16
BRANCH   2  26
ATOM     26  N   UNL     1      -0.610  -6.162  -0.067  0.00  0.00    -0.344 N 
ATOM     27  H   UNL     1      -1.466  -6.853  -0.069  0.00  0.00    +0.144 HD
ATOM     28  H   UNL     1       0.416  -6.558  -0.087  0.00  0.00    +0.144 HD
ENDBRANCH   2  26
BRANCH   1  29
ATOM     29  C   UNL     1       1.624  -4.531  -0.063  0.00  0.00    +0.151 C 
BRANCH  29  31
ATOM     30  C   UNL     1       2.553  -5.916   1.720  0.00  0.00    +0.005 C 
ATOM     31  C   UNL     1       2.110  -4.741   1.348  0.00  0.00    -0.013 C 
ENDBRANCH  29  31
ENDBRANCH   1  29
TORSDOF 6
