REMARK  Name = ZINC36745187
REMARK  7 active torsions:
REMARK  status: ('A' for Active; 'I' for Inactive)
REMARK    1  A    between atoms: C_1  and  C_2
REMARK    2  A    between atoms: C_2  and  C_4
REMARK    3  A    between atoms: C_2  and  N_13
REMARK    4  A    between atoms: N_13  and  C_14
REMARK    5  A    between atoms: C_14  and  C_15
REMARK    6  A    between atoms: C_15  and  S_16
REMARK    7  A    between atoms: S_16  and  N_19
REMARK                            x       y       z     vdW  Elec       q    Type
REMARK                         _______ _______ _______ _____ _____    ______ ____
ROOT
ATOM      1  C   UNL     1      -0.250   1.471  -0.317  0.00  0.00    -0.009 C 
ATOM      2  C   UNL     1       0.002  -0.004   0.002  0.00  0.00    -0.041 C 
ENDROOT
BRANCH   2   3
ATOM      3  C   UNL     1       0.748  -0.645  -1.140  0.00  0.00    -0.022 A 
ATOM      4  C   UNL     1       2.061  -1.047  -0.969  0.00  0.00    +0.044 A 
ATOM      5  C   UNL     1       2.747  -1.635  -2.017  0.00  0.00    +0.023 A 
ATOM      6  C   UNL     1       2.121  -1.822  -3.235  0.00  0.00    +0.041 A 
ATOM      7  C   UNL     1       0.808  -1.421  -3.407  0.00  0.00    +0.142 A 
ATOM      8  C   UNL     1       0.119  -0.836  -2.356  0.00  0.00    +0.079 A 
ATOM      9 CL   UNL     1      -1.530  -0.338  -2.569  0.00  0.00    -0.080 Cl
ATOM     10  F   UNL     1       0.196  -1.603  -4.598  0.00  0.00    -0.204 F 
ATOM     11 CL   UNL     1       2.848  -0.813   0.560  0.00  0.00    -0.083 Cl
ENDBRANCH   2   3
BRANCH   2  12
ATOM     12  N   UNL     1      -1.283  -0.690   0.194  0.00  0.00    +0.385 N 
ATOM     13  H   UNL     1      -1.879  -0.515  -0.601  0.00  0.00    -0.085 HD
ATOM     14  H   UNL     1      -1.124  -1.682   0.283  0.00  0.00    -0.085 HD
BRANCH  12  15
ATOM     15  C   UNL     1      -1.930  -0.185   1.412  0.00  0.00    -0.057 C 
BRANCH  15  16
ATOM     16  C   UNL     1      -3.269  -0.900   1.611  0.00  0.00    +0.166 C 
BRANCH  16  17
ATOM     17  S   UNL     1      -4.068  -0.277   3.115  0.00  0.00    +0.025 S 
ATOM     18  O   UNL     1      -3.328  -0.672   4.263  0.00  0.00    -0.158 OA
ATOM     19  O   UNL     1      -4.460   1.077   2.937  0.00  0.00    -0.158 OA
BRANCH  17  20
ATOM     20  N   UNL     1      -5.491  -1.118   3.220  0.00  0.00    -0.208 NA
ATOM     21  H   UNL     1      -5.881  -1.305   4.089  0.00  0.00    +0.144 HD
ATOM     22  H   UNL     1      -5.935  -1.423   2.414  0.00  0.00    +0.144 HD
ENDBRANCH  17  20
ENDBRANCH  16  17
ENDBRANCH  15  16
ENDBRANCH  12  15
ENDBRANCH   2  12
TORSDOF 6
