REMARK  Name = ZINC63147543
REMARK  7 active torsions:
REMARK  status: ('A' for Active; 'I' for Inactive)
REMARK    1  A    between atoms: C_1  and  C_2
REMARK    2  A    between atoms: C_5  and  C_8
REMARK    3  A    between atoms: C_8  and  N_9
REMARK    4  A    between atoms: N_9  and  S_10
REMARK    5  A    between atoms: S_10  and  C_13
REMARK    6  A    between atoms: C_16  and  C_18
REMARK    7  A    between atoms: C_18  and  N_19
REMARK                            x       y       z     vdW  Elec       q    Type
REMARK                         _______ _______ _______ _____ _____    ______ ____
ROOT
ATOM      1  S   UNL     1      -1.798  -0.006   6.454  0.00  0.00    +0.065 S 
ATOM      2  O   UNL     1      -1.065  -0.793   7.383  0.00  0.00    -0.153 OA
ATOM      3  O   UNL     1      -1.631   1.401   6.347  0.00  0.00    -0.153 OA
ENDROOT
BRANCH   1   4
ATOM      4  C   UNL     1      -3.504  -0.286   6.795  0.00  0.00    +0.143 A 
ATOM      5  C   UNL     1      -4.091  -1.346   7.403  0.00  0.00    +0.036 A 
ATOM      6  C   UNL     1      -5.464  -1.350   7.565  0.00  0.00    +0.011 A 
ATOM      7  C   UNL     1      -6.183  -0.294   7.111  0.00  0.00    -0.026 A 
ATOM      8  S   UNL     1      -4.908   0.757   6.435  0.00  0.00    -0.075 S 
BRANCH   7   9
ATOM      9  C   UNL     1      -7.671  -0.065   7.168  0.00  0.00    -0.043 C 
BRANCH   9  10
ATOM     10  N   UNL     1      -8.011   0.635   8.415  0.00  0.00    +0.381 N 
ATOM     11  H   UNL     1      -9.008   0.789   8.453  0.00  0.00    -0.090 HD
ATOM     12  H   UNL     1      -7.727   0.074   9.204  0.00  0.00    -0.090 HD
ATOM     13  H   UNL     1      -7.532   1.523   8.443  0.00  0.00    -0.090 HD
ENDBRANCH   9  10
ENDBRANCH   7   9
ENDBRANCH   1   4
BRANCH   1  14
ATOM     14  N   UNL     1      -1.489  -0.636   4.954  0.00  0.00    -0.189 NA
ATOM     15  H   UNL     1      -0.886  -1.390   4.859  0.00  0.00    +0.148 HD
BRANCH  14  16
ATOM     16  C   UNL     1      -2.126  -0.054   3.770  0.00  0.00    +0.109 C 
BRANCH  16  21
ATOM     17  C   UNL     1      -0.019   1.526   0.010  0.00  0.00    +0.007 C 
ATOM     18  C   UNL     1       0.002  -0.004   0.002  0.00  0.00    -0.014 C 
ATOM     19  C   UNL     1      -1.433  -0.534   0.013  0.00  0.00    +0.003 C 
ATOM     20  C   UNL     1      -2.149  -0.040   1.272  0.00  0.00    +0.005 C 
ATOM     21  C   UNL     1      -1.409  -0.547   2.511  0.00  0.00    +0.005 C 
ATOM     22  C   UNL     1       0.026  -0.018   2.500  0.00  0.00    +0.005 C 
ATOM     23  C   UNL     1       0.742  -0.511   1.242  0.00  0.00    +0.003 C 
ENDBRANCH  16  21
ENDBRANCH  14  16
ENDBRANCH   1  14
TORSDOF 6
