REMARK  Name = ZINC63204307
REMARK  12 active torsions:
REMARK  status: ('A' for Active; 'I' for Inactive)
REMARK    1  A    between atoms: C_1  and  C_2
REMARK    2  A    between atoms: C_5  and  S_8
REMARK    3  A    between atoms: S_8  and  N_11
REMARK    4  A    between atoms: N_11  and  C_12
REMARK    5  A    between atoms: N_11  and  C_13
REMARK    6  A    between atoms: C_13  and  C_14
REMARK    7  A    between atoms: N_16  and  N_17
REMARK    8  A    between atoms: C_18  and  C_20
REMARK    9  A    between atoms: C_20  and  C_22
REMARK   10  A    between atoms: C_20  and  N_32
REMARK   11  A    between atoms: C_22  and  C_23
REMARK   12  A    between atoms: C_33  and  C_35
REMARK                            x       y       z     vdW  Elec       q    Type
REMARK                         _______ _______ _______ _____ _____    ______ ____
ROOT
ATOM      1  N   UNL     1       4.496  -2.724  -3.163  0.00  0.00    -0.233 N 
ATOM      2  C   UNL     1       5.212  -2.676  -4.304  0.00  0.00    +0.250 C 
ATOM      3  O   UNL     1       5.259  -3.644  -5.032  0.00  0.00    -0.272 OA
ATOM      4  H   UNL     1       4.458  -1.950  -2.581  0.00  0.00    +0.173 HD
ENDROOT
BRANCH   1   7
ATOM      5  C   UNL     1       3.089  -3.942  -1.678  0.00  0.00    +0.245 C 
ATOM      6  O   UNL     1       3.042  -2.974  -0.950  0.00  0.00    -0.273 OA
ATOM      7  N   UNL     1       3.805  -3.894  -2.819  0.00  0.00    -0.233 N 
ATOM      8  H   UNL     1       3.843  -4.668  -3.401  0.00  0.00    +0.173 HD
BRANCH   5   9
ATOM      9  C   UNL     1       2.346  -5.200  -1.308  0.00  0.00    +0.206 C 
BRANCH   9  10
ATOM     10  N   UNL     1       1.651  -4.999  -0.034  0.00  0.00    -0.171 NA
ATOM     11  C   UNL     1       2.360  -5.214   1.229  0.00  0.00    +0.132 C 
BRANCH  10  12
ATOM     12  S   UNL     1       0.063  -4.530  -0.023  0.00  0.00    +0.061 S 
ATOM     13  O   UNL     1      -0.476  -4.950   1.223  0.00  0.00    -0.153 OA
ATOM     14  O   UNL     1      -0.490  -4.937  -1.267  0.00  0.00    -0.153 OA
BRANCH  12  19
ATOM     15  C   UNL     1      -0.018   1.503   0.010  0.00  0.00    +0.044 C 
ATOM     16  C   UNL     1       0.002  -0.004   0.002  0.00  0.00    -0.050 A 
ATOM     17  C   UNL     1       0.006  -0.689  -1.199  0.00  0.00    +0.005 A 
ATOM     18  C   UNL     1       0.025  -2.071  -1.206  0.00  0.00    +0.029 A 
ATOM     19  C   UNL     1       0.040  -2.768  -0.013  0.00  0.00    +0.105 A 
ATOM     20  C   UNL     1       0.037  -2.084   1.188  0.00  0.00    +0.029 A 
ATOM     21  C   UNL     1       0.023  -0.702   1.195  0.00  0.00    +0.005 A 
ENDBRANCH  12  19
ENDBRANCH  10  12
ENDBRANCH   9  10
ENDBRANCH   5   9
ENDBRANCH   1   7
BRANCH   2  22
ATOM     22  C   UNL     1       5.955  -1.418  -4.674  0.00  0.00    +0.164 C 
BRANCH  22  23
ATOM     23  N   UNL     1       7.003  -1.738  -5.646  0.00  0.00    -0.304 N 
ATOM     24  C   UNL     1       6.677  -2.285  -6.834  0.00  0.00    +0.211 C 
ATOM     25  O   UNL     1       5.515  -2.513  -7.098  0.00  0.00    -0.276 OA
ATOM     26  C   UNL     1       7.756  -2.615  -7.833  0.00  0.00    +0.109 C 
ATOM     27  H   UNL     1       7.932  -1.556  -5.435  0.00  0.00    +0.149 HD
ENDBRANCH  22  23
BRANCH  22  28
ATOM     28  C   UNL     1       4.979  -0.412  -5.289  0.00  0.00    +0.065 C 
BRANCH  28  29
ATOM     29  C   UNL     1       5.695   0.889  -5.546  0.00  0.00    -0.039 C 
ATOM     30  C   UNL     1       6.265   1.288  -6.706  0.00  0.00    -0.001 A 
ATOM     31  C   UNL     1       6.386   0.654  -8.025  0.00  0.00    +0.010 A 
ATOM     32  C   UNL     1       7.029   1.315  -9.014  0.00  0.00    +0.001 A 
ATOM     33  C   UNL     1       7.582   2.587  -8.813  0.00  0.00    +0.002 A 
ATOM     34  C   UNL     1       7.511   3.234  -7.630  0.00  0.00    +0.026 A 
ATOM     35  C   UNL     1       6.857   2.632  -6.519  0.00  0.00    +0.043 A 
ATOM     36  N   UNL     1       6.661   3.047  -5.292  0.00  0.00    -0.380 N 
ATOM     37  C   UNL     1       5.916   2.015  -4.562  0.00  0.00    +0.144 C 
ATOM     38  H   UNL     1       6.955   3.897  -4.928  0.00  0.00    +0.160 HD
ENDBRANCH  28  29
ENDBRANCH  22  28
ENDBRANCH   2  22
TORSDOF 9
