REMARK  Name = ZINC20431596
REMARK  7 active torsions:
REMARK  status: ('A' for Active; 'I' for Inactive)
REMARK    1  A    between atoms: C_1  and  N_2
REMARK    2  A    between atoms: C_4  and  S_11
REMARK    3  A    between atoms: N_7  and  C_10
REMARK    4  A    between atoms: S_11  and  N_14
REMARK    5  A    between atoms: N_14  and  C_15
REMARK    6  A    between atoms: C_15  and  C_20
REMARK    7  A    between atoms: C_20  and  N_21
REMARK                            x       y       z     vdW  Elec       q    Type
REMARK                         _______ _______ _______ _____ _____    ______ ____
ROOT
ATOM      1  S   UNL     1      -1.492   2.394   0.005  0.00  0.00    +0.065 S 
ATOM      2  O   UNL     1      -1.001   3.725  -0.068  0.00  0.00    -0.153 OA
ATOM      3  O   UNL     1      -2.446   1.882  -0.915  0.00  0.00    -0.153 OA
ENDROOT
BRANCH   1   7
ATOM      4  C   UNL     1       3.595   1.564  -0.038  0.00  0.00    +0.153 C 
ATOM      5  N   UNL     1       2.241   1.009  -0.102  0.00  0.00    -0.301 N 
ATOM      6  C   UNL     1       1.161   1.845  -0.025  0.00  0.00    +0.124 A 
ATOM      7  C   UNL     1      -0.087   1.334  -0.084  0.00  0.00    +0.186 A 
ATOM      8  C   UNL     1      -0.252  -0.065  -0.225  0.00  0.00    +0.283 A 
ATOM      9  O   UNL     1      -1.367  -0.550  -0.281  0.00  0.00    -0.265 OA
ATOM     10  N   UNL     1       0.838  -0.856  -0.297  0.00  0.00    -0.262 N 
ATOM     11  C   UNL     1       2.071  -0.319  -0.236  0.00  0.00    +0.332 A 
ATOM     12  O   UNL     1       3.045  -1.044  -0.302  0.00  0.00    -0.246 OA
ATOM     13  C   UNL     1       0.680  -2.305  -0.443  0.00  0.00    +0.157 C 
ENDBRANCH   1   7
BRANCH   1  14
ATOM     14  N   UNL     1      -2.146   2.212   1.516  0.00  0.00    -0.185 NA
ATOM     15  H   UNL     1      -3.047   1.593   1.640  0.00  0.00    +0.149 HD
BRANCH  14  16
ATOM     16  C   UNL     1      -1.414   2.686   2.693  0.00  0.00    +0.025 C 
ATOM     17  C   UNL     1      -2.190   2.343   3.988  0.00  0.00    +0.022 C 
ATOM     18  C   UNL     1      -3.250   3.475   4.058  0.00  0.00    +0.002 C 
ATOM     19  C   UNL     1      -2.498   4.728   3.562  0.00  0.00    +0.002 C 
ATOM     20  C   UNL     1      -1.331   4.226   2.694  0.00  0.00    +0.022 C 
BRANCH  16  21
ATOM     21  C   UNL     1      -0.012   2.074   2.731  0.00  0.00    -0.062 C 
BRANCH  21  22
ATOM     22  N   UNL     1      -0.111   0.614   2.600  0.00  0.00    +0.379 N 
ATOM     23  H   UNL     1       0.897   0.174   2.627  0.00  0.00    -0.090 HD
ATOM     24  H   UNL     1      -0.594   0.364   1.643  0.00  0.00    -0.090 HD
ATOM     25  H   UNL     1      -0.709   0.211   3.429  0.00  0.00    -0.090 HD
ENDBRANCH  21  22
ENDBRANCH  16  21
ENDBRANCH  14  16
ENDBRANCH   1  14
TORSDOF 5
