REMARK  Name = ZINC06385065
REMARK  7 active torsions:
REMARK  status: ('A' for Active; 'I' for Inactive)
REMARK    1  A    between atoms: C_1  and  O_2
REMARK    2  A    between atoms: O_2  and  C_3
REMARK    3  A    between atoms: C_3  and  C_5
REMARK    4  A    between atoms: C_5  and  C_16
REMARK    5  A    between atoms: C_6  and  C_14
REMARK    6  A    between atoms: C_16  and  S_17
REMARK    7  A    between atoms: S_17  and  C_20
REMARK                            x       y       z     vdW  Elec       q    Type
REMARK                         _______ _______ _______ _____ _____    ______ ____
ROOT
ATOM      1  C   UNL     1       0.679  -2.115   1.088  0.00  0.00    +0.174 C 
ATOM      2  C   UNL     1      -0.602  -2.652   1.732  0.00  0.00    +0.213 C 
ATOM      3  C   UNL     1      -1.742  -2.516   0.755  0.00  0.00    +0.238 C 
ATOM      4  O   UNL     1      -2.860  -2.272   1.157  0.00  0.00    -0.274 OA
ATOM      5  N   UNL     1      -1.519  -2.665  -0.564  0.00  0.00    -0.267 N 
ATOM      6  C   UNL     1      -0.275  -2.846  -1.039  0.00  0.00    +0.137 C 
ATOM      7  S   UNL     1      -0.065  -3.336  -2.666  0.00  0.00    -0.018 S 
ATOM      8  N   UNL     1       0.807  -2.653  -0.268  0.00  0.00    -0.308 N 
ATOM      9  H   UNL     1      -2.267  -2.640  -1.181  0.00  0.00    +0.157 HD
ATOM     10  H   UNL     1       1.686  -2.872  -0.614  0.00  0.00    +0.149 HD
ENDROOT
BRANCH   1  11
ATOM     11  C   UNL     1       0.618  -0.611   1.029  0.00  0.00    +0.334 C 
ATOM     12  O   UNL     1       1.124   0.049   1.905  0.00  0.00    -0.248 OA
BRANCH  11  14
ATOM     13  C   UNL     1      -0.017   1.425   0.010  0.00  0.00    +0.280 C 
ATOM     14  O   UNL     1       0.002  -0.004   0.002  0.00  0.00    -0.466 OA
ENDBRANCH  11  14
ENDBRANCH   1  11
BRANCH   2  15
ATOM     15  C   UNL     1      -0.419  -4.070   2.082  0.00  0.00    +0.078 C 
ATOM     16  N   UNL     1      -0.279  -5.165   2.352  0.00  0.00    -0.196 NA
ENDBRANCH   2  15
BRANCH   1  17
ATOM     17  C   UNL     1       1.887  -2.544   1.923  0.00  0.00    +0.204 C 
BRANCH  17  18
ATOM     18  S   UNL     1       3.389  -1.786   1.246  0.00  0.00    -0.031 S 
ATOM     19  O   UNL     1       3.615  -2.318  -0.052  0.00  0.00    -0.175 OA
ATOM     20  O   UNL     1       3.295  -0.378   1.409  0.00  0.00    -0.175 OA
ATOM     21  C   UNL     1       4.685  -2.406   2.354  0.00  0.00    +0.194 C 
ENDBRANCH  17  18
ENDBRANCH   1  17
TORSDOF 5
