REMARK  Name = ZINC33770360
REMARK  5 active torsions:
REMARK  status: ('A' for Active; 'I' for Inactive)
REMARK    1  A    between atoms: C_1  and  C_2
REMARK    2  A    between atoms: C_2  and  C_3
REMARK    3  A    between atoms: N_7  and  N_8
REMARK    4  A    between atoms: N_9  and  N_10
REMARK    5  A    between atoms: C_11  and  C_12
REMARK                            x       y       z     vdW  Elec       q    Type
REMARK                         _______ _______ _______ _____ _____    ______ ____
ROOT
ATOM      1  C   UNL     1       3.918   5.117   1.014  0.00  0.00    +0.152 A 
ATOM      2  N   UNL     1       4.460   3.940   0.868  0.00  0.00    -0.131 NA
ATOM      3  N   UNL     1       3.548   3.056   0.670  0.00  0.00    -0.110 NA
ATOM      4  C   UNL     1       2.366   3.628   0.670  0.00  0.00    +0.254 A 
ATOM      5  N   UNL     1       2.566   4.960   0.893  0.00  0.00    -0.220 N 
ATOM      6  N   UNL     1       1.147   2.998   0.484  0.00  0.00    -0.204 N 
ATOM      7  H   UNL     1       0.216   3.584   0.510  0.00  0.00    +0.177 HD
ENDROOT
BRANCH   5   8
ATOM      8  N   UNL     1       1.613   5.934   0.978  0.00  0.00    -0.294 N 
ATOM      9  H   UNL     1       0.550   5.675   0.862  0.00  0.00    +0.163 HD
ATOM     10  H   UNL     1       1.907   6.978   1.163  0.00  0.00    +0.163 HD
ENDBRANCH   5   8
BRANCH   1  12
ATOM     11  C   UNL     1       4.794   6.625   2.777  0.00  0.00    +0.012 C 
ATOM     12  C   UNL     1       4.648   6.410   1.269  0.00  0.00    +0.074 C 
ENDBRANCH   1  12
BRANCH   6  13
ATOM     13  N   UNL     1       1.099   1.615   0.264  0.00  0.00    -0.188 NA
ATOM     14  C   UNL     1      -0.029   1.044  -0.035  0.00  0.00    +0.138 C 
BRANCH  14  15
ATOM     15  C   UNL     1      -1.141   1.847  -0.576  0.00  0.00    -0.004 A 
ATOM     16  C   UNL     1      -0.894   3.107  -1.127  0.00  0.00    +0.009 A 
ATOM     17  C   UNL     1      -1.939   3.850  -1.635  0.00  0.00    +0.002 A 
ATOM     18  C   UNL     1      -3.231   3.356  -1.590  0.00  0.00    +0.015 A 
ATOM     19  C   UNL     1      -3.484   2.111  -1.041  0.00  0.00    +0.018 A 
ATOM     20  C   UNL     1      -2.447   1.354  -0.533  0.00  0.00    +0.024 A 
ATOM     21 BR   UNL     1      -5.253   1.446  -0.985  0.00  0.00    -0.050 Br
ENDBRANCH  14  15
ENDBRANCH   6  13
TORSDOF 4
