REMARK  Name = ZINC20115104
REMARK  10 active torsions:
REMARK  status: ('A' for Active; 'I' for Inactive)
REMARK    1  A    between atoms: C_1  and  C_2
REMARK    2  A    between atoms: C_5  and  N_8
REMARK    3  A    between atoms: C_11  and  C_26
REMARK    4  A    between atoms: N_13  and  C_16
REMARK    5  A    between atoms: C_16  and  C_17
REMARK    6  A    between atoms: C_17  and  C_18
REMARK    7  A    between atoms: C_18  and  N_19
REMARK    8  A    between atoms: N_22  and  C_25
REMARK    9  A    between atoms: C_26  and  C_27
REMARK   10  A    between atoms: N_29  and  C_30
REMARK                            x       y       z     vdW  Elec       q    Type
REMARK                         _______ _______ _______ _____ _____    ______ ____
ROOT
ATOM      1  N   UNL     1      -1.919   1.017  -2.870  0.00  0.00    -0.220 N 
ATOM      2  C   UNL     1      -1.530   2.300  -3.004  0.00  0.00    +0.246 C 
ATOM      3  O   UNL     1      -1.863   3.080  -3.871  0.00  0.00    -0.273 OA
ATOM      4  C   UNL     1      -0.588   2.566  -1.847  0.00  0.00    +0.171 C 
ATOM      5  N   UNL     1      -0.552   1.281  -1.127  0.00  0.00    -0.300 N 
ATOM      6  C   UNL     1      -1.356   0.440  -1.803  0.00  0.00    +0.147 C 
ATOM      7  S   UNL     1      -1.631  -1.187  -1.345  0.00  0.00    -0.018 S 
ENDROOT
BRANCH   1  12
ATOM      8  C   UNL     1      -5.489  -1.618  -6.409  0.00  0.00    +0.044 C 
ATOM      9  C   UNL     1      -4.541  -0.918  -5.469  0.00  0.00    -0.050 A 
ATOM     10  C   UNL     1      -4.917  -0.682  -4.160  0.00  0.00    +0.005 A 
ATOM     11  C   UNL     1      -4.050  -0.041  -3.296  0.00  0.00    +0.024 A 
ATOM     12  C   UNL     1      -2.801   0.366  -3.744  0.00  0.00    +0.043 A 
ATOM     13  C   UNL     1      -2.428   0.132  -5.061  0.00  0.00    +0.024 A 
ATOM     14  C   UNL     1      -3.297  -0.515  -5.918  0.00  0.00    +0.005 A 
ENDBRANCH   1  12
BRANCH   5  15
ATOM     15  C   UNL     1       0.214   0.977   0.084  0.00  0.00    +0.109 C 
BRANCH  15  16
ATOM     16  C   UNL     1      -0.586   1.409   1.315  0.00  0.00    +0.034 C 
BRANCH  16  17
ATOM     17  C   UNL     1       0.214   1.091   2.580  0.00  0.00    +0.086 C 
BRANCH  17  18
ATOM     18  N   UNL     1      -0.553   1.507   3.761  0.00  0.00    -0.306 NA
ATOM     19  C   UNL     1      -0.704   2.968   3.805  0.00  0.00    +0.066 C 
ATOM     20  C   UNL     1      -1.574   3.353   5.004  0.00  0.00    -0.064 C 
ATOM     21  N   UNL     1      -0.951   2.854   6.238  0.00  0.00    +0.379 N 
ATOM     22  C   UNL     1      -0.801   1.393   6.194  0.00  0.00    -0.064 C 
ATOM     23  C   UNL     1       0.070   1.008   4.996  0.00  0.00    +0.066 C 
ATOM     24  C   UNL     1      -1.719   3.269   7.420  0.00  0.00    -0.096 C 
ATOM     25  H   UNL     1       0.052   3.297   6.315  0.00  0.00    -0.082 HD
ENDBRANCH  17  18
ENDBRANCH  16  17
ENDBRANCH  15  16
ENDBRANCH   5  15
BRANCH   4  26
ATOM     26  C   UNL     1       0.806   2.934  -2.361  0.00  0.00    +0.128 C 
BRANCH  26  27
ATOM     27  C   UNL     1       0.772   4.316  -2.960  0.00  0.00    +0.219 C 
ATOM     28  O   UNL     1      -0.235   4.988  -2.878  0.00  0.00    -0.275 OA
ATOM     29  N   UNL     1       1.859   4.805  -3.588  0.00  0.00    -0.285 N 
ATOM     30  H   UNL     1       2.797   4.230  -3.592  0.00  0.00    +0.155 HD
BRANCH  29  31
ATOM     31  C   UNL     1       1.796   6.045  -4.235  0.00  0.00    +0.034 A 
ATOM     32  C   UNL     1       2.511   6.256  -5.406  0.00  0.00    +0.026 A 
ATOM     33  C   UNL     1       2.442   7.478  -6.046  0.00  0.00    +0.040 A 
ATOM     34  C   UNL     1       1.669   8.497  -5.514  0.00  0.00    +0.124 A 
ATOM     35  C   UNL     1       0.960   8.291  -4.342  0.00  0.00    +0.040 A 
ATOM     36  C   UNL     1       1.022   7.068  -3.703  0.00  0.00    +0.026 A 
ATOM     37  F   UNL     1       1.607   9.693  -6.138  0.00  0.00    -0.205 F 
ENDBRANCH  29  31
ENDBRANCH  26  27
ENDBRANCH   4  26
TORSDOF 8
