REMARK  Name = ZINC39634880
REMARK  15 active torsions:
REMARK  status: ('A' for Active; 'I' for Inactive)
REMARK    1  A    between atoms: C_1  and  C_2
REMARK    2  A    between atoms: C_2  and  C_3
REMARK    3  A    between atoms: C_2  and  N_4
REMARK    4  A    between atoms: N_4  and  C_5
REMARK    5  A    between atoms: N_4  and  C_33
REMARK    6  A    between atoms: C_5  and  C_6
REMARK    7  A    between atoms: C_6  and  N_7
REMARK    8  A    between atoms: C_8  and  C_10
REMARK    9  A    between atoms: C_21  and  C_23
REMARK   10  A    between atoms: C_23  and  C_24
REMARK   11  A    between atoms: C_24  and  C_25
REMARK   12  A    between atoms: C_28  and  O_31
REMARK   13  A    between atoms: O_31  and  C_32
REMARK   14  A    between atoms: C_33  and  C_34
REMARK   15  A    between atoms: C_33  and  C_35
REMARK                            x       y       z     vdW  Elec       q    Type
REMARK                         _______ _______ _______ _____ _____    ______ ____
ROOT
ATOM      1  C   UNL     1      -7.766  -0.308  -3.046  0.00  0.00    +0.100 C 
ATOM      2  C   UNL     1      -8.178  -1.626  -3.739  0.00  0.00    +0.121 C 
ATOM      3  N   UNL     1      -9.573  -1.861  -3.300  0.00  0.00    -0.300 N 
ATOM      4  C   UNL     1     -10.193  -0.514  -3.303  0.00  0.00    +0.115 C 
ATOM      5  C   UNL     1      -9.091   0.420  -2.764  0.00  0.00    -0.004 C 
ATOM      6  C   UNL     1      -9.269   0.632  -1.264  0.00  0.00    -0.010 C 
ATOM      7  C   UNL     1     -10.566   1.408  -1.013  0.00  0.00    -0.082 C 
ATOM      8  N   UNL     1     -10.507   2.700  -1.707  0.00  0.00    +0.379 N 
ATOM      9  C   UNL     1     -10.429   2.487  -3.157  0.00  0.00    -0.082 C 
ATOM     10  C   UNL     1      -9.127   1.757  -3.499  0.00  0.00    -0.010 C 
ATOM     11  C   UNL     1     -10.149  -3.035  -2.971  0.00  0.00    +0.216 C 
ATOM     12  O   UNL     1     -11.312  -3.064  -2.628  0.00  0.00    -0.276 OA
ATOM     13  H   UNL     1     -11.335   3.235  -1.491  0.00  0.00    -0.086 HD
ATOM     14  H   UNL     1      -9.692   3.209  -1.399  0.00  0.00    -0.086 HD
ENDROOT
BRANCH   1  16
ATOM     15  N   UNL     1      -6.188   0.309  -1.244  0.00  0.00    -0.317 N 
ATOM     16  C   UNL     1      -7.043  -0.598  -1.756  0.00  0.00    +0.218 C 
ATOM     17  O   UNL     1      -7.230  -1.648  -1.178  0.00  0.00    -0.275 OA
ATOM     18  H   UNL     1      -6.038   1.149  -1.707  0.00  0.00    +0.149 HD
BRANCH  15  19
ATOM     19  C   UNL     1      -5.484   0.028   0.009  0.00  0.00    +0.085 C 
BRANCH  19  20
ATOM     20  C   UNL     1      -4.582   1.212   0.365  0.00  0.00    -0.059 C 
BRANCH  20  21
ATOM     21  N   UNL     1      -3.860   0.920   1.610  0.00  0.00    +0.384 N 
ATOM     22  H   UNL     1      -4.521   0.691   2.337  0.00  0.00    -0.081 HD
BRANCH  21  24
ATOM     23  C   UNL     1      -4.020   3.289   2.208  0.00  0.00    -0.014 C 
ATOM     24  C   UNL     1      -3.080   2.098   2.012  0.00  0.00    -0.074 C 
ATOM     25  C   UNL     1      -2.349   1.804   3.323  0.00  0.00    -0.014 C 
ENDBRANCH  21  24
BRANCH  21  26
ATOM     26  C   UNL     1      -2.954  -0.217   1.396  0.00  0.00    -0.074 C 
ATOM     27  C   UNL     1      -1.642   0.284   0.789  0.00  0.00    -0.014 C 
ATOM     28  C   UNL     1      -2.668  -0.900   2.735  0.00  0.00    -0.014 C 
ENDBRANCH  21  26
ENDBRANCH  20  21
ENDBRANCH  19  20
ENDBRANCH  15  19
ENDBRANCH   1  16
BRANCH  11  29
ATOM     29  C   UNL     1      -9.348  -4.310  -3.029  0.00  0.00    +0.100 C 
BRANCH  29  30
ATOM     30  C   UNL     1     -10.232  -5.487  -2.610  0.00  0.00    +0.044 C 
BRANCH  30  31
ATOM     31  C   UNL     1      -9.431  -6.762  -2.669  0.00  0.00    -0.047 A 
ATOM     32  C   UNL     1      -9.392  -7.499  -3.838  0.00  0.00    +0.007 A 
ATOM     33  C   UNL     1      -8.658  -8.669  -3.894  0.00  0.00    +0.046 A 
ATOM     34  C   UNL     1      -7.960  -9.103  -2.776  0.00  0.00    +0.120 A 
ATOM     35  C   UNL     1      -8.001  -8.361  -1.605  0.00  0.00    +0.046 A 
ATOM     36  C   UNL     1      -8.731  -7.189  -1.555  0.00  0.00    +0.007 A 
BRANCH  34  37
ATOM     37  O   UNL     1      -7.239 -10.253  -2.829  0.00  0.00    -0.495 OA
ATOM     38  C   UNL     1      -6.545 -10.639  -1.640  0.00  0.00    +0.277 C 
ENDBRANCH  34  37
ENDBRANCH  30  31
ENDBRANCH  29  30
ENDBRANCH  11  29
TORSDOF 10
