REMARK  Name = ZINC61308628
REMARK  9 active torsions:
REMARK  status: ('A' for Active; 'I' for Inactive)
REMARK    1  A    between atoms: C_1  and  C_2
REMARK    2  A    between atoms: C_3  and  C_22
REMARK    3  A    between atoms: C_7  and  N_8
REMARK    4  A    between atoms: C_9  and  C_11
REMARK    5  A    between atoms: C_12  and  C_21
REMARK    6  A    between atoms: C_13  and  C_18
REMARK    7  A    between atoms: C_14  and  C_17
REMARK    8  A    between atoms: C_18  and  C_20
REMARK    9  A    between atoms: C_22  and  N_23
REMARK                            x       y       z     vdW  Elec       q    Type
REMARK                         _______ _______ _______ _____ _____    ______ ____
ROOT
ATOM      1  C   UNL     1       1.073   1.788   0.013  0.00  0.00    +0.046 C 
ATOM      2  C   UNL     1       0.825   0.306   0.129  0.00  0.00    -0.028 A 
ATOM      3  C   UNL     1       0.342  -0.401  -0.955  0.00  0.00    -0.059 A 
ATOM      4  C   UNL     1       0.114  -1.761  -0.850  0.00  0.00    +0.002 A 
ATOM      5  C   UNL     1       0.367  -2.417   0.341  0.00  0.00    +0.002 A 
ATOM      6  C   UNL     1       0.849  -1.716   1.429  0.00  0.00    +0.023 A 
ATOM      7  C   UNL     1       1.085  -0.351   1.324  0.00  0.00    +0.037 A 
ENDROOT
BRANCH   7   8
ATOM      8  N   UNL     1       1.579   0.361   2.422  0.00  0.00    -0.280 N 
ATOM      9  C   UNL     1       1.394  -0.113   3.670  0.00  0.00    +0.265 C 
ATOM     10  O   UNL     1       0.714  -1.106   3.850  0.00  0.00    -0.268 OA
ATOM     11  H   UNL     1       2.054   1.195   2.285  0.00  0.00    +0.155 HD
BRANCH   9  12
ATOM     12  C   UNL     1       2.013   0.570   4.813  0.00  0.00    +0.106 A 
ATOM     13  C   UNL     1       1.909   0.193   6.119  0.00  0.00    -0.010 A 
ATOM     14  C   UNL     1       2.656   1.125   6.879  0.00  0.00    +0.041 A 
ATOM     15  C   UNL     1       3.188   2.042   5.986  0.00  0.00    +0.024 A 
ATOM     16  N   UNL     1       2.802   1.698   4.748  0.00  0.00    -0.354 N 
ATOM     17  H   UNL     1       3.039   2.171   3.935  0.00  0.00    +0.166 HD
ATOM     18  C   UNL     1       4.058   3.219   6.343  0.00  0.00    +0.064 C 
ATOM     19  C   UNL     1       1.144  -0.991   6.652  0.00  0.00    +0.047 C 
BRANCH  14  20
ATOM     20  C   UNL     1       2.832   1.122   8.334  0.00  0.00    +0.162 C 
ATOM     21  O   UNL     1       2.002   1.644   9.047  0.00  0.00    -0.292 OA
ATOM     22  C   UNL     1       4.046   0.469   8.944  0.00  0.00    +0.091 C 
ENDBRANCH  14  20
ENDBRANCH   9  12
ENDBRANCH   7   8
BRANCH   3  23
ATOM     23  C   UNL     1       0.065   0.310  -2.255  0.00  0.00    -0.043 C 
BRANCH  23  24
ATOM     24  N   UNL     1      -1.206   1.040  -2.152  0.00  0.00    +0.383 N 
ATOM     25  C   UNL     1      -2.298   0.079  -1.979  0.00  0.00    -0.068 C 
ATOM     26  C   UNL     1      -3.560   0.806  -1.502  0.00  0.00    +0.050 C 
ATOM     27  S   UNL     1      -4.053   1.998  -2.786  0.00  0.00    -0.164 S 
ATOM     28  C   UNL     1      -2.499   2.884  -3.124  0.00  0.00    +0.050 C 
ATOM     29  C   UNL     1      -1.395   1.846  -3.359  0.00  0.00    -0.068 C 
ATOM     30  H   UNL     1      -1.173   1.649  -1.349  0.00  0.00    -0.081 HD
ENDBRANCH  23  24
ENDBRANCH   3  23
TORSDOF 5
