REMARK  Name = ZINC11774956
REMARK  8 active torsions:
REMARK  status: ('A' for Active; 'I' for Inactive)
REMARK    1  A    between atoms: C_4  and  C_7
REMARK    2  A    between atoms: C_7  and  C_8
REMARK    3  A    between atoms: C_8  and  C_9
REMARK    4  A    between atoms: C_9  and  N_68
REMARK    5  A    between atoms: C_15  and  C_17
REMARK    6  A    between atoms: C_17  and  C_18
REMARK    7  A    between atoms: N_20  and  C_21
REMARK    8  A    between atoms: C_21  and  C_22
REMARK                            x       y       z     vdW  Elec       q    Type
REMARK                         _______ _______ _______ _____ _____    ______ ____
ROOT
ATOM      1  C   UNL     1       3.421  -2.252  -1.828  0.00  0.00    -0.059 C 
ATOM      2  C   UNL     1       3.089  -1.226  -0.744  0.00  0.00    +0.085 C 
ATOM      3  N   UNL     1       1.652  -1.219  -0.485  0.00  0.00    -0.318 N 
ATOM      4  C   UNL     1       0.757  -1.730  -1.338  0.00  0.00    +0.200 C 
ATOM      5  O   UNL     1      -0.420  -1.655  -1.058  0.00  0.00    -0.278 OA
ATOM      6  C   UNL     1       1.151  -2.394  -2.627  0.00  0.00    +0.028 C 
ATOM      7  H   UNL     1       1.332  -0.826   0.342  0.00  0.00    +0.149 HD
ATOM      8  N   UNL     1       2.530  -2.007  -2.979  0.00  0.00    +0.389 N 
ATOM      9  H   UNL     1       2.549  -1.007  -3.212  0.00  0.00    -0.081 HD
ENDROOT
BRANCH   8  10
ATOM     10  C   UNL     1       2.990  -2.784  -4.153  0.00  0.00    -0.077 C 
BRANCH  10  11
ATOM     11  C   UNL     1       4.243  -2.119  -4.726  0.00  0.00    -0.014 C 
BRANCH  11  12
ATOM     12  C   UNL     1       4.722  -2.903  -5.950  0.00  0.00    +0.033 C 
BRANCH  12  16
ATOM     13  C   UNL     1       8.221  -1.049  -7.550  0.00  0.00    +0.000 A 
ATOM     14  C   UNL     1       8.340  -2.032  -6.586  0.00  0.00    +0.000 A 
ATOM     15  C   UNL     1       7.207  -2.632  -6.067  0.00  0.00    +0.003 A 
ATOM     16  C   UNL     1       5.956  -2.249  -6.514  0.00  0.00    -0.047 A 
ATOM     17  C   UNL     1       5.838  -1.270  -7.483  0.00  0.00    +0.003 A 
ATOM     18  C   UNL     1       6.970  -0.666  -7.997  0.00  0.00    +0.000 A 
ENDBRANCH  12  16
ENDBRANCH  11  12
ENDBRANCH  10  11
ENDBRANCH   8  10
BRANCH   6  19
ATOM     19  C   UNL     1       0.206  -1.938  -3.741  0.00  0.00    +0.089 C 
BRANCH  19  20
ATOM     20  C   UNL     1       0.347  -0.451  -3.942  0.00  0.00    +0.212 C 
ATOM     21  O   UNL     1       1.192   0.166  -3.329  0.00  0.00    -0.276 OA
ATOM     22  N   UNL     1      -0.466   0.192  -4.804  0.00  0.00    -0.315 N 
ATOM     23  H   UNL     1      -1.141  -0.302  -5.294  0.00  0.00    +0.149 HD
BRANCH  22  24
ATOM     24  C   UNL     1      -0.329   1.638  -4.999  0.00  0.00    +0.108 C 
BRANCH  24  25
ATOM     25  C   UNL     1      -1.363   2.115  -6.021  0.00  0.00    +0.012 C 
ATOM     26  C   UNL     1      -1.058   1.491  -7.384  0.00  0.00    -0.006 C 
ATOM     27  C   UNL     1      -2.092   1.968  -8.406  0.00  0.00    +0.007 C 
ATOM     28  C   UNL     1      -2.034   3.493  -8.518  0.00  0.00    -0.010 C 
ATOM     29  C   UNL     1      -0.636   3.917  -8.971  0.00  0.00    +0.007 C 
ATOM     30  C   UNL     1       0.399   3.441  -7.950  0.00  0.00    -0.010 C 
ATOM     31  C   UNL     1       0.340   1.916  -7.838  0.00  0.00    +0.007 C 
ATOM     32  C   UNL     1       0.094   4.064  -6.586  0.00  0.00    +0.007 C 
ATOM     33  C   UNL     1      -1.304   3.639  -6.132  0.00  0.00    -0.006 C 
ATOM     34  C   UNL     1      -2.339   4.116  -7.154  0.00  0.00    +0.007 C 
ENDBRANCH  24  25
ENDBRANCH  22  24
ENDBRANCH  19  20
ENDBRANCH   6  19
TORSDOF 8
