REMARK  Name = ZINC59990118
REMARK  12 active torsions:
REMARK  status: ('A' for Active; 'I' for Inactive)
REMARK    1  A    between atoms: C_1  and  C_2
REMARK    2  A    between atoms: C_5  and  C_29
REMARK    3  A    between atoms: N_8  and  C_10
REMARK    4  A    between atoms: C_10  and  C_11
REMARK    5  A    between atoms: C_10  and  C_12
REMARK    6  A    between atoms: C_10  and  C_13
REMARK    7  A    between atoms: C_13  and  N_14
REMARK    8  A    between atoms: C_15  and  C_17
REMARK    9  A    between atoms: C_19  and  S_25
REMARK   10  A    between atoms: C_22  and  O_23
REMARK   11  A    between atoms: O_23  and  C_24
REMARK   12  A    between atoms: S_25  and  N_28
REMARK                            x       y       z     vdW  Elec       q    Type
REMARK                         _______ _______ _______ _____ _____    ______ ____
ROOT
ATOM      1  N   UNL     1       2.001   1.661   3.436  0.00  0.00    -0.313 N 
ATOM      2  C   UNL     1       1.527   2.460   4.412  0.00  0.00    +0.248 C 
ATOM      3  O   UNL     1       1.211   1.985   5.486  0.00  0.00    -0.270 OA
ATOM      4  H   UNL     1       2.253   2.039   2.579  0.00  0.00    +0.149 HD
ENDROOT
BRANCH   2   5
ATOM      5  C   UNL     1       1.391   3.910   4.178  0.00  0.00    +0.080 A 
ATOM      6  C   UNL     1       1.748   4.459   2.944  0.00  0.00    +0.045 A 
ATOM      7  C   UNL     1       1.618   5.814   2.731  0.00  0.00    +0.106 A 
ATOM      8  C   UNL     1       1.136   6.636   3.736  0.00  0.00    +0.032 A 
ATOM      9  C   UNL     1       0.780   6.107   4.961  0.00  0.00    +0.048 A 
ATOM     10  C   UNL     1       0.899   4.744   5.191  0.00  0.00    +0.132 A 
BRANCH   7  11
ATOM     11  S   UNL     1       2.069   6.504   1.174  0.00  0.00    +0.056 S 
ATOM     12  O   UNL     1       2.369   7.873   1.408  0.00  0.00    -0.153 OA
ATOM     13  O   UNL     1       3.004   5.609   0.588  0.00  0.00    -0.153 OA
BRANCH  11  14
ATOM     14  N   UNL     1       0.719   6.473   0.215  0.00  0.00    -0.204 NA
ATOM     15  H   UNL     1       0.595   7.148  -0.470  0.00  0.00    +0.144 HD
ATOM     16  H   UNL     1       0.052   5.779   0.339  0.00  0.00    +0.144 HD
ENDBRANCH  11  14
ENDBRANCH   7  11
BRANCH  10  17
ATOM     17  O   UNL     1       0.544   4.222   6.391  0.00  0.00    -0.494 OA
ATOM     18  C   UNL     1       0.051   5.134   7.375  0.00  0.00    +0.277 C 
ENDBRANCH  10  17
ENDBRANCH   2   5
BRANCH   1  19
ATOM     19  C   UNL     1       2.136   0.221   3.668  0.00  0.00    +0.092 C 
BRANCH  19  20
ATOM     20  C   UNL     1       2.570  -0.467   2.372  0.00  0.00    -0.055 C 
ATOM     21  C   UNL     1       2.629  -1.980   2.592  0.00  0.00    -0.008 C 
ATOM     22  C   UNL     1       3.953   0.043   1.963  0.00  0.00    -0.008 C 
BRANCH  20  28
ATOM     23  C   UNL     1      -0.774   1.282   0.483  0.00  0.00    +0.005 C 
ATOM     24  C   UNL     1      -0.757  -0.239   0.650  0.00  0.00    -0.031 C 
ATOM     25  C   UNL     1      -0.373  -0.895  -0.679  0.00  0.00    +0.003 C 
ATOM     26  C   UNL     1       1.048  -0.466  -1.058  0.00  0.00    -0.031 C 
ATOM     27  C   UNL     1       2.007  -0.843   0.073  0.00  0.00    -0.075 C 
ATOM     28  N   UNL     1       1.602  -0.164   1.310  0.00  0.00    +0.384 N 
ATOM     29  C   UNL     1       0.269  -0.624   1.718  0.00  0.00    -0.075 C 
ATOM     30  C   UNL     1       1.470  -1.176  -2.346  0.00  0.00    +0.005 C 
ATOM     31  H   UNL     1       1.579   0.833   1.153  0.00  0.00    -0.081 HD
ENDBRANCH  20  28
ENDBRANCH  19  20
ENDBRANCH   1  19
TORSDOF 7
