REMARK  Name = ZINC63373566
REMARK  12 active torsions:
REMARK  status: ('A' for Active; 'I' for Inactive)
REMARK    1  A    between atoms: C_1  and  C_2
REMARK    2  A    between atoms: C_2  and  C_4
REMARK    3  A    between atoms: C_2  and  N_12
REMARK    4  A    between atoms: C_4  and  C_5
REMARK    5  A    between atoms: C_5  and  C_6
REMARK    6  A    between atoms: C_13  and  C_15
REMARK    7  A    between atoms: C_15  and  C_17
REMARK    8  A    between atoms: C_15  and  N_21
REMARK    9  A    between atoms: C_17  and  C_18
REMARK   10  A    between atoms: C_18  and  C_19
REMARK   11  A    between atoms: C_18  and  C_20
REMARK   12  A    between atoms: C_24  and  C_40
REMARK                            x       y       z     vdW  Elec       q    Type
REMARK                         _______ _______ _______ _____ _____    ______ ____
ROOT
ATOM      1  N   UNL     1      -3.978  -1.213  -2.505  0.00  0.00    -0.212 N 
ATOM      2  C   UNL     1      -5.059  -0.529  -2.935  0.00  0.00    +0.249 C 
ATOM      3  O   UNL     1      -5.783   0.185  -2.276  0.00  0.00    -0.273 OA
ATOM      4  C   UNL     1      -5.178  -0.841  -4.410  0.00  0.00    +0.136 C 
ATOM      5  C   UNL     1      -6.527  -1.489  -4.718  0.00  0.00    +0.139 C 
ATOM      6  C   UNL     1      -6.259  -2.939  -5.093  0.00  0.00    -0.034 C 
ATOM      7  C   UNL     1      -6.994  -3.679  -4.267  0.00  0.00    -0.001 A 
ATOM      8  C   UNL     1      -7.203  -5.133  -4.182  0.00  0.00    +0.010 A 
ATOM      9  C   UNL     1      -8.027  -5.563  -3.190  0.00  0.00    +0.001 A 
ATOM     10  C   UNL     1      -8.655  -4.701  -2.285  0.00  0.00    +0.002 A 
ATOM     11  C   UNL     1      -8.523  -3.351  -2.292  0.00  0.00    +0.026 A 
ATOM     12  C   UNL     1      -7.684  -2.780  -3.293  0.00  0.00    +0.043 A 
ATOM     13  N   UNL     1      -7.398  -1.521  -3.541  0.00  0.00    -0.375 N 
ATOM     14  C   UNL     1      -5.277  -3.359  -6.159  0.00  0.00    +0.052 C 
ATOM     15  C   UNL     1      -3.948  -2.640  -5.856  0.00  0.00    +0.115 C 
ATOM     16  N   UNL     1      -4.128  -1.857  -4.630  0.00  0.00    -0.269 N 
ATOM     17  C   UNL     1      -3.428  -1.938  -3.489  0.00  0.00    +0.313 C 
ATOM     18  O   UNL     1      -2.413  -2.594  -3.362  0.00  0.00    -0.252 OA
ATOM     19  C   UNL     1      -4.935   0.405  -5.264  0.00  0.00    +0.044 C 
ATOM     20  H   UNL     1      -7.702  -0.749  -3.039  0.00  0.00    +0.160 HD
ENDROOT
BRANCH   1  21
ATOM     21  C   UNL     1      -3.465  -1.164  -1.134  0.00  0.00    +0.171 C 
BRANCH  21  23
ATOM     22  N   UNL     1      -1.372  -0.511   0.012  0.00  0.00    -0.311 N 
ATOM     23  C   UNL     1      -2.051  -0.643  -1.145  0.00  0.00    +0.234 C 
ATOM     24  O   UNL     1      -1.524  -0.341  -2.194  0.00  0.00    -0.274 OA
ATOM     25  H   UNL     1      -1.794  -0.752   0.852  0.00  0.00    +0.149 HD
BRANCH  22  27
ATOM     26  C   UNL     1      -0.019   1.526   0.010  0.00  0.00    +0.028 C 
ATOM     27  C   UNL     1       0.002  -0.004   0.002  0.00  0.00    +0.070 C 
BRANCH  27  28
ATOM     28  C   UNL     1       0.742  -0.511   1.242  0.00  0.00    +0.026 C 
BRANCH  28  29
ATOM     29  C   UNL     1       0.872  -2.034   1.171  0.00  0.00    +0.037 C 
BRANCH  29  30
ATOM     30  C   UNL     1       1.601  -2.533   2.392  0.00  0.00    -0.047 A 
ATOM     31  C   UNL     1       2.979  -2.641   2.378  0.00  0.00    +0.003 A 
ATOM     32  C   UNL     1       3.647  -3.099   3.498  0.00  0.00    +0.000 A 
ATOM     33  C   UNL     1       2.938  -3.448   4.632  0.00  0.00    +0.000 A 
ATOM     34  C   UNL     1       1.560  -3.340   4.646  0.00  0.00    +0.000 A 
ATOM     35  C   UNL     1       0.892  -2.878   3.527  0.00  0.00    +0.003 A 
ENDBRANCH  29  30
ENDBRANCH  28  29
ENDBRANCH  27  28
ENDBRANCH  22  27
ENDBRANCH  21  23
BRANCH  21  36
ATOM     36  C   UNL     1      -3.485  -2.571  -0.532  0.00  0.00    +0.035 C 
BRANCH  36  37
ATOM     37  C   UNL     1      -4.932  -3.051  -0.406  0.00  0.00    -0.015 C 
ATOM     38  C   UNL     1      -4.948  -4.502   0.079  0.00  0.00    +0.007 C 
ATOM     39  C   UNL     1      -5.676  -2.169   0.599  0.00  0.00    +0.007 C 
ENDBRANCH  36  37
ENDBRANCH  21  36
ENDBRANCH   1  21
TORSDOF 8
