REMARK  Name = ZINC15351913
REMARK  12 active torsions:
REMARK  status: ('A' for Active; 'I' for Inactive)
REMARK    1  A    between atoms: C_1  and  N_55
REMARK    2  A    between atoms: C_2  and  C_3
REMARK    3  A    between atoms: C_2  and  N_55
REMARK    4  A    between atoms: N_5  and  C_6
REMARK    5  A    between atoms: C_6  and  C_7
REMARK    6  A    between atoms: C_7  and  C_8
REMARK    7  A    between atoms: C_11  and  S_14
REMARK    8  A    between atoms: S_14  and  N_17
REMARK    9  A    between atoms: C_18  and  C_19
REMARK   10  A    between atoms: C_18  and  N_55
REMARK   11  A    between atoms: N_21  and  C_22
REMARK   12  A    between atoms: C_26  and  C_28
REMARK                            x       y       z     vdW  Elec       q    Type
REMARK                         _______ _______ _______ _____ _____    ______ ____
ROOT
ATOM      1  C   UNL     1       3.652   1.736   0.572  0.00  0.00    +0.019 C 
ENDROOT
BRANCH   1   2
ATOM      2  C   UNL     1       4.716   0.756   0.996  0.00  0.00    +0.196 C 
ATOM      3  O   UNL     1       4.449  -0.423   1.097  0.00  0.00    -0.278 OA
ATOM      4  N   UNL     1       5.964   1.189   1.262  0.00  0.00    -0.317 N 
ATOM      5  H   UNL     1       6.178   2.132   1.182  0.00  0.00    +0.149 HD
BRANCH   4   6
ATOM      6  C   UNL     1       6.998   0.237   1.674  0.00  0.00    +0.109 C 
BRANCH   6   7
ATOM      7  C   UNL     1       8.313   0.982   1.913  0.00  0.00    +0.054 C 
BRANCH   7   8
ATOM      8  C   UNL     1       9.376   0.002   2.337  0.00  0.00    -0.046 A 
ATOM      9  C   UNL     1       9.565  -0.276   3.677  0.00  0.00    +0.005 A 
ATOM     10  C   UNL     1      10.538  -1.178   4.066  0.00  0.00    +0.029 A 
ATOM     11  C   UNL     1      11.328  -1.796   3.114  0.00  0.00    +0.105 A 
ATOM     12  C   UNL     1      11.142  -1.513   1.773  0.00  0.00    +0.029 A 
ATOM     13  C   UNL     1      10.167  -0.614   1.385  0.00  0.00    +0.005 A 
BRANCH  11  14
ATOM     14  S   UNL     1      12.570  -2.942   3.609  0.00  0.00    +0.056 S 
ATOM     15  O   UNL     1      12.178  -3.443   4.879  0.00  0.00    -0.153 OA
ATOM     16  O   UNL     1      12.806  -3.792   2.494  0.00  0.00    -0.153 OA
BRANCH  14  17
ATOM     17  N   UNL     1      13.964  -2.080   3.850  0.00  0.00    -0.204 NA
ATOM     18  H   UNL     1      13.970  -1.120   3.711  0.00  0.00    +0.144 HD
ATOM     19  H   UNL     1      14.773  -2.536   4.130  0.00  0.00    +0.144 HD
ENDBRANCH  14  17
ENDBRANCH  11  14
ENDBRANCH   7   8
ENDBRANCH   6   7
ENDBRANCH   4   6
ENDBRANCH   1   2
BRANCH   1  21
ATOM     20  C   UNL     1       2.503   0.109  -0.803  0.00  0.00    -0.095 C 
ATOM     21  N   UNL     1       2.385   1.004   0.367  0.00  0.00    +0.389 N 
ATOM     22  H   UNL     1       2.187   0.439   1.201  0.00  0.00    -0.081 HD
BRANCH  21  23
ATOM     23  C   UNL     1       1.277   1.961   0.161  0.00  0.00    +0.019 C 
BRANCH  23  24
ATOM     24  C   UNL     1      -0.027   1.205   0.175  0.00  0.00    +0.201 C 
ATOM     25  O   UNL     1      -0.028   0.001   0.322  0.00  0.00    -0.278 OA
ATOM     26  N   UNL     1      -1.191   1.867   0.018  0.00  0.00    -0.287 N 
ATOM     27  H   UNL     1      -1.196   2.836  -0.023  0.00  0.00    +0.155 HD
BRANCH  26  28
ATOM     28  C   UNL     1      -2.391   1.155  -0.086  0.00  0.00    +0.034 A 
ATOM     29  C   UNL     1      -2.412  -0.089  -0.704  0.00  0.00    +0.025 A 
ATOM     30  C   UNL     1      -3.597  -0.791  -0.800  0.00  0.00    +0.022 A 
ATOM     31  C   UNL     1      -4.766  -0.252  -0.292  0.00  0.00    +0.053 A 
ATOM     32  C   UNL     1      -4.749   0.990   0.319  0.00  0.00    +0.075 A 
ATOM     33  C   UNL     1      -3.565   1.694   0.423  0.00  0.00    +0.037 A 
ATOM     34 CL   UNL     1      -6.255  -1.134  -0.421  0.00  0.00    -0.083 Cl
BRANCH  32  35
ATOM     35  C   UNL     1      -6.024   1.573   0.872  0.00  0.00    +0.419 C 
ATOM     36  F   UNL     1      -5.756   2.825   1.438  0.00  0.00    -0.166 F 
ATOM     37  F   UNL     1      -6.957   1.718  -0.160  0.00  0.00    -0.166 F 
ATOM     38  F   UNL     1      -6.540   0.720   1.853  0.00  0.00    -0.166 F 
ENDBRANCH  32  35
ENDBRANCH  26  28
ENDBRANCH  23  24
ENDBRANCH  21  23
ENDBRANCH   1  21
TORSDOF 11
