REMARK  Name = ZINC09366673
REMARK  5 active torsions:
REMARK  status: ('A' for Active; 'I' for Inactive)
REMARK    1  A    between atoms: C_1  and  C_2
REMARK    2  A    between atoms: C_2  and  C_4
REMARK    3  A    between atoms: C_2  and  S_14
REMARK    4  A    between atoms: N_6  and  C_7
REMARK    5  A    between atoms: S_14  and  C_15
REMARK                            x       y       z     vdW  Elec       q    Type
REMARK                         _______ _______ _______ _____ _____    ______ ____
ROOT
ATOM      1  C   UNL     1      -0.000   1.099  -0.012  0.00  0.00    +0.029 C 
ATOM      2  C   UNL     1      -0.717   1.580   1.251  0.00  0.00    +0.137 C 
ENDROOT
BRANCH   2   3
ATOM      3  C   UNL     1      -0.745   3.087   1.269  0.00  0.00    +0.230 C 
ATOM      4  O   UNL     1       0.111   3.702   1.869  0.00  0.00    -0.274 OA
ATOM      5  N   UNL     1      -1.721   3.751   0.618  0.00  0.00    -0.282 N 
ATOM      6  H   UNL     1      -2.367   3.262   0.085  0.00  0.00    +0.155 HD
BRANCH   5   7
ATOM      7  C   UNL     1      -1.801   5.146   0.712  0.00  0.00    +0.069 A 
ATOM      8  C   UNL     1      -0.643   5.905   0.801  0.00  0.00    +0.026 A 
ATOM      9  C   UNL     1      -0.725   7.281   0.888  0.00  0.00    +0.002 A 
ATOM     10  C   UNL     1      -1.960   7.903   0.897  0.00  0.00    +0.003 A 
ATOM     11  C   UNL     1      -3.117   7.151   0.814  0.00  0.00    +0.040 A 
ATOM     12  C   UNL     1      -3.042   5.773   0.721  0.00  0.00    +0.144 A 
ATOM     13  F   UNL     1      -4.173   5.037   0.641  0.00  0.00    -0.204 F 
ENDBRANCH   5   7
ENDBRANCH   2   3
BRANCH   2  14
ATOM     14  S   UNL     1       0.164   0.975   2.712  0.00  0.00    -0.073 S 
BRANCH  14  15
ATOM     15  C   UNL     1      -0.081  -0.759   2.521  0.00  0.00    +0.195 A 
ATOM     16  N   UNL     1      -0.775  -1.223   1.485  0.00  0.00    -0.189 NA
ATOM     17  C   UNL     1      -0.955  -2.531   1.339  0.00  0.00    +0.218 A 
ATOM     18  N   UNL     1      -0.450  -3.376   2.232  0.00  0.00    -0.181 NA
ATOM     19  C   UNL     1       0.240  -2.913   3.270  0.00  0.00    +0.218 A 
ATOM     20  N   UNL     1       0.425  -1.605   3.414  0.00  0.00    -0.189 NA
ATOM     21  N   UNL     1       0.763  -3.790   4.198  0.00  0.00    -0.327 N 
ATOM     22  N   UNL     1      -1.672  -3.013   0.262  0.00  0.00    -0.327 N 
ATOM     23  H   UNL     1       1.266  -3.452   4.955  0.00  0.00    +0.145 HD
ATOM     24  H   UNL     1       0.628  -4.745   4.092  0.00  0.00    +0.145 HD
ATOM     25  H   UNL     1      -1.807  -3.967   0.157  0.00  0.00    +0.145 HD
ATOM     26  H   UNL     1      -2.040  -2.396  -0.390  0.00  0.00    +0.145 HD
ENDBRANCH  14  15
ENDBRANCH   2  14
TORSDOF 4
