REMARK  Name = ZINC26644003
REMARK  6 active torsions:
REMARK  status: ('A' for Active; 'I' for Inactive)
REMARK    1  A    between atoms: C_1  and  C_2
REMARK    2  A    between atoms: C_2  and  C_23
REMARK    3  A    between atoms: C_9  and  C_11
REMARK    4  A    between atoms: C_11  and  N_12
REMARK    5  A    between atoms: N_12  and  C_13
REMARK    6  A    between atoms: C_13  and  N_14
REMARK                            x       y       z     vdW  Elec       q    Type
REMARK                         _______ _______ _______ _____ _____    ______ ____
ROOT
ATOM      1  N   UNL     1       5.232   0.191  -0.129  0.00  0.00    -0.326 N 
ATOM      2  H   UNL     1       4.980   0.785  -0.853  0.00  0.00    +0.148 HD
ENDROOT
BRANCH   1   3
ATOM      3  C   UNL     1       6.477  -0.322  -0.079  0.00  0.00    +0.136 C 
ATOM      4  S   UNL     1       6.920  -1.371   1.199  0.00  0.00    -0.019 S 
BRANCH   3   5
ATOM      5  N   UNL     1       7.373  -0.010  -1.037  0.00  0.00    -0.283 N 
ATOM      6  C   UNL     1       8.683  -0.477  -0.944  0.00  0.00    +0.102 A 
ATOM      7  C   UNL     1       9.736   0.349  -1.319  0.00  0.00    +0.043 A 
ATOM      8  C   UNL     1      11.032  -0.127  -1.222  0.00  0.00    +0.020 A 
ATOM      9  C   UNL     1      11.230  -1.418  -0.750  0.00  0.00    +0.034 A 
ATOM     10  C   UNL     1      10.136  -2.183  -0.395  0.00  0.00    +0.099 A 
ATOM     11  N   UNL     1       8.912  -1.700  -0.494  0.00  0.00    -0.348 N 
ATOM     12 BR   UNL     1      12.979  -2.121  -0.597  0.00  0.00    -0.049 Br
ATOM     13  H   UNL     1       8.162  -2.257  -0.234  0.00  0.00    +0.167 HD
ATOM     14  H   UNL     1       7.106   0.539  -1.790  0.00  0.00    +0.155 HD
ENDBRANCH   3   5
ENDBRANCH   1   3
BRANCH   1  15
ATOM     15  C   UNL     1       4.258  -0.148   0.912  0.00  0.00    +0.106 C 
BRANCH  15  22
ATOM     16  C   UNL     1      -0.018   1.524   0.015  0.00  0.00    +0.011 C 
ATOM     17  C   UNL     1       0.019  -0.000   0.119  0.00  0.00    -0.029 C 
ATOM     18  C   UNL     1       1.138  -0.677  -0.688  0.00  0.00    -0.004 C 
ATOM     19  C   UNL     1       1.202  -1.719   0.447  0.00  0.00    +0.008 C 
ATOM     20  C   UNL     1       0.762  -0.547   1.347  0.00  0.00    -0.004 C 
ATOM     21  C   UNL     1       1.952   0.317   1.761  0.00  0.00    +0.009 C 
ATOM     22  C   UNL     1       2.928   0.565   0.621  0.00  0.00    +0.007 C 
ATOM     23  C   UNL     1       2.417   0.157  -0.753  0.00  0.00    +0.009 C 
ATOM     24  C   UNL     1      -1.364  -0.626  -0.098  0.00  0.00    +0.011 C 
ENDBRANCH  15  22
ENDBRANCH   1  15
TORSDOF 4
