REMARK  Name = ZINC20479590
REMARK  5 active torsions:
REMARK  status: ('A' for Active; 'I' for Inactive)
REMARK    1  A    between atoms: C_5  and  N_7
REMARK    2  A    between atoms: N_7  and  S_8
REMARK    3  A    between atoms: S_8  and  C_11
REMARK    4  A    between atoms: C_14  and  O_18
REMARK    5  A    between atoms: C_15  and  N_17
REMARK                            x       y       z     vdW  Elec       q    Type
REMARK                         _______ _______ _______ _____ _____    ______ ____
ROOT
ATOM      1  S   UNL     1       3.722   2.801   0.698  0.00  0.00    +0.072 S 
ATOM      2  O   UNL     1       4.809   1.924   0.439  0.00  0.00    -0.150 OA
ATOM      3  O   UNL     1       3.737   4.168   0.310  0.00  0.00    -0.150 OA
ENDROOT
BRANCH   1   4
ATOM      4  C   UNL     1       3.458   2.776   2.440  0.00  0.00    +0.110 A 
ATOM      5  C   UNL     1       2.843   3.848   3.060  0.00  0.00    +0.032 A 
ATOM      6  C   UNL     1       2.629   3.831   4.426  0.00  0.00    +0.049 A 
ATOM      7  C   UNL     1       3.039   2.743   5.179  0.00  0.00    +0.137 A 
ATOM      8  C   UNL     1       3.663   1.664   4.555  0.00  0.00    +0.068 A 
ATOM      9  C   UNL     1       3.870   1.686   3.184  0.00  0.00    +0.055 A 
BRANCH   8  10
ATOM     10  N   UNL     1       4.079   0.562   5.311  0.00  0.00    -0.355 N 
ATOM     11  H   UNL     1       4.571  -0.289   4.817  0.00  0.00    +0.142 HD
ATOM     12  H   UNL     1       3.914   0.546   6.398  0.00  0.00    +0.142 HD
ENDBRANCH   8  10
BRANCH   7  13
ATOM     13  O   UNL     1       2.834   2.727   6.523  0.00  0.00    -0.505 OA
ATOM     14  H   UNL     1       3.160   1.863   7.120  0.00  0.00    +0.292 HD
ENDBRANCH   7  13
ENDBRANCH   1   4
BRANCH   1  15
ATOM     15  N   UNL     1       2.387   2.123  -0.010  0.00  0.00    -0.215 N 
ATOM     16  H   UNL     1       2.492   1.218  -0.626  0.00  0.00    +0.174 HD
BRANCH  15  21
ATOM     17  C   UNL     1      -0.243   4.649   0.441  0.00  0.00    +0.002 A 
ATOM     18  C   UNL     1      -1.364   3.845   0.540  0.00  0.00    +0.001 A 
ATOM     19  C   UNL     1      -1.243   2.471   0.452  0.00  0.00    +0.016 A 
ATOM     20  C   UNL     1       0.001   1.896   0.276  0.00  0.00    +0.036 A 
ATOM     21  C   UNL     1       1.129   2.701   0.175  0.00  0.00    +0.061 A 
ATOM     22  C   UNL     1       1.002   4.082   0.258  0.00  0.00    +0.025 A 
ATOM     23  I   UNL     1       0.185  -0.188   0.151  0.00  0.00    -0.042 I 
ENDBRANCH  15  21
ENDBRANCH   1  15
TORSDOF 5
