REMARK  Name = ZINC28939323
REMARK  6 active torsions:
REMARK  status: ('A' for Active; 'I' for Inactive)
REMARK    1  A    between atoms: C_1  and  C_2
REMARK    2  A    between atoms: C_9  and  C_16
REMARK    3  A    between atoms: C_11  and  O_12
REMARK    4  A    between atoms: C_16  and  S_17
REMARK    5  A    between atoms: S_17  and  C_18
REMARK    6  A    between atoms: C_21  and  C_27
REMARK                            x       y       z     vdW  Elec       q    Type
REMARK                         _______ _______ _______ _____ _____    ______ ____
ROOT
ATOM      1  C   UNL     1      -0.617   1.507  -2.165  0.00  0.00    +0.109 C 
ATOM      2  C   UNL     1      -0.606  -0.000  -2.168  0.00  0.00    +0.214 C 
ATOM      3  O   UNL     1      -1.141  -0.609  -3.070  0.00  0.00    -0.276 OA
ATOM      4  N   UNL     1       0.000  -0.672  -1.169  0.00  0.00    -0.286 N 
ATOM      5  C   UNL     1      -0.071  -2.064  -1.121  0.00  0.00    +0.037 A 
ATOM      6  C   UNL     1      -0.140  -2.712   0.113  0.00  0.00    +0.024 A 
ATOM      7  C   UNL     1      -0.216  -4.072   0.175  0.00  0.00    +0.013 A 
ATOM      8  C   UNL     1      -0.211  -4.825  -1.005  0.00  0.00    +0.022 A 
ATOM      9  C   UNL     1      -0.286  -6.287  -0.967  0.00  0.00    -0.020 A 
ATOM     10  C   UNL     1      -0.279  -6.961  -2.147  0.00  0.00    +0.092 A 
ATOM     11  C   UNL     1      -0.200  -6.248  -3.361  0.00  0.00    +0.285 A 
ATOM     12  O   UNL     1      -0.132  -4.908  -3.389  0.00  0.00    -0.425 OA
ATOM     13  C   UNL     1      -0.136  -4.178  -2.253  0.00  0.00    +0.141 A 
ATOM     14  C   UNL     1      -0.065  -2.794  -2.300  0.00  0.00    +0.070 A 
ATOM     15  H   UNL     1       0.550  -0.122  -0.391  0.00  0.00    +0.155 HD
ENDROOT
BRANCH  11  16
ATOM     16  O   UNL     1      -0.194  -6.865  -4.412  0.00  0.00    -0.480 OA
ATOM     17  H   UNL     1      -0.133  -6.323  -5.367  0.00  0.00    +0.295 HD
ENDBRANCH  11  16
BRANCH   9  18
ATOM     18  C   UNL     1      -0.370  -7.024   0.344  0.00  0.00    +0.112 C 
BRANCH  18  19
ATOM     19  S   UNL     1       1.300  -7.405   0.930  0.00  0.00    -0.100 S 
BRANCH  19  20
ATOM     20  C   UNL     1       0.914  -8.240   2.433  0.00  0.00    +0.109 A 
ATOM     21  C   UNL     1       1.954  -8.747   3.264  0.00  0.00    +0.040 A 
ATOM     22  C   UNL     1       3.391  -8.685   3.088  0.00  0.00    +0.029 A 
ATOM     23  C   UNL     1       4.192  -9.241   4.029  0.00  0.00    +0.022 A 
ATOM     24  S   UNL     1       3.038  -9.883   5.228  0.00  0.00    -0.069 S 
ATOM     25  C   UNL     1       1.524  -9.394   4.444  0.00  0.00    +0.113 A 
ATOM     26  N   UNL     1       0.244  -9.517   4.732  0.00  0.00    -0.228 NA
ATOM     27  C   UNL     1      -0.674  -9.030   3.920  0.00  0.00    +0.223 A 
ATOM     28  N   UNL     1      -0.346  -8.409   2.801  0.00  0.00    -0.229 NA
BRANCH  23  29
ATOM     29  C   UNL     1       5.669  -9.301   4.056  0.00  0.00    -0.011 A 
ATOM     30  C   UNL     1       6.412  -8.742   3.015  0.00  0.00    +0.009 A 
ATOM     31  C   UNL     1       7.790  -8.797   3.049  0.00  0.00    +0.001 A 
ATOM     32  C   UNL     1       8.435  -9.414   4.107  0.00  0.00    +0.000 A 
ATOM     33  C   UNL     1       7.704  -9.974   5.139  0.00  0.00    +0.001 A 
ATOM     34  C   UNL     1       6.326  -9.921   5.120  0.00  0.00    +0.009 A 
ENDBRANCH  23  29
ENDBRANCH  19  20
ENDBRANCH  18  19
ENDBRANCH   9  18
TORSDOF 5
