REMARK  Name = ZINC61951770
REMARK  5 active torsions:
REMARK  status: ('A' for Active; 'I' for Inactive)
REMARK    1  A    between atoms: C_1  and  N_2
REMARK    2  A    between atoms: N_2  and  C_3
REMARK    3  A    between atoms: N_2  and  C_10
REMARK    4  A    between atoms: C_3  and  C_4
REMARK    5  A    between atoms: C_13  and  C_16
REMARK                            x       y       z     vdW  Elec       q    Type
REMARK                         _______ _______ _______ _____ _____    ______ ____
ROOT
ATOM      1  C   UNL     1      -0.025  -0.723  -1.187  0.00  0.00    +0.030 A 
ATOM      2  C   UNL     1      -0.124  -2.111  -1.156  0.00  0.00    +0.024 A 
ATOM      3  C   UNL     1      -0.142  -2.828  -2.331  0.00  0.00    +0.013 A 
ATOM      4  C   UNL     1      -0.062  -2.161  -3.556  0.00  0.00    +0.012 A 
ATOM      5  C   UNL     1       0.036  -0.767  -3.584  0.00  0.00    +0.013 A 
ATOM      6  C   UNL     1       0.049  -0.055  -2.406  0.00  0.00    +0.024 A 
ENDROOT
BRANCH   4   7
ATOM      7  C   UNL     1      -0.082  -2.927  -4.818  0.00  0.00    +0.094 C 
ATOM      8  N   UNL     1      -0.005  -2.289  -5.986  0.00  0.00    -0.387 N 
ATOM      9  N   UNL     1      -0.175  -4.256  -4.790  0.00  0.00    -0.345 N 
ATOM     10  H   UNL     1       0.063  -1.322  -6.007  0.00  0.00    +0.157 HD
ATOM     11  H   UNL     1      -0.231  -4.720  -3.940  0.00  0.00    +0.144 HD
ATOM     12  H   UNL     1      -0.188  -4.759  -5.619  0.00  0.00    +0.144 HD
ATOM     13  H   UNL     1      -0.018  -2.792  -6.815  0.00  0.00    +0.157 HD
ENDBRANCH   4   7
BRANCH   1  15
ATOM     14  C   UNL     1      -0.032   1.463  -0.030  0.00  0.00    +0.129 C 
ATOM     15  N   UNL     1      -0.007  -0.001   0.002  0.00  0.00    -0.328 N 
BRANCH  15  16
ATOM     16  C   UNL     1       0.037  -0.706   1.286  0.00  0.00    +0.148 C 
BRANCH  16  17
ATOM     17  C   UNL     1       1.467  -1.035   1.629  0.00  0.00    +0.021 A 
ATOM     18  C   UNL     1       2.338  -0.346   2.406  0.00  0.00    +0.030 A 
ATOM     19  C   UNL     1       3.616  -0.844   2.583  0.00  0.00    +0.023 A 
ATOM     20  C   UNL     1       3.959  -2.006   1.976  0.00  0.00    +0.046 A 
ATOM     21  S   UNL     1       2.450  -2.437   1.125  0.00  0.00    -0.099 S 
ATOM     22 BR   UNL     1       1.815   1.272   3.233  0.00  0.00    -0.049 Br
ENDBRANCH  16  17
ENDBRANCH  15  16
ENDBRANCH   1  15
TORSDOF 4
