REMARK  Name = ZINC40774707
REMARK  8 active torsions:
REMARK  status: ('A' for Active; 'I' for Inactive)
REMARK    1  A    between atoms: CD1_1  and  CG_2
REMARK    2  A    between atoms: CG_2  and  CD2_3
REMARK    3  A    between atoms: CG_2  and  CB_4
REMARK    4  A    between atoms: CB_4  and  CA_5
REMARK    5  A    between atoms: CA_5  and  C_7
REMARK    6  A    between atoms: CA_5  and  N_9
REMARK    7  A    between atoms: C_7  and  O_8
REMARK    8  A    between atoms: N_9  and  C_10
REMARK                            x       y       z     vdW  Elec       q    Type
REMARK                         _______ _______ _______ _____ _____    ______ ____
ROOT
ATOM      1  C   UNK A   0      -0.746  -3.888  -1.520  0.00  0.00    +0.049 C 
ATOM      2  C   UNK A   0      -0.263  -4.300  -2.891  0.00  0.00    -0.031 A 
ATOM      3  C   UNK A   0      -0.790  -4.149  -4.154  0.00  0.00    +0.005 A 
ATOM      4  C   UNK A   0      -0.106  -4.641  -5.251  0.00  0.00    +0.015 A 
ATOM      5  C   UNK A   0       1.107  -5.284  -5.075  0.00  0.00    +0.020 A 
ATOM      6  C   UNK A   0       1.637  -5.436  -3.809  0.00  0.00    +0.038 A 
ATOM      7  C   UNK A   0       0.954  -4.943  -2.700  0.00  0.00    +0.036 A 
ATOM      8  N   UNK A   0       1.276  -4.972  -1.343  0.00  0.00    -0.286 N 
ATOM      9  C   UNK A   0       0.336  -4.380  -0.582  0.00  0.00    +0.208 C 
ATOM     10  O   UNK A   0       0.352  -4.260   0.625  0.00  0.00    -0.277 OA
ATOM     11 BR   UNK A   0       2.042  -5.957  -6.574  0.00  0.00    -0.050 Br
ATOM     12  H   UNK A   0       2.084  -5.375  -0.988  0.00  0.00    +0.155 HD
ENDROOT
BRANCH   1  13
ATOM     13  N   LEU A   1      -0.875  -2.427  -1.436  0.00  0.00    +0.393 N 
ATOM     14  H1  LEU A   1      -1.499  -2.103  -2.160  0.00  0.00    -0.084 HD
ATOM     15  H2  LEU A   1       0.032  -2.002  -1.558  0.00  0.00    -0.084 HD
BRANCH  13  16
ATOM     16  CA  LEU A   1      -1.416  -2.058  -0.121  0.00  0.00    -0.044 C 
BRANCH  16  17
ATOM     17  CB  LEU A   1      -1.433  -0.534   0.013  0.00  0.00    -0.011 C 
BRANCH  17  19
ATOM     18  CD1 LEU A   1      -0.019   1.526   0.010  0.00  0.00    +0.007 C 
ATOM     19  CG  LEU A   1       0.002  -0.004   0.002  0.00  0.00    -0.019 C 
ATOM     20  CD2 LEU A   1       0.742  -0.511   1.242  0.00  0.00    +0.007 C 
ENDBRANCH  17  19
ENDBRANCH  16  17
BRANCH  16  21
ATOM     21  C   LEU A   1      -2.841  -2.598   0.015  0.00  0.00    +0.140 C 
BRANCH  21  22
ATOM     22  O   LEU A   1      -3.688  -1.952  -0.938  0.00  0.00    -0.397 OA
ATOM     23  H   LEU A   1      -4.609  -2.247  -0.908  0.00  0.00    +0.209 HD
ENDBRANCH  21  22
ENDBRANCH  16  21
ENDBRANCH  13  16
ENDBRANCH   1  13
TORSDOF 6
