REMARK  Name = ZINC63176263
REMARK  6 active torsions:
REMARK  status: ('A' for Active; 'I' for Inactive)
REMARK    1  A    between atoms: C_1  and  C_2
REMARK    2  A    between atoms: C_5  and  C_21
REMARK    3  A    between atoms: C_6  and  S_9
REMARK    4  A    between atoms: S_9  and  N_12
REMARK    5  A    between atoms: N_12  and  C_13
REMARK    6  A    between atoms: C_18  and  N_20
REMARK                            x       y       z     vdW  Elec       q    Type
REMARK                         _______ _______ _______ _____ _____    ______ ____
ROOT
ATOM      1  S   UNL     1      -0.514  -2.795   2.578  0.00  0.00    +0.060 S 
ATOM      2  O   UNL     1      -1.272  -1.933   3.415  0.00  0.00    -0.153 OA
ATOM      3  O   UNL     1      -1.031  -4.021   2.079  0.00  0.00    -0.153 OA
ENDROOT
BRANCH   1   9
ATOM      4  C   UNL     1       1.226  -2.415  -2.339  0.00  0.00    +0.045 C 
ATOM      5  C   UNL     1       0.763  -1.726  -1.081  0.00  0.00    -0.029 A 
ATOM      6  C   UNL     1       0.714  -0.346  -1.028  0.00  0.00    +0.025 A 
ATOM      7  C   UNL     1       0.290   0.287   0.127  0.00  0.00    +0.046 A 
ATOM      8  C   UNL     1      -0.086  -0.461   1.228  0.00  0.00    -0.004 A 
ATOM      9  C   UNL     1      -0.036  -1.841   1.175  0.00  0.00    +0.128 A 
ATOM     10  C   UNL     1       0.383  -2.474   0.018  0.00  0.00    +0.070 A 
ATOM     11 CL   UNL     1       0.438  -4.208  -0.051  0.00  0.00    -0.081 Cl
ATOM     12  C   UNL     1      -0.547   0.228   2.486  0.00  0.00    +0.047 C 
ATOM     13 CL   UNL     1       0.228   2.021   0.194  0.00  0.00    -0.083 Cl
ENDBRANCH   1   9
BRANCH   1  14
ATOM     14  N   UNL     1       0.869  -3.168   3.409  0.00  0.00    -0.188 NA
ATOM     15  H   UNL     1       1.130  -4.095   3.526  0.00  0.00    +0.148 HD
BRANCH  14  16
ATOM     16  C   UNL     1       1.698  -2.097   3.970  0.00  0.00    +0.062 C 
ATOM     17  C   UNL     1       2.869  -1.783   3.017  0.00  0.00    +0.019 C 
ATOM     18  C   UNL     1       4.058  -1.480   3.962  0.00  0.00    -0.000 C 
ATOM     19  C   UNL     1       3.853  -2.504   5.107  0.00  0.00    -0.015 C 
ATOM     20  C   UNL     1       2.322  -2.556   5.299  0.00  0.00    -0.056 C 
BRANCH  20  21
ATOM     21  N   UNL     1       1.899  -3.928   5.607  0.00  0.00    +0.381 N 
ATOM     22  H   UNL     1       2.201  -4.547   4.869  0.00  0.00    -0.090 HD
ATOM     23  H   UNL     1       2.313  -4.220   6.480  0.00  0.00    -0.090 HD
ATOM     24  H   UNL     1       0.894  -3.961   5.684  0.00  0.00    -0.090 HD
ENDBRANCH  20  21
ENDBRANCH  14  16
ENDBRANCH   1  14
TORSDOF 4
