REMARK  Name = ZINC63530886
REMARK  8 active torsions:
REMARK  status: ('A' for Active; 'I' for Inactive)
REMARK    1  A    between atoms: C_1  and  O_2
REMARK    2  A    between atoms: O_2  and  C_3
REMARK    3  A    between atoms: C_7  and  S_25
REMARK    4  A    between atoms: C_8  and  C_13
REMARK    5  A    between atoms: N_15  and  C_16
REMARK    6  A    between atoms: C_16  and  C_17
REMARK    7  A    between atoms: C_17  and  C_18
REMARK    8  A    between atoms: S_25  and  C_26
REMARK                            x       y       z     vdW  Elec       q    Type
REMARK                         _______ _______ _______ _____ _____    ______ ____
ROOT
ATOM      1  C   UNL     1       0.938  -0.737   0.829  0.00  0.00    +0.122 A 
ATOM      2  C   UNL     1       1.574   0.064   1.788  0.00  0.00    +0.046 A 
ATOM      3  C   UNL     1       2.111  -0.470   2.913  0.00  0.00    +0.014 A 
ATOM      4  C   UNL     1       2.035  -1.864   3.134  0.00  0.00    +0.010 A 
ATOM      5  C   UNL     1       2.486  -2.672   4.170  0.00  0.00    +0.030 C 
ATOM      6  C   UNL     1       2.083  -4.081   3.797  0.00  0.00    +0.204 C 
ATOM      7  N   UNL     1       1.395  -3.977   2.506  0.00  0.00    -0.369 N 
ATOM      8  C   UNL     1       1.369  -2.710   2.131  0.00  0.00    +0.048 A 
ATOM      9  C   UNL     1       0.827  -2.087   0.984  0.00  0.00    +0.071 A 
ATOM     10  H   UNL     1       1.019  -4.720   2.008  0.00  0.00    +0.161 HD
ENDROOT
BRANCH   6  11
ATOM     11  C   UNL     1       1.154  -4.649   4.838  0.00  0.00    +0.240 C 
ATOM     12  O   UNL     1      -0.043  -4.663   4.640  0.00  0.00    -0.273 OA
ATOM     13  N   UNL     1       1.652  -5.141   5.990  0.00  0.00    -0.313 N 
ATOM     14  H   UNL     1       2.608  -5.130   6.148  0.00  0.00    +0.149 HD
BRANCH  13  15
ATOM     15  C   UNL     1       0.748  -5.693   7.002  0.00  0.00    +0.109 C 
BRANCH  15  16
ATOM     16  C   UNL     1       1.562  -6.180   8.202  0.00  0.00    +0.054 C 
BRANCH  16  17
ATOM     17  C   UNL     1       0.632  -6.747   9.243  0.00  0.00    -0.046 A 
ATOM     18  C   UNL     1       0.106  -5.924  10.222  0.00  0.00    +0.005 A 
ATOM     19  C   UNL     1      -0.747  -6.444  11.177  0.00  0.00    +0.020 A 
ATOM     20  C   UNL     1      -1.073  -7.789  11.154  0.00  0.00    +0.041 A 
ATOM     21  C   UNL     1      -0.546  -8.612  10.175  0.00  0.00    +0.020 A 
ATOM     22  C   UNL     1       0.302  -8.089   9.217  0.00  0.00    +0.005 A 
ATOM     23 CL   UNL     1      -2.144  -8.443  12.354  0.00  0.00    -0.084 Cl
ENDBRANCH  16  17
ENDBRANCH  15  16
ENDBRANCH  13  15
ENDBRANCH   6  11
BRANCH   1  25
ATOM     24  C   UNL     1       0.560   1.264  -0.394  0.00  0.00    +0.277 C 
ATOM     25  O   UNL     1       0.416  -0.153  -0.279  0.00  0.00    -0.495 OA
ENDBRANCH   1  25
BRANCH   5  26
ATOM     26  S   UNL     1       3.297  -2.191   5.536  0.00  0.00    -0.091 S 
BRANCH  26  27
ATOM     27  C   UNL     1       4.911  -2.870   5.335  0.00  0.00    +0.013 A 
ATOM     28  C   UNL     1       5.259  -3.496   4.144  0.00  0.00    +0.015 A 
ATOM     29  C   UNL     1       6.524  -4.027   3.990  0.00  0.00    +0.001 A 
ATOM     30  C   UNL     1       7.444  -3.936   5.018  0.00  0.00    +0.000 A 
ATOM     31  C   UNL     1       7.101  -3.313   6.205  0.00  0.00    +0.001 A 
ATOM     32  C   UNL     1       5.840  -2.775   6.364  0.00  0.00    +0.015 A 
ENDBRANCH  26  27
ENDBRANCH   5  26
TORSDOF 7
