REMARK  Name = ZINC15412222
REMARK  8 active torsions:
REMARK  status: ('A' for Active; 'I' for Inactive)
REMARK    1  A    between atoms: C_1  and  N_44
REMARK    2  A    between atoms: C_2  and  C_3
REMARK    3  A    between atoms: C_2  and  N_44
REMARK    4  A    between atoms: C_10  and  C_11
REMARK    5  A    between atoms: C_10  and  N_44
REMARK    6  A    between atoms: N_13  and  C_14
REMARK    7  A    between atoms: C_14  and  C_15
REMARK    8  A    between atoms: N_17  and  C_18
REMARK                            x       y       z     vdW  Elec       q    Type
REMARK                         _______ _______ _______ _____ _____    ______ ____
ROOT
ATOM      1  C   UNL     1       3.640   1.358  -0.015  0.00  0.00    +0.197 C 
ATOM      2  O   UNL     1       3.783   2.562  -0.012  0.00  0.00    -0.278 OA
ATOM      3  N   UNL     1       2.401   0.826  -0.045  0.00  0.00    -0.308 N 
ATOM      4  H   UNL     1       2.287  -0.137  -0.048  0.00  0.00    +0.149 HD
ENDROOT
BRANCH   1   5
ATOM      5  C   UNL     1       4.846   0.455   0.014  0.00  0.00    +0.019 C 
BRANCH   5   7
ATOM      6  C   UNL     1       6.166   2.026   1.299  0.00  0.00    -0.095 C 
ATOM      7  N   UNL     1       6.066   1.290   0.021  0.00  0.00    +0.386 N 
ATOM      8  H   UNL     1       6.013   1.966  -0.750  0.00  0.00    -0.081 HD
BRANCH   7   9
ATOM      9  C   UNL     1       7.261   0.440  -0.167  0.00  0.00    -0.042 C 
BRANCH   9  10
ATOM     10  C   UNL     1       7.359   0.059  -1.621  0.00  0.00    -0.050 A 
ATOM     11  C   UNL     1       7.043  -1.226  -2.022  0.00  0.00    +0.003 A 
ATOM     12  C   UNL     1       7.129  -1.574  -3.357  0.00  0.00    +0.000 A 
ATOM     13  C   UNL     1       7.539  -0.640  -4.291  0.00  0.00    +0.001 A 
ATOM     14  C   UNL     1       7.859   0.643  -3.890  0.00  0.00    +0.015 A 
ATOM     15  C   UNL     1       7.769   0.994  -2.555  0.00  0.00    +0.019 A 
ATOM     16 BR   UNL     1       8.208   2.749  -2.006  0.00  0.00    -0.050 Br
ENDBRANCH   9  10
ENDBRANCH   7   9
ENDBRANCH   5   7
ENDBRANCH   1   5
BRANCH   3  17
ATOM     17  C   UNL     1       1.228   1.704  -0.073  0.00  0.00    +0.200 C 
BRANCH  17  18
ATOM     18  C   UNL     1      -0.024   0.867  -0.103  0.00  0.00    +0.234 C 
ATOM     19  O   UNL     1       0.055  -0.343  -0.102  0.00  0.00    -0.274 OA
ATOM     20  N   UNL     1      -1.232   1.463  -0.138  0.00  0.00    -0.283 N 
ATOM     21  H   UNL     1      -1.299   2.429  -0.074  0.00  0.00    +0.155 HD
BRANCH  20  22
ATOM     22  C   UNL     1      -2.392   0.689  -0.266  0.00  0.00    +0.047 A 
ATOM     23  C   UNL     1      -2.461  -0.564   0.329  0.00  0.00    +0.024 A 
ATOM     24  C   UNL     1      -3.608  -1.323   0.205  0.00  0.00    +0.002 A 
ATOM     25  C   UNL     1      -4.683  -0.842  -0.519  0.00  0.00    +0.001 A 
ATOM     26  C   UNL     1      -4.616   0.403  -1.117  0.00  0.00    +0.017 A 
ATOM     27  C   UNL     1      -3.473   1.171  -0.993  0.00  0.00    +0.039 A 
ATOM     28 BR   UNL     1      -3.382   2.873  -1.811  0.00  0.00    -0.048 Br
ENDBRANCH  20  22
ENDBRANCH  17  18
ENDBRANCH   3  17
TORSDOF 7
