REMARK  Name = ZINC65527906
REMARK  8 active torsions:
REMARK  status: ('A' for Active; 'I' for Inactive)
REMARK    1  A    between atoms: C_1  and  C_2
REMARK    2  A    between atoms: C_2  and  N_3
REMARK    3  A    between atoms: C_10  and  C_22
REMARK    4  A    between atoms: C_10  and  C_24
REMARK    5  A    between atoms: C_12  and  C_14
REMARK    6  A    between atoms: C_19  and  O_20
REMARK    7  A    between atoms: O_20  and  C_21
REMARK    8  A    between atoms: C_22  and  O_23
REMARK                            x       y       z     vdW  Elec       q    Type
REMARK                         _______ _______ _______ _____ _____    ______ ____
ROOT
ATOM      1  N   UNL     1       0.840  -0.496  -0.783  0.00  0.00    +0.380 N 
ATOM      2  C   UNL     1       2.298  -0.216  -0.780  0.00  0.00    -0.073 C 
ATOM      3  C   UNL     1       2.843  -1.129  -1.903  0.00  0.00    -0.003 C 
ATOM      4  C   UNL     1       1.968  -2.409  -1.768  0.00  0.00    +0.002 C 
ATOM      5  C   UNL     1       0.710  -1.951  -1.009  0.00  0.00    -0.073 C 
ATOM      6  C   UNL     1       2.786  -3.361  -0.879  0.00  0.00    +0.070 C 
ATOM      7  N   UNL     1       3.997  -2.627  -0.452  0.00  0.00    -0.298 NA
ATOM      8  C   UNL     1       4.262  -1.602  -1.511  0.00  0.00    +0.091 C 
ATOM      9  H   UNL     1       3.853  -2.180   0.441  0.00  0.00    +0.123 HD
ATOM     10  H   UNL     1       0.389   0.014  -1.528  0.00  0.00    -0.082 HD
ENDROOT
BRANCH   8  11
ATOM     11  C   UNL     1       5.079  -0.450  -0.988  0.00  0.00    +0.031 A 
ATOM     12  C   UNL     1       5.240  -0.265   0.374  0.00  0.00    +0.012 A 
ATOM     13  C   UNL     1       6.001   0.810   0.812  0.00  0.00    +0.020 A 
ATOM     14  C   UNL     1       6.571   1.657  -0.118  0.00  0.00    +0.114 A 
ATOM     15  N   UNL     1       6.399   1.456  -1.411  0.00  0.00    -0.221 NA
ATOM     16  C   UNL     1       5.686   0.439  -1.866  0.00  0.00    +0.219 A 
BRANCH  16  17
ATOM     17  O   UNL     1       5.541   0.266  -3.204  0.00  0.00    -0.479 OA
ATOM     18  C   UNL     1       6.189   1.214  -4.055  0.00  0.00    +0.279 C 
ENDBRANCH  16  17
ENDBRANCH   8  11
BRANCH   6  19
ATOM     19  C   UNL     1       3.179  -4.586  -1.664  0.00  0.00    -0.025 A 
ATOM     20  C   UNL     1       2.369  -5.039  -2.688  0.00  0.00    +0.005 A 
ATOM     21  C   UNL     1       2.729  -6.163  -3.408  0.00  0.00    +0.000 A 
ATOM     22  C   UNL     1       3.900  -6.833  -3.104  0.00  0.00    +0.000 A 
ATOM     23  C   UNL     1       4.710  -6.379  -2.081  0.00  0.00    +0.000 A 
ATOM     24  C   UNL     1       4.352  -5.253  -1.363  0.00  0.00    +0.005 A 
ENDBRANCH   6  19
BRANCH   1  26
ATOM     25  C   UNL     1       0.282   1.392   0.674  0.00  0.00    -0.017 C 
ATOM     26  C   UNL     1       0.251  -0.129   0.511  0.00  0.00    -0.082 C 
ENDBRANCH   1  26
BRANCH   6  27
ATOM     27  C   UNL     1       1.964  -3.765   0.347  0.00  0.00    +0.183 C 
BRANCH  27  28
ATOM     28  O   UNL     1       0.754  -4.395  -0.079  0.00  0.00    -0.393 OA
ATOM     29  H   UNL     1       0.181  -4.678   0.647  0.00  0.00    +0.209 HD
ENDBRANCH  27  28
ENDBRANCH   6  27
TORSDOF 6
