REMARK  Name = ZINC39314635
REMARK  3 active torsions:
REMARK  status: ('A' for Active; 'I' for Inactive)
REMARK    1  A    between atoms: C_10  and  C_21
REMARK    2  A    between atoms: C_12  and  C_19
REMARK    3  A    between atoms: C_13  and  N_18
REMARK                            x       y       z     vdW  Elec       q    Type
REMARK                         _______ _______ _______ _____ _____    ______ ____
ROOT
ATOM      1  C   UNL     1      -0.016   1.357   0.009  0.00  0.00    +0.001 A 
ATOM      2  C   UNL     1       1.162   2.096   0.002  0.00  0.00    +0.002 A 
ATOM      3  C   UNL     1       2.386   1.497  -0.010  0.00  0.00    +0.024 A 
ATOM      4  C   UNL     1       2.482   0.095  -0.017  0.00  0.00    +0.044 A 
ATOM      5  N   UNL     1       3.684  -0.494  -0.017  0.00  0.00    -0.284 N 
ATOM      6  C   UNL     1       3.863  -1.799  -0.043  0.00  0.00    +0.229 C 
ATOM      7  O   UNL     1       4.990  -2.260  -0.037  0.00  0.00    -0.275 OA
ATOM      8  C   UNL     1       2.667  -2.725  -0.080  0.00  0.00    +0.154 C 
ATOM      9  C   UNL     1       2.737  -3.607   1.171  0.00  0.00    +0.084 C 
ATOM     10  C   UNL     1       1.446  -4.360   1.334  0.00  0.00    +0.095 C 
ATOM     11  C   UNL     1       0.287  -3.959   0.766  0.00  0.00    +0.198 C 
ATOM     12  O   UNL     1       0.216  -2.853  -0.011  0.00  0.00    -0.444 OA
ATOM     13  C   UNL     1       1.297  -2.069  -0.059  0.00  0.00    +0.129 C 
ATOM     14  C   UNL     1       1.237  -0.684  -0.016  0.00  0.00    +0.035 A 
ATOM     15  C   UNL     1       0.002  -0.004   0.002  0.00  0.00    +0.013 A 
ATOM     16  H   UNL     1       4.470   0.074   0.003  0.00  0.00    +0.155 HD
ENDROOT
BRANCH   9  17
ATOM     17  C   UNL     1       2.969  -2.742   2.382  0.00  0.00    -0.035 A 
ATOM     18  C   UNL     1       2.059  -1.757   2.735  0.00  0.00    +0.024 A 
ATOM     19  C   UNL     1       2.304  -0.983   3.853  0.00  0.00    +0.111 A 
ATOM     20  N   UNL     1       3.388  -1.172   4.580  0.00  0.00    -0.263 NA
ATOM     21  C   UNL     1       4.275  -2.099   4.275  0.00  0.00    +0.111 A 
ATOM     22  C   UNL     1       4.093  -2.916   3.174  0.00  0.00    +0.024 A 
ENDBRANCH   9  17
BRANCH  11  23
ATOM     23  N   UNL     1      -0.851  -4.696   0.982  0.00  0.00    -0.328 N 
ATOM     24  H   UNL     1      -0.816  -5.492   1.536  0.00  0.00    +0.145 HD
ATOM     25  H   UNL     1      -1.690  -4.421   0.581  0.00  0.00    +0.145 HD
ENDBRANCH  11  23
BRANCH  10  26
ATOM     26  C   UNL     1       1.444  -5.553   2.126  0.00  0.00    +0.100 C 
ATOM     27  N   UNL     1       1.442  -6.500   2.754  0.00  0.00    -0.191 NA
ENDBRANCH  10  26
TORSDOF 3
