REMARK  Name = ZINC08709778
REMARK  8 active torsions:
REMARK  status: ('A' for Active; 'I' for Inactive)
REMARK    1  A    between atoms: C_1  and  C_2
REMARK    2  A    between atoms: C_2  and  C_3
REMARK    3  A    between atoms: C_5  and  C_18
REMARK    4  A    between atoms: C_6  and  C_11
REMARK    5  A    between atoms: C_11  and  N_44
REMARK    6  A    between atoms: C_18  and  O_20
REMARK    7  A    between atoms: O_20  and  C_21
REMARK    8  A    between atoms: C_21  and  C_22
REMARK                            x       y       z     vdW  Elec       q    Type
REMARK                         _______ _______ _______ _____ _____    ______ ____
ROOT
ATOM      1  C   UNL     1       0.068  -0.355  -0.216  0.00  0.00    +0.113 C 
ATOM      2  C   UNL     1       1.513  -0.811  -0.220  0.00  0.00    +0.072 C 
ATOM      3  C   UNL     1       2.468   0.124  -0.027  0.00  0.00    +0.007 C 
ATOM      4  N   UNL     1       2.141   1.436   0.166  0.00  0.00    -0.274 N 
ATOM      5  C   UNL     1       0.883   1.894   0.178  0.00  0.00    +0.304 C 
ATOM      6  O   UNL     1       0.690   3.080   0.357  0.00  0.00    -0.253 OA
ATOM      7  N   UNL     1      -0.178   1.081  -0.000  0.00  0.00    -0.292 N 
ATOM      8  H   UNL     1       2.861   2.072   0.301  0.00  0.00    +0.156 HD
ATOM      9  H   UNL     1      -1.081   1.435   0.009  0.00  0.00    +0.151 HD
ENDROOT
BRANCH   1  11
ATOM     10  C   UNL     1      -2.177  -0.929   0.719  0.00  0.00    +0.006 C 
ATOM     11  C   UNL     1      -0.668  -1.129   0.879  0.00  0.00    +0.024 C 
ENDBRANCH   1  11
BRANCH   2  12
ATOM     12  C   UNL     1       1.850  -2.170  -0.419  0.00  0.00    +0.338 C 
ATOM     13  O   UNL     1       3.016  -2.498  -0.533  0.00  0.00    -0.245 OA
BRANCH  12  14
ATOM     14  O   UNL     1       0.878  -3.104  -0.482  0.00  0.00    -0.462 OA
BRANCH  14  15
ATOM     15  C   UNL     1       1.290  -4.457  -0.685  0.00  0.00    +0.229 C 
ATOM     16  C   UNL     1       0.059  -5.365  -0.728  0.00  0.00    +0.048 C 
ENDBRANCH  14  15
ENDBRANCH  12  14
ENDBRANCH   2  12
BRANCH   3  17
ATOM     17  C   UNL     1       3.917  -0.287  -0.023  0.00  0.00    -0.026 C 
BRANCH  17  25
ATOM     18  C   UNL     1       5.660  -1.108  -1.494  0.00  0.00    -0.059 C 
ATOM     19  C   UNL     1       5.968  -1.369  -2.970  0.00  0.00    +0.085 C 
ATOM     20  N   UNL     1       5.914  -0.118  -3.721  0.00  0.00    -0.319 N 
ATOM     21  C   UNL     1       5.304   0.979  -3.262  0.00  0.00    +0.196 C 
ATOM     22  O   UNL     1       5.280   1.968  -3.965  0.00  0.00    -0.278 OA
ATOM     23  C   UNL     1       4.647   1.040  -1.913  0.00  0.00    +0.019 C 
ATOM     24  H   UNL     1       6.340  -0.082  -4.592  0.00  0.00    +0.149 HD
ATOM     25  N   UNL     1       4.407  -0.329  -1.420  0.00  0.00    +0.390 N 
ATOM     26  H   UNL     1       3.697  -0.779  -2.010  0.00  0.00    -0.081 HD
ENDBRANCH  17  25
ENDBRANCH   3  17
TORSDOF 6
