REMARK  Name = ZINC08881247
REMARK  10 active torsions:
REMARK  status: ('A' for Active; 'I' for Inactive)
REMARK    1  A    between atoms: C_1  and  C_2
REMARK    2  A    between atoms: C_2  and  C_3
REMARK    3  A    between atoms: C_3  and  N_4
REMARK    4  A    between atoms: C_10  and  N_15
REMARK    5  A    between atoms: C_11  and  C_12
REMARK    6  A    between atoms: C_16  and  C_18
REMARK    7  A    between atoms: C_21  and  S_24
REMARK    8  A    between atoms: S_24  and  N_27
REMARK    9  A    between atoms: N_27  and  C_28
REMARK   10  A    between atoms: N_27  and  C_29
REMARK                            x       y       z     vdW  Elec       q    Type
REMARK                         _______ _______ _______ _____ _____    ______ ____
ROOT
ATOM      1  N   UNL     1       1.523  -7.551  -1.249  0.00  0.00    -0.275 N 
ATOM      2  C   UNL     1       2.064  -7.880  -2.439  0.00  0.00    +0.249 C 
ATOM      3  O   UNL     1       2.133  -7.051  -3.325  0.00  0.00    -0.270 OA
ATOM      4  H   UNL     1       1.468  -8.213  -0.542  0.00  0.00    +0.156 HD
ENDROOT
BRANCH   1  11
ATOM      5  N   UNL     1      -1.006  -1.825  -0.420  0.00  0.00    +0.383 N 
ATOM      6  C   UNL     1      -0.500  -2.115   0.928  0.00  0.00    -0.074 C 
ATOM      7  C   UNL     1      -0.614  -3.614   1.225  0.00  0.00    +0.018 C 
ATOM      8  C   UNL     1       0.042  -4.369   0.078  0.00  0.00    -0.027 A 
ATOM      9  C   UNL     1       0.280  -3.745  -1.098  0.00  0.00    -0.021 A 
ATOM     10  S   UNL     1       1.039  -4.978  -2.111  0.00  0.00    -0.079 S 
ATOM     11  C   UNL     1       1.045  -6.269  -1.036  0.00  0.00    +0.085 A 
ATOM     12  C   UNL     1       0.462  -5.756   0.113  0.00  0.00    +0.068 A 
ATOM     13  C   UNL     1      -0.049  -2.323  -1.426  0.00  0.00    -0.035 C 
ATOM     14  H   UNL     1      -1.897  -2.281  -0.549  0.00  0.00    -0.081 HD
BRANCH  12  15
ATOM     15  C   UNL     1       0.277  -6.581   1.311  0.00  0.00    +0.244 C 
ATOM     16  O   UNL     1      -0.748  -7.219   1.459  0.00  0.00    -0.270 OA
ATOM     17  N   UNL     1       1.244  -6.632   2.249  0.00  0.00    -0.325 N 
ATOM     18  H   UNL     1       2.062  -6.123   2.131  0.00  0.00    +0.145 HD
ATOM     19  H   UNL     1       1.122  -7.178   3.041  0.00  0.00    +0.145 HD
ENDBRANCH  12  15
BRANCH   5  20
ATOM     20  C   UNL     1      -1.172  -0.374  -0.579  0.00  0.00    -0.079 C 
BRANCH  20  22
ATOM     21  C   UNL     1      -1.992   1.431  -2.099  0.00  0.00    +0.002 C 
ATOM     22  C   UNL     1      -1.819  -0.081  -1.934  0.00  0.00    -0.022 C 
ENDBRANCH  20  22
ENDBRANCH   5  20
ENDBRANCH   1  11
BRANCH   2  23
ATOM     23  C   UNL     1       2.574  -9.249  -2.666  0.00  0.00    +0.037 A 
ATOM     24  C   UNL     1       2.492 -10.205  -1.652  0.00  0.00    +0.015 A 
ATOM     25  C   UNL     1       2.969 -11.480  -1.870  0.00  0.00    +0.029 A 
ATOM     26  C   UNL     1       3.529 -11.813  -3.091  0.00  0.00    +0.109 A 
ATOM     27  C   UNL     1       3.615 -10.870  -4.100  0.00  0.00    +0.029 A 
ATOM     28  C   UNL     1       3.135  -9.593  -3.897  0.00  0.00    +0.015 A 
BRANCH  26  29
ATOM     29  S   UNL     1       4.137 -13.445  -3.361  0.00  0.00    +0.074 S 
ATOM     30  O   UNL     1       5.107 -13.351  -4.395  0.00  0.00    -0.150 OA
ATOM     31  O   UNL     1       4.438 -13.984  -2.081  0.00  0.00    -0.150 OA
BRANCH  29  32
ATOM     32  N   UNL     1       2.883 -14.340  -3.969  0.00  0.00    -0.206 N 
ATOM     33  C   UNL     1       2.595 -14.316  -5.405  0.00  0.00    +0.157 C 
BRANCH  32  34
ATOM     34  C   UNL     1       2.101 -15.118  -3.112  0.00  0.00    +0.051 A 
ATOM     35  C   UNL     1       0.735 -14.883  -3.012  0.00  0.00    +0.025 A 
ATOM     36  C   UNL     1      -0.035 -15.655  -2.164  0.00  0.00    +0.002 A 
ATOM     37  C   UNL     1       0.551 -16.659  -1.416  0.00  0.00    +0.000 A 
ATOM     38  C   UNL     1       1.910 -16.895  -1.514  0.00  0.00    +0.002 A 
ATOM     39  C   UNL     1       2.686 -16.131  -2.364  0.00  0.00    +0.025 A 
ENDBRANCH  32  34
ENDBRANCH  29  32
ENDBRANCH  26  29
ENDBRANCH   2  23
TORSDOF 8
