REMARK  Name = ZINC04441221
REMARK  6 active torsions:
REMARK  status: ('A' for Active; 'I' for Inactive)
REMARK    1  A    between atoms: C_4  and  N_12
REMARK    2  A    between atoms: C_5  and  C_7
REMARK    3  A    between atoms: N_12  and  C_13
REMARK    4  A    between atoms: C_13  and  N_15
REMARK    5  A    between atoms: C_16  and  C_18
REMARK    6  A    between atoms: C_21  and  C_23
REMARK                            x       y       z     vdW  Elec       q    Type
REMARK                         _______ _______ _______ _____ _____    ______ ____
ROOT
ATOM      1  C   UNL     1       0.094   2.045  -0.508  0.00  0.00    +0.141 C 
ATOM      2  S   UNL     1       0.279   0.803  -1.672  0.00  0.00    -0.018 S 
ENDROOT
BRANCH   1   3
ATOM      3  N   UNL     1      -1.091   2.675  -0.377  0.00  0.00    -0.261 N 
ATOM      4  C   UNL     1      -2.129   2.328  -1.163  0.00  0.00    +0.285 C 
ATOM      5  O   UNL     1      -1.997   1.446  -1.991  0.00  0.00    -0.266 OA
ATOM      6  H   UNL     1      -1.195   3.379   0.282  0.00  0.00    +0.157 HD
BRANCH   4   7
ATOM      7  C   UNL     1      -3.415   3.013  -1.022  0.00  0.00    +0.190 A 
ATOM      8  C   UNL     1      -4.553   2.758  -1.757  0.00  0.00    +0.055 A 
ATOM      9  C   UNL     1      -5.537   3.636  -1.294  0.00  0.00    +0.050 A 
ATOM     10  C   UNL     1      -4.972   4.388  -0.303  0.00  0.00    +0.136 A 
ATOM     11  O   UNL     1      -3.695   3.999  -0.144  0.00  0.00    -0.450 OA
BRANCH  10  12
ATOM     12  C   UNL     1      -5.652   5.447   0.469  0.00  0.00    +0.017 A 
ATOM     13  C   UNL     1      -6.988   5.757   0.206  0.00  0.00    +0.013 A 
ATOM     14  C   UNL     1      -7.619   6.744   0.934  0.00  0.00    +0.021 A 
ATOM     15  C   UNL     1      -6.928   7.434   1.917  0.00  0.00    +0.041 A 
ATOM     16  C   UNL     1      -5.601   7.134   2.178  0.00  0.00    +0.021 A 
ATOM     17  C   UNL     1      -4.960   6.146   1.460  0.00  0.00    +0.013 A 
ATOM     18 CL   UNL     1      -7.727   8.679   2.824  0.00  0.00    -0.084 Cl
ENDBRANCH  10  12
ENDBRANCH   4   7
ENDBRANCH   1   3
BRANCH   1  19
ATOM     19  N   UNL     1       1.134   2.396   0.274  0.00  0.00    -0.296 N 
ATOM     20  H   UNL     1       1.053   3.151   0.878  0.00  0.00    +0.154 HD
BRANCH  19  24
ATOM     21  C   UNL     1       4.692   0.237   0.100  0.00  0.00    +0.000 A 
ATOM     22  C   UNL     1       3.482  -0.430   0.143  0.00  0.00    +0.002 A 
ATOM     23  C   UNL     1       2.300   0.282   0.201  0.00  0.00    +0.023 A 
ATOM     24  C   UNL     1       2.328   1.671   0.216  0.00  0.00    +0.036 A 
ATOM     25  C   UNL     1       3.545   2.338   0.167  0.00  0.00    -0.023 A 
ATOM     26  C   UNL     1       4.724   1.619   0.115  0.00  0.00    +0.006 A 
BRANCH  25  27
ATOM     27  C   UNL     1       3.580   3.845   0.178  0.00  0.00    +0.017 C 
ATOM     28  C   UNL     1       4.292   4.348  -1.081  0.00  0.00    -0.011 C 
ATOM     29  C   UNL     1       4.380   5.876  -1.035  0.00  0.00    -0.082 C 
ATOM     30  C   UNL     1       4.426   5.858   1.388  0.00  0.00    -0.082 C 
ATOM     31  C   UNL     1       4.341   4.330   1.415  0.00  0.00    -0.011 C 
ATOM     32  N   UNL     1       5.127   6.296   0.166  0.00  0.00    +0.379 N 
ATOM     33  H   UNL     1       5.210   7.319   0.172  0.00  0.00    -0.086 HD
ATOM     34  H   UNL     1       6.064   5.877   0.145  0.00  0.00    -0.086 HD
ENDBRANCH  25  27
ENDBRANCH  19  24
ENDBRANCH   1  19
TORSDOF 6
