REMARK  Name = ZINC09647177
REMARK  9 active torsions:
REMARK  status: ('A' for Active; 'I' for Inactive)
REMARK    1  A    between atoms: C_1  and  C_2
REMARK    2  A    between atoms: C_2  and  N_3
REMARK    3  A    between atoms: C_7  and  S_26
REMARK    4  A    between atoms: C_11  and  C_12
REMARK    5  A    between atoms: C_12  and  N_63
REMARK    6  A    between atoms: C_13  and  C_15
REMARK    7  A    between atoms: C_13  and  C_21
REMARK    8  A    between atoms: C_13  and  N_63
REMARK    9  A    between atoms: S_26  and  N_29
REMARK                            x       y       z     vdW  Elec       q    Type
REMARK                         _______ _______ _______ _____ _____    ______ ____
ROOT
ATOM      1  N   UNL     1      -2.103   1.072   1.277  0.00  0.00    -0.329 N 
ATOM      2  C   UNL     1      -3.210   1.698   0.740  0.00  0.00    +0.069 A 
ATOM      3  C   UNL     1      -3.413   2.897   0.070  0.00  0.00    +0.030 A 
ATOM      4  C   UNL     1      -4.681   3.239  -0.348  0.00  0.00    +0.030 A 
ATOM      5  C   UNL     1      -5.755   2.395  -0.103  0.00  0.00    +0.108 A 
ATOM      6  C   UNL     1      -5.573   1.207   0.548  0.00  0.00    +0.058 A 
ATOM      7  C   UNL     1      -4.297   0.841   0.985  0.00  0.00    +0.091 A 
ATOM      8  N   UNL     1      -3.809  -0.235   1.653  0.00  0.00    -0.234 NA
ATOM      9  C   UNL     1      -2.526  -0.100   1.823  0.00  0.00    +0.094 A 
ENDROOT
BRANCH   5  10
ATOM     10  S   UNL     1      -7.367   2.853  -0.646  0.00  0.00    +0.061 S 
ATOM     11  O   UNL     1      -8.288   2.155   0.181  0.00  0.00    -0.153 OA
ATOM     12  O   UNL     1      -7.369   4.269  -0.762  0.00  0.00    -0.153 OA
BRANCH  10  13
ATOM     13  N   UNL     1      -7.557   2.252  -2.177  0.00  0.00    -0.177 NA
ATOM     14  C   UNL     1      -7.182   3.057  -3.349  0.00  0.00    +0.109 C 
ATOM     15  C   UNL     1      -6.220   2.234  -4.218  0.00  0.00    +0.017 C 
ATOM     16  C   UNL     1      -6.870   0.891  -4.560  0.00  0.00    +0.003 C 
ATOM     17  C   UNL     1      -7.141   0.111  -3.272  0.00  0.00    +0.017 C 
ATOM     18  C   UNL     1      -8.110   0.908  -2.391  0.00  0.00    +0.109 C 
ENDBRANCH  10  13
ENDBRANCH   5  10
BRANCH   1  20
ATOM     19  C   UNL     1      -0.013   1.086   0.008  0.00  0.00    +0.027 C 
ATOM     20  C   UNL     1      -0.729   1.579   1.267  0.00  0.00    +0.120 C 
ENDBRANCH   1  20
BRANCH   9  21
ATOM     21  C   UNL     1      -1.638  -1.096   2.524  0.00  0.00    -0.006 C 
BRANCH  21  22
ATOM     22  N   UNL     1      -1.584  -0.767   3.961  0.00  0.00    +0.391 N 
ATOM     23  H   UNL     1      -2.532  -0.808   4.354  0.00  0.00    -0.084 HD
ATOM     24  H   UNL     1      -1.206   0.180   4.078  0.00  0.00    -0.084 HD
BRANCH  22  25
ATOM     25  C   UNL     1      -0.720  -1.728   4.674  0.00  0.00    -0.003 C 
BRANCH  25  26
ATOM     26  C   UNL     1      -1.135  -1.786   6.121  0.00  0.00    -0.057 A 
ATOM     27  C   UNL     1      -1.484  -0.626   6.787  0.00  0.00    +0.002 A 
ATOM     28  C   UNL     1      -1.868  -0.680   8.114  0.00  0.00    +0.000 A 
ATOM     29  C   UNL     1      -1.894  -1.893   8.777  0.00  0.00    +0.000 A 
ATOM     30  C   UNL     1      -1.540  -3.052   8.113  0.00  0.00    +0.000 A 
ATOM     31  C   UNL     1      -1.160  -2.998   6.785  0.00  0.00    +0.002 A 
ENDBRANCH  25  26
BRANCH  25  32
ATOM     32  C   UNL     1       0.715  -1.279   4.580  0.00  0.00    -0.020 A 
ATOM     33  C   UNL     1       1.833  -2.025   4.399  0.00  0.00    +0.010 A 
ATOM     34  C   UNL     1       3.059  -1.391   4.340  0.00  0.00    +0.008 A 
ATOM     35  C   UNL     1       3.110  -0.043   4.474  0.00  0.00    +0.045 A 
ATOM     36  S   UNL     1       1.386   0.372   4.685  0.00  0.00    -0.103 S 
ENDBRANCH  25  32
ENDBRANCH  22  25
ENDBRANCH  21  22
ENDBRANCH   9  21
TORSDOF 8
