REMARK  Name = ZINC02583998
REMARK  6 active torsions:
REMARK  status: ('A' for Active; 'I' for Inactive)
REMARK    1  A    between atoms: C_1  and  C_2
REMARK    2  A    between atoms: C_2  and  N_3
REMARK    3  A    between atoms: C_11  and  N_12
REMARK    4  A    between atoms: N_12  and  C_13
REMARK    5  A    between atoms: N_20  and  C_21
REMARK    6  A    between atoms: C_27  and  N_29
REMARK                            x       y       z     vdW  Elec       q    Type
REMARK                         _______ _______ _______ _____ _____    ______ ____
ROOT
ATOM      1  N   UNL     1      -1.241  -0.893  -0.065  0.00  0.00    -0.315 N 
ATOM      2  C   UNL     1      -1.900  -1.429   1.004  0.00  0.00    +0.201 A 
ATOM      3  N   UNL     1      -3.125  -1.715   0.672  0.00  0.00    -0.231 NA
ATOM      4  C   UNL     1      -3.330  -1.383  -0.627  0.00  0.00    +0.148 A 
ATOM      5  C   UNL     1      -2.126  -0.847  -1.112  0.00  0.00    +0.167 A 
ATOM      6  N   UNL     1      -2.063  -0.434  -2.374  0.00  0.00    -0.195 NA
ATOM      7  C   UNL     1      -3.120  -0.522  -3.165  0.00  0.00    +0.219 A 
ATOM      8  N   UNL     1      -4.277  -1.018  -2.747  0.00  0.00    -0.197 NA
ATOM      9  C   UNL     1      -4.426  -1.462  -1.504  0.00  0.00    +0.156 A 
ATOM     10  N   UNL     1      -3.015  -0.081  -4.474  0.00  0.00    -0.312 N 
ATOM     11  H   UNL     1      -2.176   0.284  -4.796  0.00  0.00    +0.149 HD
ENDROOT
BRANCH  10  12
ATOM     12  C   UNL     1      -4.170  -0.168  -5.371  0.00  0.00    +0.059 C 
ATOM     13  C   UNL     1      -4.224  -1.562  -6.000  0.00  0.00    +0.020 C 
ATOM     14  C   UNL     1      -2.941  -1.813  -6.794  0.00  0.00    +0.002 C 
ATOM     15  C   UNL     1      -2.810  -0.761  -7.897  0.00  0.00    -0.001 C 
ATOM     16  C   UNL     1      -2.755   0.633  -7.269  0.00  0.00    -0.014 C 
ATOM     17  C   UNL     1      -4.038   0.884  -6.474  0.00  0.00    -0.055 C 
BRANCH  17  18
ATOM     18  N   UNL     1      -3.986   2.223  -5.871  0.00  0.00    +0.381 N 
ATOM     19  H   UNL     1      -3.190   2.282  -5.253  0.00  0.00    -0.090 HD
ATOM     20  H   UNL     1      -3.899   2.917  -6.598  0.00  0.00    -0.090 HD
ATOM     21  H   UNL     1      -4.832   2.389  -5.347  0.00  0.00    -0.090 HD
ENDBRANCH  17  18
ENDBRANCH  10  12
BRANCH   1  23
ATOM     22  C   UNL     1       0.210   1.058   0.195  0.00  0.00    +0.027 C 
ATOM     23  C   UNL     1       0.153  -0.445  -0.087  0.00  0.00    +0.121 C 
ENDBRANCH   1  23
BRANCH   9  24
ATOM     24  N   UNL     1      -5.638  -1.976  -1.076  0.00  0.00    -0.298 N 
ATOM     25  H   UNL     1      -5.764  -2.209  -0.143  0.00  0.00    +0.154 HD
BRANCH  24  26
ATOM     26  C   UNL     1      -6.681  -2.159  -1.989  0.00  0.00    +0.034 A 
ATOM     27  C   UNL     1      -6.405  -2.571  -3.287  0.00  0.00    +0.023 A 
ATOM     28  C   UNL     1      -7.436  -2.752  -4.187  0.00  0.00    +0.003 A 
ATOM     29  C   UNL     1      -8.744  -2.523  -3.798  0.00  0.00    +0.020 A 
ATOM     30  C   UNL     1      -9.023  -2.113  -2.506  0.00  0.00    +0.043 A 
ATOM     31  C   UNL     1      -7.994  -1.935  -1.599  0.00  0.00    +0.043 A 
ATOM     32 CL   UNL     1     -10.665  -1.826  -2.023  0.00  0.00    -0.083 Cl
ENDBRANCH  24  26
ENDBRANCH   9  24
TORSDOF 5
