REMARK  Name = ZINC45299985
REMARK  2 active torsions:
REMARK  status: ('A' for Active; 'I' for Inactive)
REMARK    1  A    between atoms: C_9  and  N_12
REMARK    2  A    between atoms: N_25  and  C_26
REMARK                            x       y       z     vdW  Elec       q    Type
REMARK                         _______ _______ _______ _____ _____    ______ ____
ROOT
ATOM      1  N   UNL     1       5.066  -2.495  -0.027  0.00  0.00    -0.310 N 
ATOM      2  C   UNL     1       5.962  -2.641   1.013  0.00  0.00    +0.221 A 
ATOM      3  N   UNL     1       5.773  -1.979   2.150  0.00  0.00    -0.181 NA
ATOM      4  C   UNL     1       6.636  -2.120   3.152  0.00  0.00    +0.225 A 
ATOM      5  N   UNL     1       7.687  -2.922   3.016  0.00  0.00    -0.181 NA
ATOM      6  C   UNL     1       7.876  -3.584   1.879  0.00  0.00    +0.224 A 
ATOM      7  N   UNL     1       7.010  -3.447   0.879  0.00  0.00    -0.181 NA
ATOM      8  N   UNL     1       8.967  -4.417   1.738  0.00  0.00    -0.303 N 
ATOM      9  C   UNL     1       9.199  -5.155   0.487  0.00  0.00    +0.089 C 
ATOM     10  C   UNL     1      10.646  -4.914   0.042  0.00  0.00    -0.063 C 
ATOM     11  N   UNL     1      11.559  -5.272   1.135  0.00  0.00    +0.381 N 
ATOM     12  C   UNL     1      11.343  -4.378   2.280  0.00  0.00    -0.063 C 
ATOM     13  C   UNL     1       9.934  -4.588   2.833  0.00  0.00    +0.089 C 
ATOM     14  N   UNL     1       6.440  -1.431   4.334  0.00  0.00    -0.283 N 
ATOM     15  H   UNL     1       5.202  -2.982  -0.856  0.00  0.00    +0.149 HD
ATOM     16  H   UNL     1      11.386  -6.225   1.417  0.00  0.00    -0.086 HD
ATOM     17  H   UNL     1       7.111  -1.468   5.034  0.00  0.00    +0.155 HD
ATOM     18  H   UNL     1      12.512  -5.185   0.817  0.00  0.00    -0.086 HD
ENDROOT
BRANCH   1  27
ATOM     19  C   UNL     1       0.936   2.443  -0.458  0.00  0.00    +0.000 A 
ATOM     20  C   UNL     1       2.219   2.947  -0.338  0.00  0.00    +0.000 A 
ATOM     21  C   UNL     1       3.291   2.081  -0.270  0.00  0.00    +0.004 A 
ATOM     22  C   UNL     1       3.093   0.707  -0.321  0.00  0.00    -0.042 A 
ATOM     23  C   UNL     1       1.816   0.206  -0.435  0.00  0.00    -0.044 A 
ATOM     24  C   UNL     1       0.738   1.079  -0.507  0.00  0.00    +0.004 A 
ATOM     25  C   UNL     1       1.526  -1.271  -0.480  0.00  0.00    +0.037 C 
ATOM     26  C   UNL     1       2.790  -2.057  -0.824  0.00  0.00    +0.027 C 
ATOM     27  C   UNL     1       3.911  -1.607   0.120  0.00  0.00    +0.078 C 
ATOM     28  C   UNL     1       4.309  -0.179  -0.250  0.00  0.00    +0.057 C 
ENDBRANCH   1  27
BRANCH  14  29
ATOM     29  C   UNL     1       5.278  -0.684   4.521  0.00  0.00    +0.036 A 
ATOM     30  C   UNL     1       4.060  -1.112   3.995  0.00  0.00    +0.041 A 
ATOM     31  C   UNL     1       2.933  -0.344   4.202  0.00  0.00    +0.084 A 
ATOM     32  N   UNL     1       2.999   0.782   4.888  0.00  0.00    -0.367 N 
ATOM     33  C   UNL     1       4.133   1.221   5.401  0.00  0.00    +0.084 A 
ATOM     34  C   UNL     1       5.303   0.508   5.244  0.00  0.00    +0.041 A 
ATOM     35  H   UNL     1       2.191   1.303   5.017  0.00  0.00    +0.165 HD
ENDBRANCH  14  29
TORSDOF 2
