REMARK  Name = ZINC13644386
REMARK  6 active torsions:
REMARK  status: ('A' for Active; 'I' for Inactive)
REMARK    1  A    between atoms: C_1  and  C_2
REMARK    2  A    between atoms: C_4  and  N_7
REMARK    3  A    between atoms: C_10  and  C_13
REMARK    4  A    between atoms: C_10  and  C_27
REMARK    5  A    between atoms: C_13  and  O_14
REMARK    6  A    between atoms: O_14  and  C_15
REMARK                            x       y       z     vdW  Elec       q    Type
REMARK                         _______ _______ _______ _____ _____    ______ ____
ROOT
ATOM      1  C   UNL     1       0.749  -4.212   3.844  0.00  0.00    +0.247 C 
ENDROOT
BRANCH   1   5
ATOM      2  N   UNL     1       2.729  -7.123   3.830  0.00  0.00    -0.330 N 
ATOM      3  C   UNL     1       1.270  -7.114   3.998  0.00  0.00    +0.106 C 
ATOM      4  C   UNL     1       0.904  -6.286   5.232  0.00  0.00    +0.040 C 
ATOM      5  C   UNL     1       1.425  -4.857   5.055  0.00  0.00    +0.109 C 
ATOM      6  C   UNL     1       2.940  -4.899   4.833  0.00  0.00    +0.040 C 
ATOM      7  C   UNL     1       3.248  -5.767   3.611  0.00  0.00    +0.106 C 
BRANCH   2  11
ATOM      8  C   UNL     1       6.229  -9.179   1.051  0.00  0.00    +0.063 C 
ATOM      9  C   UNL     1       4.781  -8.992   1.425  0.00  0.00    +0.015 A 
ATOM     10  C   UNL     1       4.449  -8.135   2.454  0.00  0.00    +0.044 A 
ATOM     11  C   UNL     1       3.106  -7.974   2.795  0.00  0.00    +0.033 A 
ATOM     12  C   UNL     1       2.150  -8.684   2.068  0.00  0.00    +0.040 A 
ATOM     13  C   UNL     1       2.565  -9.517   1.050  0.00  0.00    +0.084 A 
ATOM     14  N   UNL     1       3.869  -9.696   0.701  0.00  0.00    -0.364 N 
ATOM     15  H   UNL     1       4.147 -10.324  -0.062  0.00  0.00    +0.165 HD
ENDBRANCH   2  11
BRANCH   5  16
ATOM     16  C   UNL     1       1.118  -4.052   6.292  0.00  0.00    +0.365 C 
ATOM     17  O   UNL     1       0.539  -4.567   7.219  0.00  0.00    -0.246 OA
ATOM     18  O   UNL     1       1.488  -2.764   6.363  0.00  0.00    -0.246 OA
ENDBRANCH   5  16
ENDBRANCH   1   5
BRANCH   1  19
ATOM     19  O   UNL     1       1.236  -2.879   3.680  0.00  0.00    -0.491 OA
BRANCH  19  20
ATOM     20  C   UNL     1       0.733  -2.161   2.642  0.00  0.00    +0.121 A 
ATOM     21  C   UNL     1      -0.212  -2.725   1.796  0.00  0.00    +0.046 A 
ATOM     22  C   UNL     1      -0.713  -1.991   0.743  0.00  0.00    +0.007 A 
ATOM     23  C   UNL     1      -0.283  -0.688   0.519  0.00  0.00    -0.041 A 
ATOM     24  C   UNL     1       0.647  -0.124   1.364  0.00  0.00    -0.023 A 
ATOM     25  C   UNL     1       1.158  -0.862   2.421  0.00  0.00    +0.051 A 
ATOM     26  C   UNL     1       1.135   1.294   1.196  0.00  0.00    +0.143 C 
ATOM     27  N   UNL     1       0.692   1.818  -0.100  0.00  0.00    -0.301 N 
ATOM     28  C   UNL     1      -0.703   1.557  -0.494  0.00  0.00    +0.112 C 
ATOM     29  C   UNL     1      -0.869   0.047  -0.658  0.00  0.00    +0.054 C 
ATOM     30  C   UNL     1       1.544   2.526  -0.914  0.00  0.00    +0.151 C 
ATOM     31  N   UNL     1       2.841   2.754  -0.519  0.00  0.00    -0.333 N 
ATOM     32  H   UNL     1       1.649   3.490  -2.705  0.00  0.00    +0.158 HD
ATOM     33  H   UNL     1       3.154   2.416   0.335  0.00  0.00    +0.145 HD
ATOM     34  H   UNL     1       3.443   3.253  -1.093  0.00  0.00    +0.145 HD
ATOM     35  N   UNL     1       1.056   2.960  -2.067  0.00  0.00    -0.375 N 
ATOM     36  H   UNL     1       0.079   2.764  -2.317  0.00  0.00    +0.158 HD
ENDBRANCH  19  20
ENDBRANCH   1  19
TORSDOF 5
