REMARK  Name = ZINC39695718
REMARK  8 active torsions:
REMARK  status: ('A' for Active; 'I' for Inactive)
REMARK    1  A    between atoms: C_1  and  C_2
REMARK    2  A    between atoms: C_10  and  C_12
REMARK    3  A    between atoms: C_12  and  C_13
REMARK    4  A    between atoms: C_12  and  N_14
REMARK    5  A    between atoms: C_15  and  C_17
REMARK    6  A    between atoms: C_27  and  C_29
REMARK    7  A    between atoms: C_34  and  O_35
REMARK    8  A    between atoms: O_35  and  C_36
REMARK                            x       y       z     vdW  Elec       q    Type
REMARK                         _______ _______ _______ _____ _____    ______ ____
ROOT
ATOM      1  C   UNL     1       1.870  -8.731   0.982  0.00  0.00    +0.100 C 
ATOM      2  C   UNL     1       0.766  -9.490   0.213  0.00  0.00    +0.121 C 
ATOM      3  N   UNL     1       1.253 -10.888   0.143  0.00  0.00    -0.296 N 
ATOM      4  C   UNL     1       1.871 -11.130   1.468  0.00  0.00    +0.115 C 
ATOM      5  C   UNL     1       2.590  -9.812   1.806  0.00  0.00    -0.004 C 
ATOM      6  C   UNL     1       2.465  -9.511   3.296  0.00  0.00    -0.010 C 
ATOM      7  C   UNL     1       3.238 -10.568   4.092  0.00  0.00    -0.082 C 
ATOM      8  N   UNL     1       4.648 -10.554   3.686  0.00  0.00    +0.379 N 
ATOM      9  C   UNL     1       4.766 -10.935   2.273  0.00  0.00    -0.082 C 
ATOM     10  C   UNL     1       4.058  -9.895   1.401  0.00  0.00    -0.010 C 
ATOM     11  C   UNL     1       1.157 -11.745  -0.893  0.00  0.00    +0.250 C 
ATOM     12  O   UNL     1       0.706 -11.366  -1.956  0.00  0.00    -0.270 OA
ATOM     13  H   UNL     1       5.025  -9.627   3.815  0.00  0.00    -0.086 HD
ATOM     14  H   UNL     1       5.166 -11.208   4.253  0.00  0.00    -0.086 HD
ENDROOT
BRANCH  11  15
ATOM     15  C   UNL     1       1.598 -13.144  -0.736  0.00  0.00    +0.078 A 
ATOM     16  C   UNL     1       1.424 -13.803   0.483  0.00  0.00    +0.017 A 
ATOM     17  C   UNL     1       1.837 -15.110   0.624  0.00  0.00    +0.001 A 
ATOM     18  C   UNL     1       2.426 -15.775  -0.440  0.00  0.00    +0.004 A 
ATOM     19  C   UNL     1       2.604 -15.135  -1.651  0.00  0.00    +0.046 A 
ATOM     20  C   UNL     1       2.189 -13.822  -1.811  0.00  0.00    +0.132 A 
BRANCH  20  21
ATOM     21  O   UNL     1       2.358 -13.194  -3.002  0.00  0.00    -0.494 OA
ATOM     22  C   UNL     1       2.968 -13.948  -4.051  0.00  0.00    +0.277 C 
ENDBRANCH  20  21
ENDBRANCH  11  15
BRANCH   1  24
ATOM     23  N   UNL     1       2.003  -6.664   2.335  0.00  0.00    -0.305 N 
ATOM     24  C   UNL     1       1.259  -7.697   1.893  0.00  0.00    +0.219 C 
ATOM     25  O   UNL     1       0.097  -7.796   2.229  0.00  0.00    -0.275 OA
ATOM     26  H   UNL     1       2.931  -6.585   2.067  0.00  0.00    +0.149 HD
BRANCH  23  27
ATOM     27  C   UNL     1       1.408  -5.660   3.221  0.00  0.00    +0.136 C 
ATOM     28  C   UNL     1       0.696  -4.597   2.381  0.00  0.00    +0.036 C 
BRANCH  27  38
ATOM     29  C   UNL     1       5.783  -2.195   8.145  0.00  0.00    +0.044 C 
ATOM     30  C   UNL     1       5.303  -2.930   6.920  0.00  0.00    -0.048 A 
ATOM     31  C   UNL     1       6.205  -3.262   5.918  0.00  0.00    +0.005 A 
ATOM     32  C   UNL     1       5.790  -3.929   4.800  0.00  0.00    +0.030 A 
ATOM     33  C   UNL     1       4.445  -4.282   4.659  0.00  0.00    +0.089 A 
ATOM     34  C   UNL     1       3.532  -3.946   5.673  0.00  0.00    +0.067 A 
ATOM     35  C   UNL     1       3.973  -3.273   6.804  0.00  0.00    +0.031 A 
ATOM     36  N   UNL     1       2.305  -4.419   5.252  0.00  0.00    -0.340 N 
ATOM     37  H   UNL     1       1.465  -4.344   5.732  0.00  0.00    +0.167 HD
ATOM     38  C   UNL     1       2.492  -5.008   4.041  0.00  0.00    +0.128 A 
ATOM     39  N   UNL     1       3.743  -4.929   3.693  0.00  0.00    -0.231 NA
ENDBRANCH  27  38
ENDBRANCH  23  27
ENDBRANCH   1  24
TORSDOF 5
