REMARK  Name = ZINC39578089
REMARK  8 active torsions:
REMARK  status: ('A' for Active; 'I' for Inactive)
REMARK    1  A    between atoms: C_1  and  C_2
REMARK    2  A    between atoms: N_11  and  C_15
REMARK    3  A    between atoms: C_15  and  C_16
REMARK    4  A    between atoms: C_16  and  O_18
REMARK    5  A    between atoms: O_18  and  C_19
REMARK    6  A    between atoms: C_19  and  C_20
REMARK    7  A    between atoms: N_22  and  C_23
REMARK    8  A    between atoms: C_24  and  C_32
REMARK                            x       y       z     vdW  Elec       q    Type
REMARK                         _______ _______ _______ _____ _____    ______ ____
ROOT
ATOM      1  C   UNL     1       1.542   0.157   7.804  0.00  0.00    +0.328 C 
ENDROOT
BRANCH   1   2
ATOM      2  C   UNL     1       1.386   0.840   9.139  0.00  0.00    +0.255 C 
ATOM      3  O   UNL     1       1.005   1.990   9.190  0.00  0.00    -0.272 OA
ATOM      4  N   UNL     1       1.670   0.173  10.275  0.00  0.00    -0.277 N 
ATOM      5  H   UNL     1       1.975  -0.747  10.234  0.00  0.00    +0.155 HD
BRANCH   4   6
ATOM      6  C   UNL     1       1.527   0.802  11.502  0.00  0.00    +0.084 A 
ATOM      7  C   UNL     1       1.776   0.280  12.761  0.00  0.00    +0.068 A 
ATOM      8  C   UNL     1       1.545   1.152  13.900  0.00  0.00    -0.023 A 
ATOM      9  C   UNL     1       1.107   2.386  13.570  0.00  0.00    -0.004 A 
ATOM     10  S   UNL     1       1.019   2.374  11.804  0.00  0.00    -0.077 S 
ATOM     11  C   UNL     1       0.779   3.505  14.510  0.00  0.00    +0.043 C 
ATOM     12  C   UNL     1       0.653   2.924  15.926  0.00  0.00    +0.005 C 
ATOM     13  C   UNL     1       1.859   2.021  16.201  0.00  0.00    +0.005 C 
ATOM     14  C   UNL     1       1.764   0.752  15.351  0.00  0.00    +0.037 C 
BRANCH   7  15
ATOM     15  C   UNL     1       2.251  -1.096  12.937  0.00  0.00    +0.244 C 
ATOM     16  O   UNL     1       3.446  -1.329  12.954  0.00  0.00    -0.270 OA
ATOM     17  N   UNL     1       1.366  -2.102  13.081  0.00  0.00    -0.325 N 
ATOM     18  H   UNL     1       0.414  -1.916  13.067  0.00  0.00    +0.145 HD
ATOM     19  H   UNL     1       1.681  -3.012  13.197  0.00  0.00    +0.145 HD
ENDBRANCH   7  15
ENDBRANCH   4   6
ENDBRANCH   1   2
BRANCH   1  20
ATOM     20  O   UNL     1       1.182   1.063   6.760  0.00  0.00    -0.454 OA
BRANCH  20  21
ATOM     21  C   UNL     1       1.267   0.606   5.501  0.00  0.00    +0.326 C 
ATOM     22  O   UNL     1       1.633  -0.526   5.292  0.00  0.00    -0.249 OA
BRANCH  21  23
ATOM     23  C   UNL     1       0.904   1.505   4.347  0.00  0.00    +0.238 C 
BRANCH  23  33
ATOM     24  C   UNL     1      -0.019   1.526   0.010  0.00  0.00    +0.010 C 
ATOM     25  C   UNL     1       0.002  -0.004   0.002  0.00  0.00    +0.018 C 
ATOM     26  C   UNL     1      -1.434  -0.533   0.012  0.00  0.00    +0.006 C 
ATOM     27  C   UNL     1      -1.413  -2.063   0.024  0.00  0.00    +0.000 C 
ATOM     28  C   UNL     1      -0.690  -2.554   1.280  0.00  0.00    +0.003 C 
ATOM     29  C   UNL     1       0.749  -2.033   1.276  0.00  0.00    +0.035 C 
ATOM     30  C   UNL     1       0.741  -0.509   1.237  0.00  0.00    +0.115 C 
ATOM     31  C   UNL     1       0.111   0.049   2.493  0.00  0.00    +0.247 C 
ATOM     32  O   UNL     1      -1.023  -0.123   2.884  0.00  0.00    -0.273 OA
ATOM     33  N   UNL     1       1.078   0.778   3.087  0.00  0.00    -0.213 N 
ATOM     34  C   UNL     1       2.217   0.755   2.383  0.00  0.00    +0.310 C 
ATOM     35  O   UNL     1       3.230   1.337   2.717  0.00  0.00    -0.252 OA
ATOM     36  N   UNL     1       2.113   0.013   1.264  0.00  0.00    -0.285 N 
ATOM     37  H   UNL     1       2.808  -0.145   0.606  0.00  0.00    +0.151 HD
ENDBRANCH  23  33
ENDBRANCH  21  23
ENDBRANCH  20  21
ENDBRANCH   1  20
TORSDOF 7
