REMARK  Name = ZINC62440630
REMARK  5 active torsions:
REMARK  status: ('A' for Active; 'I' for Inactive)
REMARK    1  A    between atoms: C_6  and  C_7
REMARK    2  A    between atoms: C_7  and  C_9
REMARK    3  A    between atoms: C_7  and  N_21
REMARK    4  A    between atoms: C_9  and  N_10
REMARK    5  A    between atoms: C_11  and  C_13
REMARK                            x       y       z     vdW  Elec       q    Type
REMARK                         _______ _______ _______ _____ _____    ______ ____
ROOT
ATOM      1  C   UNL     1      -1.299  -0.762  -0.004  0.00  0.00    -0.020 C 
ENDROOT
BRANCH   1   7
ATOM      2  C   UNL     1      -0.372   1.558  -0.142  0.00  0.00    +0.006 A 
ATOM      3  C   UNL     1       0.689   2.441  -0.215  0.00  0.00    +0.050 A 
ATOM      4  C   UNL     1       1.988   1.964  -0.230  0.00  0.00    +0.166 A 
ATOM      5  C   UNL     1       2.224   0.592  -0.172  0.00  0.00    +0.166 A 
ATOM      6  C   UNL     1       1.156  -0.287  -0.099  0.00  0.00    +0.051 A 
ATOM      7  C   UNL     1      -0.139   0.197  -0.084  0.00  0.00    -0.056 A 
ATOM      8  O   UNL     1       3.572   0.379  -0.202  0.00  0.00    -0.453 OA
ATOM      9  C   UNL     1       4.144   1.607  -0.690  0.00  0.00    +0.466 C 
ATOM     10  O   UNL     1       3.189   2.610  -0.296  0.00  0.00    -0.453 OA
ENDBRANCH   1   7
BRANCH   1  11
ATOM     11  N   UNL     1      -2.327  -0.215   0.891  0.00  0.00    +0.385 N 
ATOM     12  C   UNL     1      -3.443  -1.183   1.042  0.00  0.00    -0.078 C 
ATOM     13  C   UNL     1      -4.108  -0.752   2.374  0.00  0.00    -0.020 C 
ATOM     14  C   UNL     1      -2.900  -0.343   3.247  0.00  0.00    -0.020 C 
ATOM     15  C   UNL     1      -1.771  -0.025   2.249  0.00  0.00    -0.078 C 
ATOM     16  H   UNL     1      -2.672   0.662   0.530  0.00  0.00    -0.081 HD
ENDBRANCH   1  11
BRANCH   1  17
ATOM     17  C   UNL     1      -1.893  -0.961  -1.401  0.00  0.00    +0.094 C 
BRANCH  17  18
ATOM     18  N   UNL     1      -0.909  -1.626  -2.259  0.00  0.00    -0.313 N 
ATOM     19  C   UNL     1      -1.172  -1.809  -3.568  0.00  0.00    +0.245 C 
ATOM     20  O   UNL     1      -2.225  -1.421  -4.037  0.00  0.00    -0.270 OA
ATOM     21  H   UNL     1      -0.070  -1.936  -1.885  0.00  0.00    +0.149 HD
BRANCH  19  22
ATOM     22  C   UNL     1      -0.182  -2.478  -4.433  0.00  0.00    +0.053 A 
ATOM     23  C   UNL     1       1.043  -2.937  -3.891  0.00  0.00    +0.020 A 
ATOM     24  C   UNL     1       1.938  -3.551  -4.711  0.00  0.00    +0.071 A 
ATOM     25  C   UNL     1       1.628  -3.716  -6.074  0.00  0.00    +0.249 A 
ATOM     26  O   UNL     1       2.427  -4.266  -6.814  0.00  0.00    -0.268 OA
ATOM     27  N   UNL     1       0.458  -3.273  -6.567  0.00  0.00    -0.328 N 
ATOM     28  H   UNL     1       0.259  -3.396  -7.509  0.00  0.00    +0.168 HD
ATOM     29  C   UNL     1      -0.445  -2.667  -5.774  0.00  0.00    +0.099 A 
ENDBRANCH  19  22
ENDBRANCH  17  18
ENDBRANCH   1  17
TORSDOF 5
