REMARK  Name = ZINC09510749
REMARK  12 active torsions:
REMARK  status: ('A' for Active; 'I' for Inactive)
REMARK    1  A    between atoms: C_1  and  C_2
REMARK    2  A    between atoms: C_5  and  C_8
REMARK    3  A    between atoms: C_10  and  C_14
REMARK    4  A    between atoms: C_17  and  S_20
REMARK    5  A    between atoms: N_18  and  N_19
REMARK    6  A    between atoms: S_20  and  C_21
REMARK    7  A    between atoms: C_21  and  C_22
REMARK    8  A    between atoms: N_24  and  C_25
REMARK    9  A    between atoms: C_26  and  C_34
REMARK   10  A    between atoms: C_30  and  C_31
REMARK   11  A    between atoms: C_31  and  C_32
REMARK   12  A    between atoms: C_31  and  C_33
REMARK                            x       y       z     vdW  Elec       q    Type
REMARK                         _______ _______ _______ _____ _____    ______ ____
ROOT
ATOM      1  C   UNL     1       2.084  -7.529   2.162  0.00  0.00    +0.202 A 
ATOM      2  N   UNL     1       1.188  -7.594   3.119  0.00  0.00    -0.125 NA
ATOM      3  N   UNL     1       1.048  -8.811   3.508  0.00  0.00    -0.120 NA
ATOM      4  C   UNL     1       1.846  -9.598   2.822  0.00  0.00    +0.209 A 
ATOM      5  N   UNL     1       2.529  -8.811   1.938  0.00  0.00    -0.222 N 
ENDROOT
BRANCH   1   8
ATOM      6  C   UNL     1       2.714  -4.165   0.836  0.00  0.00    +0.066 A 
ATOM      7  C   UNL     1       2.062  -5.002   1.693  0.00  0.00    +0.061 A 
ATOM      8  C   UNL     1       2.526  -6.309   1.454  0.00  0.00    +0.132 A 
ATOM      9  N   UNL     1       3.424  -6.258   0.489  0.00  0.00    -0.170 NA
ATOM     10  N   UNL     1       3.557  -4.925   0.080  0.00  0.00    -0.276 N 
ATOM     11  H   UNL     1       4.147  -4.599  -0.618  0.00  0.00    +0.189 HD
BRANCH   6  16
ATOM     12  C   UNL     1       2.014   1.536   0.462  0.00  0.00    +0.044 C 
ATOM     13  C   UNL     1       2.198   0.043   0.560  0.00  0.00    -0.050 A 
ATOM     14  C   UNL     1       3.095  -0.597  -0.276  0.00  0.00    +0.004 A 
ATOM     15  C   UNL     1       3.267  -1.964  -0.191  0.00  0.00    +0.010 A 
ATOM     16  C   UNL     1       2.534  -2.700   0.741  0.00  0.00    -0.000 A 
ATOM     17  C   UNL     1       1.632  -2.048   1.581  0.00  0.00    +0.010 A 
ATOM     18  C   UNL     1       1.472  -0.680   1.490  0.00  0.00    +0.004 A 
ENDBRANCH   6  16
ENDBRANCH   1   8
BRANCH   5  19
ATOM     19  N   UNL     1       3.462  -9.213   1.025  0.00  0.00    -0.295 N 
ATOM     20  H   UNL     1       4.389  -9.195   1.423  0.00  0.00    +0.163 HD
ATOM     21  H   UNL     1       3.242 -10.129   0.662  0.00  0.00    +0.163 HD
ENDBRANCH   5  19
BRANCH   4  22
ATOM     22  S   UNL     1       2.001 -11.344   3.003  0.00  0.00    -0.075 S 
BRANCH  22  23
ATOM     23  C   UNL     1       0.826 -11.754   4.323  0.00  0.00    +0.173 C 
BRANCH  23  24
ATOM     24  C   UNL     1       0.859 -13.239   4.581  0.00  0.00    +0.228 C 
ATOM     25  O   UNL     1       1.602 -13.950   3.938  0.00  0.00    -0.275 OA
ATOM     26  N   UNL     1       0.062 -13.776   5.526  0.00  0.00    -0.284 N 
ATOM     27  H   UNL     1      -0.492 -13.201   6.078  0.00  0.00    +0.155 HD
BRANCH  26  28
ATOM     28  C   UNL     1       0.035 -15.162   5.713  0.00  0.00    +0.040 A 
ATOM     29  C   UNL     1      -0.197 -16.005   4.633  0.00  0.00    -0.029 A 
ATOM     30  C   UNL     1      -0.224 -17.373   4.821  0.00  0.00    +0.005 A 
ATOM     31  C   UNL     1      -0.020 -17.904   6.081  0.00  0.00    +0.001 A 
ATOM     32  C   UNL     1       0.210 -17.068   7.158  0.00  0.00    +0.006 A 
ATOM     33  C   UNL     1       0.245 -15.699   6.976  0.00  0.00    -0.023 A 
ATOM     34  C   UNL     1      -0.420 -15.427   3.260  0.00  0.00    +0.045 C 
BRANCH  33  35
ATOM     35  C   UNL     1       0.503 -14.788   8.149  0.00  0.00    +0.015 C 
ATOM     36  C   UNL     1      -0.582 -14.999   9.207  0.00  0.00    +0.012 C 
ATOM     37  C   UNL     1       1.873 -15.110   8.752  0.00  0.00    +0.012 C 
ENDBRANCH  33  35
ENDBRANCH  26  28
ENDBRANCH  23  24
ENDBRANCH  22  23
ENDBRANCH   4  22
TORSDOF 8
