REMARK  Name = ZINC35486416
REMARK  11 active torsions:
REMARK  status: ('A' for Active; 'I' for Inactive)
REMARK    1  A    between atoms: C_1  and  C_2
REMARK    2  A    between atoms: C_2  and  N_3
REMARK    3  A    between atoms: N_3  and  C_4
REMARK    4  A    between atoms: N_3  and  C_6
REMARK    5  A    between atoms: C_4  and  C_5
REMARK    6  A    between atoms: C_6  and  C_7
REMARK    7  A    between atoms: C_7  and  N_8
REMARK    8  A    between atoms: C_9  and  C_25
REMARK    9  A    between atoms: C_28  and  O_31
REMARK   10  A    between atoms: O_31  and  C_32
REMARK   11  A    between atoms: C_32  and  C_33
REMARK                            x       y       z     vdW  Elec       q    Type
REMARK                         _______ _______ _______ _____ _____    ______ ____
ROOT
ATOM      1  N   UNL     1      -2.896  -4.091   0.190  0.00  0.00    -0.285 N 
ATOM      2  C   UNL     1      -2.723  -5.090  -0.878  0.00  0.00    +0.144 C 
ATOM      3  C   UNL     1      -2.792  -6.421  -0.206  0.00  0.00    +0.072 A 
ATOM      4  C   UNL     1      -2.697  -7.782  -0.744  0.00  0.00    +0.199 A 
ATOM      5  O   UNL     1      -2.360  -8.024  -1.890  0.00  0.00    -0.287 OA
ATOM      6  C   UNL     1      -3.051  -8.837   0.239  0.00  0.00    +0.067 A 
ATOM      7  C   UNL     1      -3.202 -10.162  -0.170  0.00  0.00    +0.053 A 
ATOM      8  C   UNL     1      -3.536 -11.127   0.756  0.00  0.00    +0.124 A 
ATOM      9  C   UNL     1      -3.719 -10.778   2.089  0.00  0.00    +0.042 A 
ATOM     10  C   UNL     1      -3.570  -9.475   2.503  0.00  0.00    +0.050 A 
ATOM     11  C   UNL     1      -3.231  -8.480   1.586  0.00  0.00    +0.140 A 
ATOM     12  O   UNL     1      -3.081  -7.209   2.023  0.00  0.00    -0.450 OA
ATOM     13  C   UNL     1      -2.982  -6.204   1.130  0.00  0.00    +0.199 A 
ATOM     14  C   UNL     1      -3.041  -4.750   1.357  0.00  0.00    +0.283 C 
ATOM     15  O   UNL     1      -3.200  -4.221   2.440  0.00  0.00    -0.267 OA
ATOM     16  F   UNL     1      -3.684 -12.412   0.367  0.00  0.00    -0.205 F 
ENDROOT
BRANCH   2  17
ATOM     17  C   UNL     1      -3.829  -4.961  -1.894  0.00  0.00    -0.022 A 
ATOM     18  C   UNL     1      -5.122  -4.706  -1.478  0.00  0.00    +0.009 A 
ATOM     19  C   UNL     1      -6.138  -4.588  -2.407  0.00  0.00    +0.046 A 
ATOM     20  C   UNL     1      -5.858  -4.725  -3.759  0.00  0.00    +0.121 A 
ATOM     21  C   UNL     1      -4.559  -4.981  -4.174  0.00  0.00    +0.046 A 
ATOM     22  C   UNL     1      -3.547  -5.093  -3.241  0.00  0.00    +0.009 A 
BRANCH  20  23
ATOM     23  O   UNL     1      -6.856  -4.610  -4.676  0.00  0.00    -0.483 OA
BRANCH  23  24
ATOM     24  C   UNL     1      -6.495  -4.763  -6.050  0.00  0.00    +0.324 C 
BRANCH  24  25
ATOM     25  C   UNL     1      -7.721  -4.604  -6.912  0.00  0.00    +0.248 C 
ATOM     26  O   UNL     1      -8.797  -4.381  -6.399  0.00  0.00    -0.272 OA
ATOM     27  N   UNL     1      -7.621  -4.709  -8.252  0.00  0.00    -0.327 N 
ATOM     28  H   UNL     1      -6.760  -4.887  -8.661  0.00  0.00    +0.145 HD
ATOM     29  H   UNL     1      -8.410  -4.606  -8.806  0.00  0.00    +0.145 HD
ENDBRANCH  24  25
ENDBRANCH  23  24
ENDBRANCH  20  23
ENDBRANCH   2  17
BRANCH   1  30
ATOM     30  C   UNL     1      -2.903  -2.637   0.015  0.00  0.00    +0.090 C 
BRANCH  30  31
ATOM     31  C   UNL     1      -1.476  -2.100   0.149  0.00  0.00    -0.060 C 
BRANCH  31  32
ATOM     32  N   UNL     1      -1.465  -0.661  -0.147  0.00  0.00    +0.380 N 
ATOM     33  H   UNL     1      -1.873  -0.501  -1.056  0.00  0.00    -0.082 HD
BRANCH  32  35
ATOM     34  C   UNL     1      -2.336   1.535   0.497  0.00  0.00    -0.017 C 
ATOM     35  C   UNL     1      -2.244   0.054   0.873  0.00  0.00    -0.082 C 
ENDBRANCH  32  35
BRANCH  32  36
ATOM     36  C   UNL     1      -0.080  -0.171  -0.138  0.00  0.00    -0.082 C 
ATOM     37  C   UNL     1       0.691  -0.800  -1.300  0.00  0.00    -0.017 C 
ENDBRANCH  32  36
ENDBRANCH  31  32
ENDBRANCH  30  31
ENDBRANCH   1  30
TORSDOF 9
