REMARK  Name = ZINC13442672
REMARK  7 active torsions:
REMARK  status: ('A' for Active; 'I' for Inactive)
REMARK    1  A    between atoms: C_1  and  C_2
REMARK    2  A    between atoms: C_2  and  C_4
REMARK    3  A    between atoms: C_2  and  N_47
REMARK    4  A    between atoms: N_6  and  C_7
REMARK    5  A    between atoms: C_8  and  C_19
REMARK    6  A    between atoms: C_16  and  C_18
REMARK    7  A    between atoms: C_19  and  C_21
REMARK                            x       y       z     vdW  Elec       q    Type
REMARK                         _______ _______ _______ _____ _____    ______ ____
ROOT
ATOM      1  C   UNL     1      -0.031   1.108  -4.861  0.00  0.00    +0.083 A 
ATOM      2  C   UNL     1      -0.185   1.636  -6.138  0.00  0.00    +0.054 A 
ATOM      3  C   UNL     1       0.462   0.935  -7.236  0.00  0.00    -0.021 A 
ATOM      4  C   UNL     1       1.144  -0.176  -6.884  0.00  0.00    +0.013 A 
ATOM      5  S   UNL     1       0.945  -0.298  -5.130  0.00  0.00    -0.076 S 
ATOM      6  C   UNL     1       1.903  -1.091  -7.797  0.00  0.00    +0.150 C 
ATOM      7  N   UNL     1       1.579  -0.692  -9.181  0.00  0.00    -0.297 N 
ATOM      8  C   UNL     1       1.527   0.747  -9.478  0.00  0.00    +0.113 C 
ATOM      9  C   UNL     1       0.386   1.392  -8.688  0.00  0.00    +0.056 C 
ATOM     10  C   UNL     1       1.341  -1.613 -10.136  0.00  0.00    +0.213 C 
ATOM     11  O   UNL     1       0.980  -1.262 -11.240  0.00  0.00    -0.276 OA
ATOM     12  C   UNL     1       1.524  -3.078  -9.834  0.00  0.00    +0.109 C 
ENDROOT
BRANCH   1  15
ATOM     13  C   UNL     1      -0.204   0.991  -2.503  0.00  0.00    +0.203 C 
ATOM     14  O   UNL     1       0.614   0.096  -2.495  0.00  0.00    -0.277 OA
ATOM     15  N   UNL     1      -0.540   1.587  -3.664  0.00  0.00    -0.281 N 
ATOM     16  H   UNL     1      -1.138   2.350  -3.663  0.00  0.00    +0.155 HD
BRANCH  13  18
ATOM     17  C   UNL     1      -2.279   0.906  -1.147  0.00  0.00    -0.005 C 
ATOM     18  C   UNL     1      -0.846   1.437  -1.214  0.00  0.00    +0.010 C 
BRANCH  18  21
ATOM     19  H   UNL     1      -0.048  -0.094  -0.093  0.00  0.00    -0.089 HD
ATOM     20  H   UNL     1       0.856   1.302  -0.063  0.00  0.00    -0.089 HD
ATOM     21  N   UNL     1      -0.090   0.924  -0.058  0.00  0.00    +0.385 N 
ATOM     22  H   UNL     1      -0.561   1.210   0.808  0.00  0.00    -0.089 HD
ENDBRANCH  18  21
ENDBRANCH  13  18
ENDBRANCH   1  15
BRANCH   2  23
ATOM     23  C   UNL     1      -0.965   2.854  -6.368  0.00  0.00    +0.197 C 
ATOM     24  O   UNL     1      -0.406   3.934  -6.417  0.00  0.00    -0.287 OA
BRANCH  23  25
ATOM     25  C   UNL     1      -2.431   2.771  -6.540  0.00  0.00    +0.041 A 
ATOM     26  C   UNL     1      -3.089   1.550  -6.379  0.00  0.00    +0.013 A 
ATOM     27  C   UNL     1      -4.456   1.480  -6.541  0.00  0.00    +0.001 A 
ATOM     28  C   UNL     1      -5.178   2.616  -6.862  0.00  0.00    +0.001 A 
ATOM     29  C   UNL     1      -4.535   3.830  -7.022  0.00  0.00    +0.021 A 
ATOM     30  C   UNL     1      -3.166   3.916  -6.859  0.00  0.00    +0.052 A 
ATOM     31 CL   UNL     1      -2.360   5.441  -7.055  0.00  0.00    -0.083 Cl
ENDBRANCH  23  25
ENDBRANCH   2  23
TORSDOF 5
