REMARK  Name = ZINC67389602
REMARK  8 active torsions:
REMARK  status: ('A' for Active; 'I' for Inactive)
REMARK    1  A    between atoms: C_1  and  C_2
REMARK    2  A    between atoms: C_6  and  C_7
REMARK    3  A    between atoms: N_9  and  N_10
REMARK    4  A    between atoms: N_13  and  C_14
REMARK    5  A    between atoms: C_14  and  C_15
REMARK    6  A    between atoms: C_15  and  C_17
REMARK    7  A    between atoms: C_15  and  N_18
REMARK    8  A    between atoms: C_22  and  C_25
REMARK                            x       y       z     vdW  Elec       q    Type
REMARK                         _______ _______ _______ _____ _____    ______ ____
ROOT
ATOM      1  N   UNL     1      -2.470  -1.999   8.369  0.00  0.00    -0.218 N 
ATOM      2  C   UNL     1      -1.254  -2.346   7.903  0.00  0.00    +0.316 C 
ATOM      3  O   UNL     1      -0.336  -1.550   7.949  0.00  0.00    -0.251 OA
ATOM      4  N   UNL     1      -1.056  -3.575   7.388  0.00  0.00    -0.300 N 
ATOM      5  H   UNL     1      -2.597  -1.140   8.802  0.00  0.00    +0.174 HD
ATOM      6  H   UNL     1      -1.802  -4.186   7.289  0.00  0.00    +0.150 HD
ENDROOT
BRANCH   1   9
ATOM      7  C   UNL     1      -4.789  -2.490   8.596  0.00  0.00    +0.267 C 
ATOM      8  O   UNL     1      -4.982  -1.349   8.970  0.00  0.00    -0.268 OA
ATOM      9  N   UNL     1      -3.552  -2.878   8.227  0.00  0.00    -0.229 N 
ATOM     10  H   UNL     1      -3.410  -3.767   7.864  0.00  0.00    +0.173 HD
BRANCH   7  16
ATOM     11  C   UNL     1      -7.694  -2.004   9.608  0.00  0.00    +0.045 C 
ATOM     12  C   UNL     1      -7.209  -3.284   8.980  0.00  0.00    -0.031 A 
ATOM     13  C   UNL     1      -8.035  -4.367   8.794  0.00  0.00    +0.011 A 
ATOM     14  C   UNL     1      -7.533  -5.489   8.222  0.00  0.00    +0.046 A 
ATOM     15  S   UNL     1      -5.925  -5.112   7.917  0.00  0.00    -0.092 S 
ATOM     16  C   UNL     1      -5.901  -3.444   8.547  0.00  0.00    +0.078 A 
ENDBRANCH   7  16
ENDBRANCH   1   9
BRANCH   4  17
ATOM     17  C   UNL     1       0.288  -3.989   6.976  0.00  0.00    +0.090 C 
BRANCH  17  18
ATOM     18  C   UNL     1       0.217  -5.365   6.311  0.00  0.00    -0.054 C 
ATOM     19  C   UNL     1      -0.219  -6.407   7.343  0.00  0.00    -0.012 C 
BRANCH  18  20
ATOM     20  N   UNL     1      -0.755  -5.328   5.211  0.00  0.00    +0.383 N 
ATOM     21  C   UNL     1      -0.867  -6.664   4.614  0.00  0.00    -0.078 C 
ATOM     22  C   UNL     1      -1.938  -6.650   3.521  0.00  0.00    -0.018 C 
ATOM     23  C   UNL     1      -1.544  -5.638   2.441  0.00  0.00    -0.001 C 
ATOM     24  C   UNL     1      -1.358  -4.262   3.088  0.00  0.00    -0.031 C 
ATOM     25  C   UNL     1      -0.308  -4.365   4.198  0.00  0.00    -0.075 C 
ATOM     26  C   UNL     1      -0.889  -3.260   2.032  0.00  0.00    +0.005 C 
ATOM     27  H   UNL     1      -1.655  -5.045   5.569  0.00  0.00    -0.081 HD
ENDBRANCH  18  20
ENDBRANCH  17  18
ENDBRANCH   4  17
TORSDOF 5
