REMARK  Name = ZINC10188485
REMARK  9 active torsions:
REMARK  status: ('A' for Active; 'I' for Inactive)
REMARK    1  A    between atoms: C_1  and  N_2
REMARK    2  A    between atoms: N_2  and  C_3
REMARK    3  A    between atoms: N_2  and  C_4
REMARK    4  A    between atoms: C_7  and  C_10
REMARK    5  A    between atoms: C_10  and  C_12
REMARK    6  A    between atoms: C_10  and  N_63
REMARK    7  A    between atoms: C_12  and  N_13
REMARK    8  A    between atoms: C_14  and  C_16
REMARK    9  A    between atoms: N_18  and  C_19
REMARK                            x       y       z     vdW  Elec       q    Type
REMARK                         _______ _______ _______ _____ _____    ______ ____
ROOT
ATOM      1  C   UNL     1       2.534  -0.057   0.920  0.00  0.00    -0.020 C 
ENDROOT
BRANCH   1  11
ATOM      2  C   UNL     1       1.728  -0.671   3.122  0.00  0.00    -0.073 C 
ATOM      3  C   UNL     1       1.133  -1.853   3.888  0.00  0.00    +0.017 C 
ATOM      4  C   UNL     1       2.131  -2.981   3.949  0.00  0.00    -0.048 A 
ATOM      5  C   UNL     1       1.936  -3.987   4.883  0.00  0.00    +0.004 A 
ATOM      6  C   UNL     1       2.824  -5.041   4.969  0.00  0.00    +0.000 A 
ATOM      7  C   UNL     1       3.913  -5.093   4.120  0.00  0.00    +0.000 A 
ATOM      8  C   UNL     1       4.109  -4.091   3.191  0.00  0.00    +0.002 A 
ATOM      9  C   UNL     1       3.219  -3.031   3.104  0.00  0.00    -0.061 A 
ATOM     10  C   UNL     1       3.480  -1.958   2.080  0.00  0.00    -0.042 C 
ATOM     11  N   UNL     1       2.251  -1.183   1.839  0.00  0.00    +0.388 N 
ATOM     12  H   UNL     1       1.547  -1.795   1.410  0.00  0.00    -0.080 HD
ENDBRANCH   1  11
BRANCH   1  16
ATOM     13  C   UNL     1       6.379   1.609   1.764  0.00  0.00    +0.029 A 
ATOM     14  C   UNL     1       6.120   1.052   0.518  0.00  0.00    +0.023 A 
ATOM     15  C   UNL     1       4.876   0.515   0.249  0.00  0.00    +0.004 A 
ATOM     16  C   UNL     1       3.890   0.531   1.218  0.00  0.00    -0.059 A 
ATOM     17  C   UNL     1       4.142   1.090   2.457  0.00  0.00    +0.004 A 
ATOM     18  C   UNL     1       5.385   1.624   2.735  0.00  0.00    +0.023 A 
BRANCH  13  20
ATOM     19  C   UNL     1       8.637   2.260   0.976  0.00  0.00    +0.129 C 
ATOM     20  N   UNL     1       7.635   2.154   2.040  0.00  0.00    -0.336 N 
ATOM     21  C   UNL     1       7.951   2.620   3.393  0.00  0.00    +0.129 C 
ENDBRANCH  13  20
ENDBRANCH   1  16
BRANCH   1  22
ATOM     22  C   UNL     1       1.462   1.021   1.095  0.00  0.00    +0.094 C 
BRANCH  22  23
ATOM     23  N   UNL     1       0.166   0.496   0.656  0.00  0.00    -0.309 N 
ATOM     24  C   UNL     1      -0.947   1.240   0.804  0.00  0.00    +0.299 C 
ATOM     25  O   UNL     1      -0.878   2.343   1.306  0.00  0.00    -0.265 OA
ATOM     26  H   UNL     1       0.111  -0.386   0.255  0.00  0.00    +0.149 HD
BRANCH  24  27
ATOM     27  C   UNL     1      -2.267   0.708   0.352  0.00  0.00    +0.303 C 
ATOM     28  O   UNL     1      -2.337  -0.395  -0.150  0.00  0.00    -0.265 OA
ATOM     29  N   UNL     1      -3.381   1.452   0.500  0.00  0.00    -0.275 N 
ATOM     30  H   UNL     1      -3.315   2.365   0.822  0.00  0.00    +0.155 HD
BRANCH  29  31
ATOM     31  C   UNL     1      -4.631   0.908   0.191  0.00  0.00    +0.072 A 
ATOM     32  C   UNL     1      -4.796  -0.469   0.131  0.00  0.00    +0.064 A 
ATOM     33  C   UNL     1      -6.035  -1.004  -0.171  0.00  0.00    +0.125 A 
ATOM     34  C   UNL     1      -7.109  -0.166  -0.424  0.00  0.00    +0.041 A 
ATOM     35  C   UNL     1      -6.947   1.206  -0.370  0.00  0.00    +0.043 A 
ATOM     36  C   UNL     1      -5.712   1.747  -0.064  0.00  0.00    +0.145 A 
ATOM     37  F   UNL     1      -5.555   3.087  -0.012  0.00  0.00    -0.204 F 
ATOM     38  F   UNL     1      -6.197  -2.344  -0.225  0.00  0.00    -0.205 F 
ENDBRANCH  29  31
ENDBRANCH  24  27
ENDBRANCH  22  23
ENDBRANCH   1  22
TORSDOF 7
