REMARK  Name = ZINC09429320
REMARK  7 active torsions:
REMARK  status: ('A' for Active; 'I' for Inactive)
REMARK    1  A    between atoms: C_1  and  C_2
REMARK    2  A    between atoms: C_2  and  C_3
REMARK    3  A    between atoms: C_2  and  N_4
REMARK    4  A    between atoms: C_8  and  N_9
REMARK    5  A    between atoms: N_9  and  C_10
REMARK    6  A    between atoms: C_24  and  N_64
REMARK    7  A    between atoms: C_36  and  S_37
REMARK                            x       y       z     vdW  Elec       q    Type
REMARK                         _______ _______ _______ _____ _____    ______ ____
ROOT
ATOM      1  C   UNL     1      -2.156   1.282   0.568  0.00  0.00    +0.031 A 
ATOM      2  C   UNL     1      -2.258  -0.102   0.633  0.00  0.00    +0.025 A 
ATOM      3  C   UNL     1      -3.481  -0.689   0.875  0.00  0.00    +0.025 A 
ATOM      4  C   UNL     1      -4.623   0.096   1.046  0.00  0.00    +0.033 A 
ATOM      5  C   UNL     1      -4.520   1.475   0.971  0.00  0.00    -0.023 A 
ATOM      6  C   UNL     1      -3.289   2.064   0.734  0.00  0.00    +0.028 A 
ATOM      7  C   UNL     1      -5.718   2.377   1.135  0.00  0.00    +0.064 C 
ATOM      8  C   UNL     1      -6.879   1.592   1.750  0.00  0.00    +0.144 C 
ATOM      9  C   UNL     1      -7.004   0.265   0.994  0.00  0.00    +0.081 C 
ATOM     10  N   UNL     1      -5.829  -0.557   1.292  0.00  0.00    -0.329 N 
ATOM     11  C   UNL     1      -5.901  -1.851   0.601  0.00  0.00    +0.087 C 
ATOM     12  C   UNL     1      -7.164  -2.591   1.050  0.00  0.00    -0.060 C 
ATOM     13  C   UNL     1      -8.267  -0.470   1.448  0.00  0.00    -0.055 C 
ATOM     14  C   UNL     1      -9.582  -2.476   1.110  0.00  0.00    -0.096 C 
ATOM     15  C   UNL     1      -8.152   2.376   1.600  0.00  0.00    +0.238 C 
ATOM     16  O   UNL     1      -8.529   2.678   0.488  0.00  0.00    -0.274 OA
ATOM     17  N   UNL     1      -8.881   2.752   2.660  0.00  0.00    -0.239 N 
ATOM     18  C   UNL     1      -8.519   2.447   3.915  0.00  0.00    +0.312 C 
ATOM     19  O   UNL     1      -9.217   2.813   4.839  0.00  0.00    -0.252 OA
ATOM     20  N   UNL     1      -7.403   1.748   4.176  0.00  0.00    -0.239 N 
ATOM     21  C   UNL     1      -6.591   1.319   3.199  0.00  0.00    +0.238 C 
ATOM     22  O   UNL     1      -5.596   0.693   3.494  0.00  0.00    -0.274 OA
ATOM     23  H   UNL     1      -9.695   3.259   2.515  0.00  0.00    +0.159 HD
ATOM     24  H   UNL     1      -7.178   1.548   5.098  0.00  0.00    +0.159 HD
ATOM     25  N   UNL     1      -8.346  -1.761   0.730  0.00  0.00    +0.380 N 
ATOM     26  H   UNL     1      -8.362  -1.581  -0.281  0.00  0.00    -0.082 HD
ENDROOT
BRANCH   1  27
ATOM     27  N   UNL     1      -0.915   1.884   0.331  0.00  0.00    -0.320 N 
ATOM     28  H   UNL     1      -0.846   2.850   0.282  0.00  0.00    +0.152 HD
BRANCH  27  33
ATOM     29  N   UNL     1       2.818   3.681  -0.188  0.00  0.00    -0.246 N 
ATOM     30  C   UNL     1       1.572   3.178  -0.059  0.00  0.00    +0.259 C 
ATOM     31  O   UNL     1       0.600   3.910  -0.022  0.00  0.00    -0.269 OA
ATOM     32  C   UNL     1       1.427   1.716   0.036  0.00  0.00    +0.115 C 
ATOM     33  C   UNL     1       0.185   1.121   0.171  0.00  0.00    +0.090 C 
ATOM     34  C   UNL     1       2.666   0.914  -0.013  0.00  0.00    +0.276 C 
ATOM     35  O   UNL     1       2.626  -0.302   0.065  0.00  0.00    -0.268 OA
ATOM     36  N   UNL     1       3.836   1.555  -0.150  0.00  0.00    -0.155 NA
ATOM     37  C   UNL     1       3.907   2.865  -0.230  0.00  0.00    +0.153 C 
BRANCH  29  39
ATOM     38  C   UNL     1       2.255   5.659  -1.512  0.00  0.00    +0.028 C 
ATOM     39  C   UNL     1       3.002   5.131  -0.285  0.00  0.00    +0.077 C 
ATOM     40  C   UNL     1       2.450   5.801   0.975  0.00  0.00    +0.028 C 
ENDBRANCH  29  39
BRANCH  37  41
ATOM     41  S   UNL     1       5.497   3.604  -0.401  0.00  0.00    -0.110 S 
ATOM     42  H   UNL     1       6.305   2.449  -0.401  0.00  0.00    +0.110 HD
ENDBRANCH  37  41
ENDBRANCH  27  33
ENDBRANCH   1  27
TORSDOF 4
