REMARK  Name = ZINC20116132
REMARK  14 active torsions:
REMARK  status: ('A' for Active; 'I' for Inactive)
REMARK    1  A    between atoms: C_1  and  C_2
REMARK    2  A    between atoms: C_2  and  N_3
REMARK    3  A    between atoms: N_3  and  C_4
REMARK    4  A    between atoms: N_3  and  C_6
REMARK    5  A    between atoms: C_4  and  C_5
REMARK    6  A    between atoms: C_6  and  C_7
REMARK    7  A    between atoms: C_7  and  N_8
REMARK    8  A    between atoms: C_9  and  C_11
REMARK    9  A    between atoms: C_11  and  C_13
REMARK   10  A    between atoms: C_11  and  N_16
REMARK   11  A    between atoms: C_13  and  C_14
REMARK   12  A    between atoms: C_13  and  C_15
REMARK   13  A    between atoms: C_17  and  C_19
REMARK   14  A    between atoms: C_22  and  C_25
REMARK                            x       y       z     vdW  Elec       q    Type
REMARK                         _______ _______ _______ _____ _____    ______ ____
ROOT
ATOM      1  N   UNL     1      -2.126  -0.409   1.264  0.00  0.00    -0.300 N 
ATOM      2  C   UNL     1      -2.010  -1.092   2.421  0.00  0.00    +0.245 C 
ATOM      3  O   UNL     1      -1.937  -0.493   3.476  0.00  0.00    -0.270 OA
ATOM      4  H   UNL     1      -2.192  -0.951   0.309  0.00  0.00    +0.150 HD
ENDROOT
BRANCH   2   5
ATOM      5  C   UNL     1      -1.972  -2.570   2.405  0.00  0.00    +0.037 A 
ATOM      6  C   UNL     1      -2.062  -3.261   1.195  0.00  0.00    +0.013 A 
ATOM      7  C   UNL     1      -2.021  -4.640   1.188  0.00  0.00    +0.005 A 
ATOM      8  C   UNL     1      -1.902  -5.338   2.376  0.00  0.00    -0.041 A 
ATOM      9  C   UNL     1      -1.817  -4.660   3.579  0.00  0.00    +0.005 A 
ATOM     10  C   UNL     1      -1.852  -3.281   3.600  0.00  0.00    +0.013 A 
BRANCH   8  11
ATOM     11  C   UNL     1      -1.865  -6.845   2.360  0.00  0.00    -0.003 C 
ATOM     12  C   UNL     1      -3.036  -7.392   3.179  0.00  0.00    +0.015 C 
ATOM     13  C   UNL     1      -2.998  -8.922   3.163  0.00  0.00    -0.010 C 
ATOM     14  C   UNL     1      -3.107  -9.419   1.721  0.00  0.00    +0.007 C 
ATOM     15  C   UNL     1      -1.937  -8.872   0.902  0.00  0.00    -0.010 C 
ATOM     16  C   UNL     1      -1.974  -7.342   0.918  0.00  0.00    +0.015 C 
ATOM     17  C   UNL     1      -0.619  -9.356   1.510  0.00  0.00    +0.007 C 
ATOM     18  C   UNL     1      -0.509  -8.858   2.952  0.00  0.00    -0.010 C 
ATOM     19  C   UNL     1      -1.680  -9.406   3.771  0.00  0.00    +0.007 C 
ATOM     20  C   UNL     1      -0.547  -7.329   2.968  0.00  0.00    +0.015 C 
ENDBRANCH   8  11
ENDBRANCH   2   5
BRANCH   1  21
ATOM     21  C   UNL     1      -2.164   1.056   1.280  0.00  0.00    +0.162 C 
BRANCH  21  23
ATOM     22  N   UNL     1      -3.040   2.876  -0.147  0.00  0.00    -0.316 N 
ATOM     23  C   UNL     1      -2.884   1.553   0.053  0.00  0.00    +0.234 C 
ATOM     24  O   UNL     1      -3.322   0.761  -0.755  0.00  0.00    -0.274 OA
ATOM     25  H   UNL     1      -2.643   3.594   0.586  0.00  0.00    +0.149 HD
BRANCH  22  26
ATOM     26  C   UNL     1      -3.740   3.359  -1.340  0.00  0.00    +0.086 C 
BRANCH  26  27
ATOM     27  C   UNL     1      -3.779   4.889  -1.324  0.00  0.00    -0.060 C 
BRANCH  27  28
ATOM     28  N   UNL     1      -4.371   5.377  -2.577  0.00  0.00    +0.380 N 
ATOM     29  H   UNL     1      -3.956   4.778  -3.402  0.00  0.00    -0.082 HD
BRANCH  28  31
ATOM     30  C   UNL     1      -6.378   5.479  -3.976  0.00  0.00    -0.017 C 
ATOM     31  C   UNL     1      -5.829   5.196  -2.577  0.00  0.00    -0.082 C 
ENDBRANCH  28  31
BRANCH  28  32
ATOM     32  C   UNL     1      -4.014   6.782  -2.816  0.00  0.00    -0.082 C 
ATOM     33  C   UNL     1      -2.562   6.866  -3.290  0.00  0.00    -0.017 C 
ENDBRANCH  28  32
ENDBRANCH  27  28
ENDBRANCH  26  27
ENDBRANCH  22  26
ENDBRANCH  21  23
BRANCH  21  34
ATOM     34  C   UNL     1      -0.735   1.603   1.290  0.00  0.00    +0.012 C 
ATOM     35  C   UNL     1       0.003   1.125   0.037  0.00  0.00    +0.009 C 
ATOM     36  C   UNL     1      -0.004   1.098   2.535  0.00  0.00    +0.009 C 
ENDBRANCH  21  34
ENDBRANCH   1  21
TORSDOF 10
