REMARK  Name = ZINC63491746
REMARK  7 active torsions:
REMARK  status: ('A' for Active; 'I' for Inactive)
REMARK    1  A    between atoms: C_1  and  O_2
REMARK    2  A    between atoms: O_2  and  C_3
REMARK    3  A    between atoms: C_10  and  C_30
REMARK    4  A    between atoms: C_18  and  C_20
REMARK    5  A    between atoms: C_20  and  S_21
REMARK    6  A    between atoms: S_21  and  C_22
REMARK    7  A    between atoms: C_22  and  C_23
REMARK                            x       y       z     vdW  Elec       q    Type
REMARK                         _______ _______ _______ _____ _____    ______ ____
ROOT
ATOM      1  C   UNL     1       0.950  -0.300   1.351  0.00  0.00    +0.121 A 
ATOM      2  C   UNL     1       1.498   0.388   2.448  0.00  0.00    +0.047 A 
ATOM      3  C   UNL     1       2.065  -0.250   3.494  0.00  0.00    +0.029 A 
ATOM      4  C   UNL     1       2.126  -1.714   3.511  0.00  0.00    +0.043 A 
ATOM      5  N   UNL     1       2.595  -2.561   4.396  0.00  0.00    -0.375 N 
ATOM      6  C   UNL     1       2.461  -3.914   3.861  0.00  0.00    +0.131 C 
ATOM      7  C   UNL     1       1.639  -4.817   4.789  0.00  0.00    +0.133 C 
ATOM      8  N   UNL     1       1.215  -5.994   4.015  0.00  0.00    -0.291 N 
ATOM      9  C   UNL     1       0.390  -5.839   2.812  0.00  0.00    +0.113 C 
ATOM     10  C   UNL     1       1.125  -4.939   1.802  0.00  0.00    +0.052 C 
ATOM     11  C   UNL     1       1.683  -3.760   2.564  0.00  0.00    -0.035 C 
ATOM     12  C   UNL     1       1.541  -2.443   2.357  0.00  0.00    +0.003 A 
ATOM     13  C   UNL     1       0.947  -1.652   1.273  0.00  0.00    +0.055 A 
ATOM     14  C   UNL     1       1.589  -7.226   4.414  0.00  0.00    +0.226 C 
ATOM     15  O   UNL     1       2.272  -7.360   5.407  0.00  0.00    -0.275 OA
ATOM     16  H   UNL     1       2.970  -2.329   5.260  0.00  0.00    +0.160 HD
ENDROOT
BRANCH   7  17
ATOM     17  C   UNL     1       0.429  -4.069   5.287  0.00  0.00    -0.025 A 
ATOM     18  C   UNL     1       0.263  -3.849   6.642  0.00  0.00    +0.008 A 
ATOM     19  C   UNL     1      -0.847  -3.164   7.100  0.00  0.00    +0.038 A 
ATOM     20  C   UNL     1      -1.791  -2.697   6.202  0.00  0.00    +0.123 A 
ATOM     21  C   UNL     1      -1.623  -2.919   4.845  0.00  0.00    +0.038 A 
ATOM     22  C   UNL     1      -0.511  -3.600   4.389  0.00  0.00    +0.008 A 
ATOM     23  F   UNL     1      -2.876  -2.027   6.648  0.00  0.00    -0.205 F 
ENDBRANCH   7  17
BRANCH   1  25
ATOM     24  C   UNL     1       0.424   1.840   0.459  0.00  0.00    +0.277 C 
ATOM     25  O   UNL     1       0.399   0.417   0.336  0.00  0.00    -0.495 OA
ENDBRANCH   1  25
BRANCH  14  26
ATOM     26  C   UNL     1       1.159  -8.436   3.626  0.00  0.00    +0.165 C 
BRANCH  26  27
ATOM     27  S   UNL     1       1.816  -9.933   4.411  0.00  0.00    -0.147 S 
BRANCH  27  28
ATOM     28  C   UNL     1       1.217 -11.281   3.355  0.00  0.00    +0.104 C 
BRANCH  28  29
ATOM     29  C   UNL     1       1.698 -12.600   3.903  0.00  0.00    -0.037 A 
ATOM     30  C   UNL     1       2.912 -13.118   3.488  0.00  0.00    +0.007 A 
ATOM     31  C   UNL     1       3.355 -14.327   3.990  0.00  0.00    +0.038 A 
ATOM     32  C   UNL     1       2.583 -15.020   4.908  0.00  0.00    +0.123 A 
ATOM     33  C   UNL     1       1.368 -14.500   5.322  0.00  0.00    +0.038 A 
ATOM     34  C   UNL     1       0.930 -13.288   4.823  0.00  0.00    +0.007 A 
ATOM     35  F   UNL     1       3.015 -16.202   5.398  0.00  0.00    -0.205 F 
ENDBRANCH  28  29
ENDBRANCH  27  28
ENDBRANCH  26  27
ENDBRANCH  14  26
TORSDOF 6
