REMARK  Name = ZINC65370235
REMARK  6 active torsions:
REMARK  status: ('A' for Active; 'I' for Inactive)
REMARK    1  A    between atoms: C_4  and  C_7
REMARK    2  A    between atoms: C_9  and  C_23
REMARK    3  A    between atoms: N_11  and  C_14
REMARK    4  A    between atoms: C_14  and  C_15
REMARK    5  A    between atoms: C_15  and  S_16
REMARK    6  A    between atoms: S_16  and  C_17
REMARK                            x       y       z     vdW  Elec       q    Type
REMARK                         _______ _______ _______ _____ _____    ______ ____
ROOT
ATOM      1  C   UNL     1       3.711  -0.707  -0.038  0.00  0.00    +0.110 C 
ATOM      2  C   UNL     1       4.024  -1.204  -1.462  0.00  0.00    +0.143 C 
ATOM      3  N   UNL     1       4.103  -2.681  -1.361  0.00  0.00    -0.278 NA
ATOM      4  C   UNL     1       4.428  -2.938   0.066  0.00  0.00    +0.169 C 
ATOM      5  N   UNL     1       3.628  -1.925   0.803  0.00  0.00    -0.295 NA
ATOM      6  H   UNL     1       4.012  -1.758   1.721  0.00  0.00    +0.124 HD
ENDROOT
BRANCH   2   7
ATOM      7  C   UNL     1       2.922  -0.803  -2.408  0.00  0.00    +0.104 A 
ATOM      8  N   UNL     1       1.841  -1.517  -2.678  0.00  0.00    -0.349 N 
ATOM      9  C   UNL     1       1.092  -0.830  -3.565  0.00  0.00    +0.101 A 
ATOM     10  C   UNL     1       1.740   0.322  -3.832  0.00  0.00    +0.101 A 
ATOM     11  N   UNL     1       2.873   0.324  -3.099  0.00  0.00    -0.349 N 
ATOM     12  H   UNL     1       3.539   1.030  -3.085  0.00  0.00    +0.166 HD
ATOM     13  H   UNL     1       1.625  -2.385  -2.303  0.00  0.00    +0.166 HD
ENDBRANCH   2   7
BRANCH   1  17
ATOM     14  C   UNL     1      -0.017   1.378   0.010  0.00  0.00    +0.000 A 
ATOM     15  C   UNL     1       1.171   2.086   0.002  0.00  0.00    +0.000 A 
ATOM     16  C   UNL     1       2.377   1.411  -0.013  0.00  0.00    +0.005 A 
ATOM     17  C   UNL     1       2.396   0.029  -0.020  0.00  0.00    -0.029 A 
ATOM     18  C   UNL     1       1.208  -0.679  -0.012  0.00  0.00    +0.005 A 
ATOM     19  C   UNL     1       0.002  -0.004   0.002  0.00  0.00    +0.000 A 
ENDBRANCH   1  17
BRANCH   3  20
ATOM     20  C   UNL     1       5.149  -3.214  -2.244  0.00  0.00    +0.097 C 
BRANCH  20  21
ATOM     21  C   UNL     1       5.037  -4.739  -2.304  0.00  0.00    +0.091 C 
BRANCH  21  22
ATOM     22  S   UNL     1       6.328  -5.397  -3.395  0.00  0.00    -0.105 S 
BRANCH  22  23
ATOM     23  C   UNL     1       6.069  -7.140  -3.359  0.00  0.00    +0.097 A 
ATOM     24  C   UNL     1       6.902  -7.976  -4.096  0.00  0.00    +0.035 A 
ATOM     25  C   UNL     1       6.687  -9.342  -4.059  0.00  0.00    +0.004 A 
ATOM     26  C   UNL     1       5.641  -9.828  -3.284  0.00  0.00    +0.020 A 
ATOM     27  C   UNL     1       4.854  -8.940  -2.578  0.00  0.00    +0.112 A 
ATOM     28  N   UNL     1       5.085  -7.642  -2.627  0.00  0.00    -0.249 NA
ENDBRANCH  22  23
ENDBRANCH  21  22
ENDBRANCH  20  21
ENDBRANCH   3  20
TORSDOF 6
