REMARK  Name = ZINC60511567
REMARK  9 active torsions:
REMARK  status: ('A' for Active; 'I' for Inactive)
REMARK    1  A    between atoms: C_1  and  C_2
REMARK    2  A    between atoms: C_4  and  C_24
REMARK    3  A    between atoms: C_6  and  N_8
REMARK    4  A    between atoms: C_9  and  S_11
REMARK    5  A    between atoms: S_11  and  C_12
REMARK    6  A    between atoms: C_12  and  C_13
REMARK    7  A    between atoms: C_17  and  C_19
REMARK    8  A    between atoms: N_21  and  C_22
REMARK    9  A    between atoms: N_21  and  C_23
REMARK                            x       y       z     vdW  Elec       q    Type
REMARK                         _______ _______ _______ _____ _____    ______ ____
ROOT
ATOM      1  N   UNL     1      -0.172  -4.028   2.493  0.00  0.00    -0.296 N 
ATOM      2  C   UNL     1      -0.324  -3.210   3.591  0.00  0.00    +0.130 C 
ATOM      3  N   UNL     1      -0.577  -1.941   3.428  0.00  0.00    -0.381 N 
ATOM      4  H   UNL     1      -0.608  -1.350   4.196  0.00  0.00    +0.158 HD
ATOM      5  H   UNL     1      -0.735  -1.588   2.538  0.00  0.00    +0.158 HD
ATOM      6  H   UNL     1       0.158  -3.663   1.658  0.00  0.00    +0.154 HD
ENDROOT
BRANCH   1  12
ATOM      7  C   UNL     1       0.520  -8.651   0.969  0.00  0.00    +0.044 C 
ATOM      8  C   UNL     1      -0.173  -7.649   1.856  0.00  0.00    -0.048 A 
ATOM      9  C   UNL     1      -1.128  -8.074   2.762  0.00  0.00    +0.006 A 
ATOM     10  C   UNL     1      -1.766  -7.158   3.579  0.00  0.00    -0.048 A 
ATOM     11  C   UNL     1      -1.451  -5.816   3.492  0.00  0.00    +0.026 A 
ATOM     12  C   UNL     1      -0.493  -5.387   2.584  0.00  0.00    +0.033 A 
ATOM     13  C   UNL     1       0.150  -6.309   1.768  0.00  0.00    +0.026 A 
ATOM     14  C   UNL     1      -2.806  -7.625   4.564  0.00  0.00    +0.044 C 
ENDBRANCH   1  12
BRANCH   2  15
ATOM     15  S   UNL     1      -0.178  -3.878   5.215  0.00  0.00    -0.088 S 
BRANCH  15  16
ATOM     16  C   UNL     1      -0.451  -2.452   6.302  0.00  0.00    +0.112 C 
BRANCH  16  17
ATOM     17  C   UNL     1      -0.351  -2.890   7.740  0.00  0.00    -0.036 A 
ATOM     18  C   UNL     1      -1.481  -3.330   8.408  0.00  0.00    +0.004 A 
ATOM     19  C   UNL     1      -1.398  -3.735   9.728  0.00  0.00    +0.001 A 
ATOM     20  C   UNL     1      -0.187  -3.702  10.388  0.00  0.00    +0.013 A 
ATOM     21  C   UNL     1       0.956  -3.260   9.721  0.00  0.00    +0.037 A 
ATOM     22  C   UNL     1       0.867  -2.858   8.387  0.00  0.00    +0.017 A 
BRANCH  21  23
ATOM     23  C   UNL     1       2.257  -3.222  10.422  0.00  0.00    +0.246 C 
ATOM     24  O   UNL     1       3.274  -3.535   9.834  0.00  0.00    -0.270 OA
ATOM     25  N   UNL     1       2.316  -2.840  11.713  0.00  0.00    -0.304 N 
ATOM     26  C   UNL     1       3.614  -2.700  12.377  0.00  0.00    +0.132 C 
ATOM     27  C   UNL     1       1.081  -2.566  12.453  0.00  0.00    +0.132 C 
ENDBRANCH  21  23
ENDBRANCH  16  17
ENDBRANCH  15  16
ENDBRANCH   2  15
TORSDOF 5
