REMARK  Name = ZINC40780444
REMARK  4 active torsions:
REMARK  status: ('A' for Active; 'I' for Inactive)
REMARK    1  A    between atoms: C_1  and  C_2
REMARK    2  A    between atoms: N_8  and  C_26
REMARK    3  A    between atoms: C_11  and  C_13
REMARK    4  A    between atoms: C_11  and  C_14
REMARK                            x       y       z     vdW  Elec       q    Type
REMARK                         _______ _______ _______ _____ _____    ______ ____
ROOT
ATOM      1  C   UNL     1      -0.243   1.551   0.621  0.00  0.00    +0.044 C 
ATOM      2  C   UNL     1      -0.228   0.048   0.510  0.00  0.00    -0.048 A 
ATOM      3  C   UNL     1      -0.505  -0.556  -0.703  0.00  0.00    +0.007 A 
ATOM      4  C   UNL     1      -0.499  -1.935  -0.811  0.00  0.00    +0.048 A 
ATOM      5  C   UNL     1      -0.212  -2.713   0.298  0.00  0.00    +0.144 A 
ATOM      6  C   UNL     1       0.077  -2.104   1.517  0.00  0.00    +0.078 A 
ATOM      7  C   UNL     1       0.067  -0.722   1.619  0.00  0.00    +0.030 A 
ATOM      8  N   UNL     1       0.401  -2.898   2.626  0.00  0.00    -0.268 N 
ATOM      9  C   UNL     1       0.639  -4.214   2.446  0.00  0.00    +0.273 C 
ATOM     10  O   UNL     1       0.812  -4.938   3.404  0.00  0.00    -0.270 OA
ATOM     11  C   UNL     1       0.689  -4.782   1.050  0.00  0.00    +0.258 C 
ATOM     12  O   UNL     1      -0.221  -4.070   0.208  0.00  0.00    -0.465 OA
ATOM     13  C   UNL     1       2.109  -4.646   0.496  0.00  0.00    +0.076 C 
ATOM     14  C   UNL     1       0.479  -2.306   3.963  0.00  0.00    +0.138 C 
ENDROOT
BRANCH  11  15
ATOM     15  C   UNL     1       0.304  -6.238   1.087  0.00  0.00    +0.269 C 
ATOM     16  O   UNL     1       0.308  -6.840   2.140  0.00  0.00    -0.271 OA
ATOM     17  N   UNL     1      -0.046  -6.872  -0.050  0.00  0.00    -0.293 N 
ATOM     18  C   UNL     1       0.064  -6.210  -1.360  0.00  0.00    +0.113 C 
ATOM     19  C   UNL     1       1.102  -6.970  -2.185  0.00  0.00    +0.054 C 
ATOM     20  C   UNL     1       0.852  -8.454  -2.125  0.00  0.00    -0.041 A 
ATOM     21  C   UNL     1       1.408  -9.242  -3.125  0.00  0.00    +0.004 A 
ATOM     22  C   UNL     1       1.225 -10.610  -3.124  0.00  0.00    +0.000 A 
ATOM     23  C   UNL     1       0.484 -11.203  -2.119  0.00  0.00    +0.000 A 
ATOM     24  C   UNL     1      -0.072 -10.423  -1.127  0.00  0.00    +0.005 A 
ATOM     25  C   UNL     1       0.106  -9.046  -1.130  0.00  0.00    -0.027 A 
ATOM     26  C   UNL     1      -0.546  -8.251  -0.032  0.00  0.00    +0.143 C 
ENDBRANCH  11  15
TORSDOF 1
