REMARK  Name = ZINC62892402
REMARK  7 active torsions:
REMARK  status: ('A' for Active; 'I' for Inactive)
REMARK    1  A    between atoms: C_1  and  C_2
REMARK    2  A    between atoms: C_2  and  C_3
REMARK    3  A    between atoms: C_3  and  C_4
REMARK    4  A    between atoms: C_4  and  C_9
REMARK    5  A    between atoms: N_11  and  C_12
REMARK    6  A    between atoms: C_17  and  O_18
REMARK    7  A    between atoms: O_18  and  C_19
REMARK                            x       y       z     vdW  Elec       q    Type
REMARK                         _______ _______ _______ _____ _____    ______ ____
ROOT
ATOM      1  C   UNL     1      -0.912  -2.002  -1.397  0.00  0.00    +0.222 C 
ATOM      2  O   UNL     1      -1.387  -2.407  -2.437  0.00  0.00    -0.275 OA
ATOM      3  N   UNL     1      -1.664  -1.976  -0.279  0.00  0.00    -0.282 N 
ATOM      4  H   UNL     1      -1.263  -1.730   0.570  0.00  0.00    +0.155 HD
ENDROOT
BRANCH   3   5
ATOM      5  C   UNL     1      -3.024  -2.305  -0.341  0.00  0.00    +0.078 A 
ATOM      6  C   UNL     1      -3.477  -3.219  -1.282  0.00  0.00    +0.047 A 
ATOM      7  C   UNL     1      -4.820  -3.541  -1.342  0.00  0.00    +0.044 A 
ATOM      8  C   UNL     1      -5.716  -2.954  -0.466  0.00  0.00    +0.039 A 
ATOM      9  C   UNL     1      -5.271  -2.042   0.474  0.00  0.00    +0.063 A 
ATOM     10  C   UNL     1      -3.925  -1.719   0.544  0.00  0.00    +0.155 A 
ATOM     11 BR   UNL     1      -6.499  -1.243   1.670  0.00  0.00    -0.046 Br
ATOM     12 CL   UNL     1      -5.384  -4.684  -2.521  0.00  0.00    -0.083 Cl
BRANCH  10  13
ATOM     13  O   UNL     1      -3.486  -0.826   1.472  0.00  0.00    -0.492 OA
ATOM     14  C   UNL     1      -3.468   0.551   1.091  0.00  0.00    +0.277 C 
ENDBRANCH  10  13
ENDBRANCH   3   5
BRANCH   1  15
ATOM     15  C   UNL     1       0.518  -1.528  -1.355  0.00  0.00    +0.031 C 
ATOM     16  C   UNL     1       1.317  -2.320  -0.294  0.00  0.00    -0.005 C 
ATOM     17  C   UNL     1       2.015  -3.418  -1.135  0.00  0.00    -0.082 C 
ATOM     18  N   UNL     1       2.366  -2.712  -2.393  0.00  0.00    +0.380 N 
ATOM     19  C   UNL     1       1.220  -1.827  -2.693  0.00  0.00    -0.067 C 
ATOM     20  H   UNL     1       3.204  -2.164  -2.262  0.00  0.00    -0.086 HD
ATOM     21  H   UNL     1       2.498  -3.376  -3.141  0.00  0.00    -0.086 HD
BRANCH  15  22
ATOM     22  C   UNL     1       0.571  -0.030  -1.051  0.00  0.00    +0.014 C 
BRANCH  22  24
ATOM     23  C   UNL     1      -0.102   2.240  -1.851  0.00  0.00    +0.004 C 
ATOM     24  C   UNL     1      -0.153   0.741  -2.156  0.00  0.00    -0.002 C 
ENDBRANCH  22  24
ENDBRANCH  15  22
ENDBRANCH   1  15
TORSDOF 5
