REMARK  Name = ZINC04236799
REMARK  16 active torsions:
REMARK  status: ('A' for Active; 'I' for Inactive)
REMARK    1  A    between atoms: C_1  and  C_2
REMARK    2  A    between atoms: C_5  and  O_30
REMARK    3  A    between atoms: C_7  and  C_27
REMARK    4  A    between atoms: C_7  and  C_28
REMARK    5  A    between atoms: C_12  and  O_26
REMARK    6  A    between atoms: C_14  and  C_16
REMARK    7  A    between atoms: C_16  and  C_17
REMARK    8  A    between atoms: N_19  and  C_20
REMARK    9  A    between atoms: C_20  and  C_21
REMARK   10  A    between atoms: C_28  and  O_29
REMARK   11  A    between atoms: O_30  and  C_31
REMARK   12  A    between atoms: N_33  and  C_34
REMARK   13  A    between atoms: C_36  and  O_42
REMARK   14  A    between atoms: C_38  and  O_40
REMARK   15  A    between atoms: O_40  and  C_41
REMARK   16  A    between atoms: O_42  and  C_43
REMARK                            x       y       z     vdW  Elec       q    Type
REMARK                         _______ _______ _______ _____ _____    ______ ____
ROOT
ATOM      1  C   UNL     1       0.990   2.614  -1.822  0.00  0.00    +0.012 C 
ATOM      2  C   UNL     1      -0.279   1.924  -1.317  0.00  0.00    -0.023 C 
ATOM      3  C   UNL     1       0.092   0.589  -0.668  0.00  0.00    +0.011 C 
ATOM      4  C   UNL     1       1.039   0.838   0.507  0.00  0.00    +0.046 C 
ATOM      5  C   UNL     1       0.347   1.732   1.539  0.00  0.00    +0.186 C 
ATOM      6  C   UNL     1      -0.023   3.067   0.889  0.00  0.00    +0.031 C 
ATOM      7  C   UNL     1      -0.970   2.818  -0.286  0.00  0.00    +0.007 C 
ATOM      8  C   UNL     1      -2.239   2.127   0.219  0.00  0.00    +0.007 C 
ATOM      9  C   UNL     1      -3.186   1.877  -0.956  0.00  0.00    +0.032 C 
ATOM     10  C   UNL     1      -2.494   0.983  -1.987  0.00  0.00    +0.119 C 
ATOM     11  C   UNL     1      -1.226   1.674  -2.492  0.00  0.00    +0.032 C 
ATOM     12  C   UNL     1      -0.714   3.961   1.921  0.00  0.00    +0.017 C 
ENDROOT
BRANCH  10  13
ATOM     13  O   UNL     1      -3.379   0.750  -3.085  0.00  0.00    -0.391 OA
ATOM     14  H   UNL     1      -4.206   0.314  -2.838  0.00  0.00    +0.210 HD
ENDBRANCH  10  13
BRANCH  11  15
ATOM     15  C   UNL     1      -1.596   3.009  -3.141  0.00  0.00    +0.102 C 
BRANCH  15  16
ATOM     16  C   UNL     1      -2.305   2.753  -4.446  0.00  0.00    +0.214 C 
ATOM     17  O   UNL     1      -2.337   1.633  -4.910  0.00  0.00    -0.276 OA
ATOM     18  N   UNL     1      -2.905   3.770  -5.098  0.00  0.00    -0.308 N 
ATOM     19  H   UNL     1      -2.879   4.666  -4.727  0.00  0.00    +0.149 HD
BRANCH  18  20
ATOM     20  C   UNL     1      -3.594   3.521  -6.367  0.00  0.00    +0.178 C 
BRANCH  20  21
ATOM     21  C   UNL     1      -4.173   4.812  -6.885  0.00  0.00    +0.122 A 
ATOM     22  C   UNL     1      -3.550   5.685  -7.697  0.00  0.00    +0.046 A 
ATOM     23  C   UNL     1      -4.454   6.747  -7.928  0.00  0.00    +0.041 A 
ATOM     24  C   UNL     1      -5.576   6.460  -7.244  0.00  0.00    +0.195 A 
ATOM     25  O   UNL     1      -5.402   5.285  -6.618  0.00  0.00    -0.466 OA
ENDBRANCH  20  21
ENDBRANCH  18  20
ENDBRANCH  15  16
ENDBRANCH  11  15
BRANCH   6  26
ATOM     26  C   UNL     1       1.245   3.758   0.384  0.00  0.00    +0.166 C 
BRANCH  26  27
ATOM     27  O   UNL     1       2.048   4.154   1.498  0.00  0.00    -0.394 OA
ATOM     28  H   UNL     1       2.870   4.599   1.252  0.00  0.00    +0.209 HD
ENDBRANCH  26  27
ENDBRANCH   6  26
BRANCH   5  29
ATOM     29  O   UNL     1       1.246   1.969   2.654  0.00  0.00    -0.446 OA
BRANCH  29  30
ATOM     30  C   UNL     1       1.194   1.096   3.678  0.00  0.00    +0.405 C 
ATOM     31  O   UNL     1       0.418   0.162   3.640  0.00  0.00    -0.226 OA
ATOM     32  N   UNL     1       2.002   1.259   4.744  0.00  0.00    -0.251 N 
ATOM     33  H   UNL     1       2.575   2.038   4.804  0.00  0.00    +0.158 HD
BRANCH  32  34
ATOM     34  C   UNL     1       2.013   0.302   5.766  0.00  0.00    +0.043 A 
ATOM     35  C   UNL     1       0.830  -0.311   6.156  0.00  0.00    +0.069 A 
ATOM     36  C   UNL     1       0.843  -1.262   7.164  0.00  0.00    +0.125 A 
ATOM     37  C   UNL     1       2.035  -1.594   7.790  0.00  0.00    +0.091 A 
ATOM     38  C   UNL     1       3.216  -0.977   7.405  0.00  0.00    +0.125 A 
ATOM     39  C   UNL     1       3.206  -0.030   6.393  0.00  0.00    +0.069 A 
BRANCH  38  40
ATOM     40  O   UNL     1       4.383  -1.302   8.020  0.00  0.00    -0.495 OA
ATOM     41  C   UNL     1       4.320  -2.286   9.054  0.00  0.00    +0.277 C 
ENDBRANCH  38  40
BRANCH  36  42
ATOM     42  O   UNL     1      -0.314  -1.867   7.542  0.00  0.00    -0.495 OA
ATOM     43  C   UNL     1      -0.229  -2.833   8.591  0.00  0.00    +0.277 C 
ENDBRANCH  36  42
ENDBRANCH  32  34
ENDBRANCH  29  30
ENDBRANCH   5  29
TORSDOF 12
