REMARK  Name = ZINC45247623
REMARK  9 active torsions:
REMARK  status: ('A' for Active; 'I' for Inactive)
REMARK    1  A    between atoms: C_1  and  C_2
REMARK    2  A    between atoms: C_2  and  C_4
REMARK    3  A    between atoms: C_2  and  N_11
REMARK    4  A    between atoms: C_12  and  C_14
REMARK    5  A    between atoms: C_14  and  C_16
REMARK    6  A    between atoms: C_14  and  O_17
REMARK    7  A    between atoms: O_17  and  C_18
REMARK    8  A    between atoms: C_18  and  C_20
REMARK    9  A    between atoms: C_25  and  N_26
REMARK                            x       y       z     vdW  Elec       q    Type
REMARK                         _______ _______ _______ _____ _____    ______ ____
ROOT
ATOM      1  C   UNL     1      -0.937  -2.482  -6.657  0.00  0.00    +0.080 A 
ATOM      2  C   UNL     1      -2.142  -1.782  -6.712  0.00  0.00    +0.017 A 
ATOM      3  C   UNL     1      -3.000  -1.947  -7.783  0.00  0.00    +0.013 A 
ATOM      4  C   UNL     1      -2.672  -2.815  -8.821  0.00  0.00    +0.035 A 
ATOM      5  C   UNL     1      -1.462  -3.530  -8.783  0.00  0.00    +0.054 A 
ATOM      6  C   UNL     1      -0.587  -3.360  -7.700  0.00  0.00    +0.050 A 
ATOM      7  C   UNL     1      -1.112  -4.450  -9.878  0.00  0.00    +0.196 C 
ATOM      8  O   UNL     1      -0.065  -5.067  -9.843  0.00  0.00    -0.287 OA
ATOM      9  C   UNL     1      -2.034  -4.623 -11.021  0.00  0.00    +0.033 A 
ATOM     10  C   UNL     1      -1.710  -5.492 -12.058  0.00  0.00    +0.012 A 
ATOM     11  C   UNL     1      -2.579  -5.649 -13.124  0.00  0.00    +0.001 A 
ATOM     12  C   UNL     1      -3.770  -4.947 -13.165  0.00  0.00    +0.001 A 
ATOM     13  C   UNL     1      -4.108  -4.079 -12.142  0.00  0.00    +0.012 A 
ATOM     14  C   UNL     1      -3.245  -3.910 -11.062  0.00  0.00    +0.033 A 
ATOM     15  C   UNL     1      -3.597  -2.987  -9.964  0.00  0.00    +0.195 C 
ATOM     16  O   UNL     1      -4.643  -2.370  -9.999  0.00  0.00    -0.287 OA
ENDROOT
BRANCH   6  17
ATOM     17  N   UNL     1       0.605  -4.052  -7.655  0.00  0.00    -0.357 N 
ATOM     18  H   UNL     1       0.974  -4.327  -6.801  0.00  0.00    +0.142 HD
ATOM     19  H   UNL     1       1.075  -4.263  -8.477  0.00  0.00    +0.142 HD
ENDBRANCH   6  17
BRANCH   1  20
ATOM     20  C   UNL     1      -0.028  -2.299  -5.510  0.00  0.00    +0.342 C 
ATOM     21  O   UNL     1       1.004  -2.937  -5.446  0.00  0.00    -0.245 OA
BRANCH  20  22
ATOM     22  O   UNL     1      -0.343  -1.425  -4.534  0.00  0.00    -0.449 OA
BRANCH  22  23
ATOM     23  C   UNL     1       0.584  -1.299  -3.454  0.00  0.00    +0.259 C 
ATOM     24  C   UNL     1       1.605  -0.208  -3.782  0.00  0.00    +0.062 C 
BRANCH  23  26
ATOM     25  N   UNL     1       0.499  -0.855  -1.022  0.00  0.00    -0.306 N 
ATOM     26  C   UNL     1      -0.159  -0.929  -2.196  0.00  0.00    +0.254 C 
ATOM     27  O   UNL     1      -1.349  -0.699  -2.240  0.00  0.00    -0.272 OA
ATOM     28  H   UNL     1       1.451  -1.038  -0.987  0.00  0.00    +0.149 HD
BRANCH  25  30
ATOM     29  C   UNL     1      -0.304   1.028   0.317  0.00  0.00    +0.033 C 
ATOM     30  C   UNL     1      -0.224  -0.495   0.201  0.00  0.00    +0.100 C 
BRANCH  30  31
ATOM     31  C   UNL     1       0.505  -1.052   1.397  0.00  0.00    -0.027 A 
ATOM     32  C   UNL     1       1.886  -1.011   1.445  0.00  0.00    +0.008 A 
ATOM     33  C   UNL     1       2.556  -1.521   2.541  0.00  0.00    +0.038 A 
ATOM     34  C   UNL     1       1.843  -2.073   3.592  0.00  0.00    +0.123 A 
ATOM     35  C   UNL     1       0.460  -2.113   3.543  0.00  0.00    +0.038 A 
ATOM     36  C   UNL     1      -0.208  -1.598   2.448  0.00  0.00    +0.008 A 
ATOM     37  F   UNL     1       2.496  -2.572   4.664  0.00  0.00    -0.205 F 
ENDBRANCH  30  31
ENDBRANCH  25  30
ENDBRANCH  23  26
ENDBRANCH  22  23
ENDBRANCH  20  22
ENDBRANCH   1  20
TORSDOF 7
