REMARK  Name = ZINC08676823
REMARK  11 active torsions:
REMARK  status: ('A' for Active; 'I' for Inactive)
REMARK    1  A    between atoms: C_1  and  C_2
REMARK    2  A    between atoms: C_6  and  C_8
REMARK    3  A    between atoms: N_10  and  C_11
REMARK    4  A    between atoms: C_11  and  C_13
REMARK    5  A    between atoms: C_11  and  N_17
REMARK    6  A    between atoms: N_17  and  C_18
REMARK    7  A    between atoms: C_18  and  N_19
REMARK    8  A    between atoms: N_19  and  C_20
REMARK    9  A    between atoms: C_23  and  O_29
REMARK   10  A    between atoms: C_25  and  N_26
REMARK   11  A    between atoms: O_29  and  C_30
REMARK                            x       y       z     vdW  Elec       q    Type
REMARK                         _______ _______ _______ _____ _____    ______ ____
ROOT
ATOM      1  N   UNL     1       1.699  -5.585   3.665  0.00  0.00    -0.305 N 
ATOM      2  H   UNL     1       2.148  -6.120   2.993  0.00  0.00    +0.150 HD
ENDROOT
BRANCH   1   3
ATOM      3  C   UNL     1       2.397  -5.084   4.704  0.00  0.00    +0.136 C 
ATOM      4  S   UNL     1       1.605  -4.138   5.891  0.00  0.00    -0.019 S 
BRANCH   3   5
ATOM      5  N   UNL     1       3.718  -5.327   4.808  0.00  0.00    -0.295 N 
ATOM      6  H   UNL     1       4.151  -5.930   4.183  0.00  0.00    +0.154 HD
BRANCH   5   7
ATOM      7  C   UNL     1       4.467  -4.709   5.818  0.00  0.00    +0.063 A 
ATOM      8  C   UNL     1       4.318  -3.350   6.060  0.00  0.00    +0.029 A 
ATOM      9  C   UNL     1       5.057  -2.741   7.055  0.00  0.00    +0.047 A 
ATOM     10  C   UNL     1       5.947  -3.487   7.813  0.00  0.00    +0.122 A 
ATOM     11  C   UNL     1       6.097  -4.845   7.572  0.00  0.00    +0.080 A 
ATOM     12  C   UNL     1       5.354  -5.456   6.580  0.00  0.00    +0.151 A 
BRANCH  12  13
ATOM     13  N   UNL     1       5.509  -6.906   6.327  0.00  0.00    +0.058 N 
ATOM     14  O   UNL     1       6.330  -7.543   6.944  0.00  0.00    -0.126 OA
ATOM     15  O   UNL     1       4.813  -7.454   5.504  0.00  0.00    -0.126 OA
ENDBRANCH  12  13
BRANCH  10  16
ATOM     16  O   UNL     1       6.675  -2.887   8.793  0.00  0.00    -0.495 OA
ATOM     17  C   UNL     1       6.471  -1.486   8.987  0.00  0.00    +0.277 C 
ENDBRANCH  10  16
ENDBRANCH   5   7
ENDBRANCH   3   5
ENDBRANCH   1   3
BRANCH   1  18
ATOM     18  C   UNL     1       0.262  -5.320   3.553  0.00  0.00    +0.211 C 
BRANCH  18  21
ATOM     19  C   UNL     1      -0.282  -3.053   2.844  0.00  0.00    +0.246 C 
ATOM     20  O   UNL     1      -0.372  -2.740   4.015  0.00  0.00    -0.270 OA
ATOM     21  N   UNL     1       0.030  -4.320   2.507  0.00  0.00    -0.290 N 
ATOM     22  H   UNL     1       0.102  -4.570   1.573  0.00  0.00    +0.151 HD
BRANCH  19  28
ATOM     23  C   UNL     1      -1.409   1.623   1.517  0.00  0.00    +0.044 C 
ATOM     24  C   UNL     1      -1.058   0.205   1.146  0.00  0.00    -0.050 A 
ATOM     25  C   UNL     1      -0.956  -0.154  -0.187  0.00  0.00    +0.003 A 
ATOM     26  C   UNL     1      -0.634  -1.454  -0.536  0.00  0.00    +0.001 A 
ATOM     27  C   UNL     1      -0.414  -2.400   0.444  0.00  0.00    +0.013 A 
ATOM     28  C   UNL     1      -0.516  -2.044   1.789  0.00  0.00    +0.037 A 
ATOM     29  C   UNL     1      -0.836  -0.730   2.135  0.00  0.00    +0.016 A 
ENDBRANCH  19  28
ENDBRANCH  18  21
BRANCH  18  30
ATOM     30  C   UNL     1      -0.468  -6.615   3.191  0.00  0.00    +0.225 C 
ATOM     31 CL   UNL     1       0.154  -7.236   1.616  0.00  0.00    -0.080 Cl
ATOM     32 CL   UNL     1      -0.182  -7.846   4.477  0.00  0.00    -0.080 Cl
ATOM     33 CL   UNL     1      -2.236  -6.290   3.052  0.00  0.00    -0.080 Cl
ENDBRANCH  18  30
ENDBRANCH   1  18
TORSDOF 9
