REMARK  Name = ZINC08427239
REMARK  9 active torsions:
REMARK  status: ('A' for Active; 'I' for Inactive)
REMARK    1  A    between atoms: C_1  and  C_2
REMARK    2  A    between atoms: N_9  and  N_10
REMARK    3  A    between atoms: C_11  and  C_13
REMARK    4  A    between atoms: C_13  and  N_24
REMARK    5  A    between atoms: C_14  and  C_15
REMARK    6  A    between atoms: C_18  and  N_21
REMARK    7  A    between atoms: N_21  and  C_22
REMARK    8  A    between atoms: N_21  and  C_23
REMARK    9  A    between atoms: C_25  and  C_27
REMARK                            x       y       z     vdW  Elec       q    Type
REMARK                         _______ _______ _______ _____ _____    ______ ____
ROOT
ATOM      1  C   UNL     1       0.203  -0.232   5.810  0.00  0.00    +0.098 C 
ATOM      2  C   UNL     1       0.480   0.049   7.107  0.00  0.00    +0.036 C 
ENDROOT
BRANCH   2   3
ATOM      3  C   UNL     1       0.607   1.444   7.546  0.00  0.00    -0.023 A 
ATOM      4  C   UNL     1       0.326   1.791   8.873  0.00  0.00    +0.010 A 
ATOM      5  C   UNL     1       0.446   3.100   9.280  0.00  0.00    +0.023 A 
ATOM      6  C   UNL     1       0.846   4.079   8.374  0.00  0.00    +0.029 A 
ATOM      7  C   UNL     1       1.125   3.739   7.054  0.00  0.00    +0.023 A 
ATOM      8  C   UNL     1       1.013   2.431   6.639  0.00  0.00    +0.010 A 
BRANCH   6   9
ATOM      9  N   UNL     1       0.966   5.402   8.790  0.00  0.00    -0.336 N 
ATOM     10  C   UNL     1       0.800   5.743  10.206  0.00  0.00    +0.129 C 
ATOM     11  C   UNL     1       1.258   6.454   7.813  0.00  0.00    +0.129 C 
ENDBRANCH   6   9
ENDBRANCH   2   3
BRANCH   1  13
ATOM     12  N   UNL     1      -0.043  -1.898   4.048  0.00  0.00    -0.201 N 
ATOM     13  C   UNL     1       0.233  -1.619   5.337  0.00  0.00    +0.277 C 
ATOM     14  O   UNL     1       0.507  -2.519   6.109  0.00  0.00    -0.267 OA
ATOM     15  H   UNL     1      -0.261  -1.181   3.432  0.00  0.00    +0.178 HD
BRANCH  12  24
ATOM     16  C   UNL     1      -2.331   0.790   0.347  0.00  0.00    +0.044 C 
ATOM     17  C   UNL     1      -1.942  -0.665   0.312  0.00  0.00    -0.050 A 
ATOM     18  C   UNL     1      -2.161  -1.412  -0.834  0.00  0.00    +0.005 A 
ATOM     19  C   UNL     1      -1.809  -2.746  -0.881  0.00  0.00    +0.024 A 
ATOM     20  C   UNL     1      -1.229  -3.355   0.227  0.00  0.00    +0.043 A 
ATOM     21  C   UNL     1      -1.010  -2.595   1.384  0.00  0.00    +0.028 A 
ATOM     22  C   UNL     1      -1.362  -1.251   1.419  0.00  0.00    +0.015 A 
ATOM     23  C   UNL     1      -0.390  -3.508   2.372  0.00  0.00    +0.153 C 
ATOM     24  N   UNL     1      -0.014  -3.224   3.596  0.00  0.00    -0.174 NA
ATOM     25  C   UNL     1      -0.288  -4.808   1.679  0.00  0.00    +0.269 C 
ATOM     26  O   UNL     1       0.170  -5.834   2.145  0.00  0.00    -0.268 OA
ATOM     27  N   UNL     1      -0.789  -4.656   0.441  0.00  0.00    -0.280 N 
ATOM     28  H   UNL     1      -0.839  -5.365  -0.219  0.00  0.00    +0.155 HD
ENDBRANCH  12  24
ENDBRANCH   1  13
BRANCH   1  29
ATOM     29  N   UNL     1      -0.112   0.803   4.922  0.00  0.00    -0.277 N 
ATOM     30  C   UNL     1       0.649   1.008   3.829  0.00  0.00    +0.248 C 
ATOM     31  O   UNL     1       1.568   0.253   3.578  0.00  0.00    -0.270 OA
ATOM     32  H   UNL     1      -0.878   1.373   5.094  0.00  0.00    +0.155 HD
BRANCH  30  33
ATOM     33  C   UNL     1       0.364   2.150   2.934  0.00  0.00    +0.037 A 
ATOM     34  C   UNL     1      -0.644   3.059   3.257  0.00  0.00    +0.013 A 
ATOM     35  C   UNL     1      -0.904   4.123   2.418  0.00  0.00    +0.001 A 
ATOM     36  C   UNL     1      -0.168   4.289   1.258  0.00  0.00    +0.000 A 
ATOM     37  C   UNL     1       0.832   3.390   0.931  0.00  0.00    +0.001 A 
ATOM     38  C   UNL     1       1.107   2.326   1.765  0.00  0.00    +0.013 A 
ENDBRANCH  30  33
ENDBRANCH   1  29
TORSDOF 6
