REMARK  Name = ZINC64044444
REMARK  8 active torsions:
REMARK  status: ('A' for Active; 'I' for Inactive)
REMARK    1  A    between atoms: C_7  and  C_10
REMARK    2  A    between atoms: C_10  and  C_11
REMARK    3  A    between atoms: C_11  and  C_13
REMARK    4  A    between atoms: C_11  and  N_34
REMARK    5  A    between atoms: C_18  and  C_21
REMARK    6  A    between atoms: N_23  and  C_24
REMARK    7  A    between atoms: C_24  and  C_25
REMARK    8  A    between atoms: C_28  and  C_31
REMARK                            x       y       z     vdW  Elec       q    Type
REMARK                         _______ _______ _______ _____ _____    ______ ____
ROOT
ATOM      1  C   UNL     1      -0.385  -4.904  -1.452  0.00  0.00    +0.201 C 
ATOM      2  O   UNL     1      -1.574  -4.836  -1.679  0.00  0.00    -0.277 OA
ATOM      3  N   UNL     1       0.185  -6.097  -1.193  0.00  0.00    -0.303 N 
ATOM      4  C   UNL     1       1.623  -6.195  -0.910  0.00  0.00    +0.108 C 
ATOM      5  C   UNL     1       2.243  -7.226  -1.859  0.00  0.00    +0.032 C 
ATOM      6  C   UNL     1       1.487  -8.550  -1.731  0.00  0.00    +0.078 C 
ATOM      7  C   UNL     1       0.024  -8.344  -2.131  0.00  0.00    +0.032 C 
ATOM      8  C   UNL     1      -0.622  -7.325  -1.180  0.00  0.00    +0.108 C 
ENDROOT
BRANCH   6   9
ATOM      9  C   UNL     1       2.115  -9.576  -2.638  0.00  0.00    +0.216 C 
ATOM     10  O   UNL     1       3.074  -9.278  -3.319  0.00  0.00    -0.276 OA
ATOM     11  N   UNL     1       1.612 -10.826  -2.692  0.00  0.00    -0.315 N 
ATOM     12  H   UNL     1       0.846 -11.064  -2.147  0.00  0.00    +0.149 HD
BRANCH  11  13
ATOM     13  C   UNL     1       2.223 -11.824  -3.573  0.00  0.00    +0.107 C 
BRANCH  13  14
ATOM     14  C   UNL     1       1.467 -13.148  -3.446  0.00  0.00    +0.006 C 
ATOM     15  C   UNL     1       0.038 -12.971  -3.964  0.00  0.00    +0.006 C 
ATOM     16  C   UNL     1      -0.718 -14.295  -3.837  0.00  0.00    +0.015 C 
ATOM     17  C   UNL     1      -0.006 -15.370  -4.661  0.00  0.00    +0.102 C 
ATOM     18  C   UNL     1       1.423 -15.547  -4.143  0.00  0.00    +0.015 C 
ATOM     19  C   UNL     1       2.179 -14.223  -4.270  0.00  0.00    +0.006 C 
BRANCH  17  20
ATOM     20  C   UNL     1      -0.751 -16.674  -4.535  0.00  0.00    +0.359 C 
ATOM     21  O   UNL     1      -0.889 -17.393  -5.510  0.00  0.00    -0.246 OA
ATOM     22  O   UNL     1      -1.215 -17.010  -3.459  0.00  0.00    -0.246 OA
ENDBRANCH  17  20
ENDBRANCH  13  14
ENDBRANCH  11  13
ENDBRANCH   6   9
BRANCH   1  23
ATOM     23  C   UNL     1       0.457  -3.653  -1.462  0.00  0.00    +0.017 C 
BRANCH  23  24
ATOM     24  N   UNL     1      -0.240  -2.600  -2.212  0.00  0.00    +0.386 N 
ATOM     25  H   UNL     1       0.323  -1.763  -2.218  0.00  0.00    -0.089 HD
ATOM     26  H   UNL     1      -0.394  -2.909  -3.160  0.00  0.00    -0.089 HD
ATOM     27  H   UNL     1      -1.127  -2.405  -1.773  0.00  0.00    -0.089 HD
ENDBRANCH  23  24
BRANCH  23  28
ATOM     28  C   UNL     1       0.691  -3.186  -0.024  0.00  0.00    +0.026 C 
BRANCH  28  35
ATOM     29  C   UNL     1      -0.016   1.348   0.009  0.00  0.00    +0.001 A 
ATOM     30  C   UNL     1       1.166   2.101   0.002  0.00  0.00    +0.002 A 
ATOM     31  C   UNL     1       2.391   1.535  -0.013  0.00  0.00    +0.026 A 
ATOM     32  C   UNL     1       2.529   0.120  -0.022  0.00  0.00    +0.043 A 
ATOM     33  N   UNL     1       3.587  -0.654  -0.037  0.00  0.00    -0.380 N 
ATOM     34  C   UNL     1       3.143  -2.053  -0.041  0.00  0.00    +0.144 C 
ATOM     35  C   UNL     1       1.631  -2.008  -0.025  0.00  0.00    -0.043 C 
ATOM     36  C   UNL     1       1.295  -0.698  -0.014  0.00  0.00    -0.001 A 
ATOM     37  C   UNL     1       0.002  -0.004   0.002  0.00  0.00    +0.010 A 
ATOM     38  H   UNL     1       4.509  -0.353  -0.045  0.00  0.00    +0.160 HD
ENDBRANCH  28  35
ENDBRANCH  23  28
ENDBRANCH   1  23
TORSDOF 8
