REMARK  Name = ZINC10084081
REMARK  11 active torsions:
REMARK  status: ('A' for Active; 'I' for Inactive)
REMARK    1  A    between atoms: C_1  and  C_2
REMARK    2  A    between atoms: C_3  and  C_33
REMARK    3  A    between atoms: N_4  and  C_28
REMARK    4  A    between atoms: C_5  and  N_9
REMARK    5  A    between atoms: C_6  and  C_7
REMARK    6  A    between atoms: C_10  and  C_12
REMARK    7  A    between atoms: C_12  and  S_13
REMARK    8  A    between atoms: S_13  and  C_14
REMARK    9  A    between atoms: N_19  and  C_20
REMARK   10  A    between atoms: C_23  and  O_26
REMARK   11  A    between atoms: O_26  and  C_27
REMARK                            x       y       z     vdW  Elec       q    Type
REMARK                         _______ _______ _______ _____ _____    ______ ____
ROOT
ATOM      1  N   UNL     1      -1.464   0.109   2.354  0.00  0.00    -0.270 N 
ATOM      2  C   UNL     1      -1.192   1.046   1.425  0.00  0.00    +0.229 C 
ATOM      3  O   UNL     1      -1.578   2.186   1.581  0.00  0.00    -0.275 OA
ATOM      4  H   UNL     1      -1.130  -0.794   2.244  0.00  0.00    +0.156 HD
ENDROOT
BRANCH   1   9
ATOM      5  C   UNL     1      -5.189   1.687   5.383  0.00  0.00    +0.047 C 
ATOM      6  C   UNL     1      -3.884   1.142   4.864  0.00  0.00    -0.011 A 
ATOM      7  C   UNL     1      -2.841   0.722   5.598  0.00  0.00    +0.022 A 
ATOM      8  N   UNL     1      -1.841   0.298   4.764  0.00  0.00    -0.329 N 
ATOM      9  C   UNL     1      -2.223   0.437   3.468  0.00  0.00    +0.124 A 
ATOM     10  C   UNL     1      -3.504   0.971   3.456  0.00  0.00    +0.095 A 
ATOM     11  C   UNL     1      -2.780   0.718   7.104  0.00  0.00    +0.064 C 
BRANCH   8  12
ATOM     12  C   UNL     1      -0.548  -0.229   5.206  0.00  0.00    +0.089 C 
ATOM     13  C   UNL     1       0.598   0.615   4.611  0.00  0.00    +0.025 C 
ATOM     14  C   UNL     1       1.706  -0.420   4.292  0.00  0.00    +0.002 C 
ATOM     15  C   UNL     1       0.899  -1.641   3.785  0.00  0.00    +0.002 C 
ATOM     16  C   UNL     1      -0.356  -1.663   4.681  0.00  0.00    +0.025 C 
ENDBRANCH   8  12
BRANCH  10  17
ATOM     17  C   UNL     1      -4.294   1.288   2.305  0.00  0.00    +0.103 C 
ATOM     18  N   UNL     1      -4.922   1.540   1.392  0.00  0.00    -0.191 NA
ENDBRANCH  10  17
ENDBRANCH   1   9
BRANCH   2  19
ATOM     19  C   UNL     1      -0.408   0.679   0.191  0.00  0.00    +0.172 C 
BRANCH  19  20
ATOM     20  S   UNL     1      -0.348   2.102  -0.933  0.00  0.00    -0.088 S 
BRANCH  20  21
ATOM     21  C   UNL     1       0.589   1.520  -2.307  0.00  0.00    +0.160 A 
ATOM     22  N   UNL     1       1.134   0.335  -2.506  0.00  0.00    -0.133 NA
ATOM     23  N   UNL     1       1.833   0.089  -3.665  0.00  0.00    -0.125 NA
ATOM     24  C   UNL     1       1.955   1.038  -4.572  0.00  0.00    +0.187 A 
ATOM     25  S   UNL     1       1.049   2.374  -3.807  0.00  0.00    -0.024 S 
ATOM     26  N   UNL     1       2.610   1.007  -5.798  0.00  0.00    -0.292 N 
ATOM     27  H   UNL     1       2.646   1.804  -6.349  0.00  0.00    +0.154 HD
BRANCH  26  28
ATOM     28  C   UNL     1       3.216  -0.176  -6.237  0.00  0.00    +0.033 A 
ATOM     29  C   UNL     1       4.233  -0.126  -7.182  0.00  0.00    +0.027 A 
ATOM     30  C   UNL     1       4.834  -1.293  -7.611  0.00  0.00    +0.047 A 
ATOM     31  C   UNL     1       4.416  -2.515  -7.106  0.00  0.00    +0.120 A 
ATOM     32  C   UNL     1       3.397  -2.566  -6.166  0.00  0.00    +0.047 A 
ATOM     33  C   UNL     1       2.798  -1.400  -5.732  0.00  0.00    +0.027 A 
BRANCH  31  34
ATOM     34  O   UNL     1       5.005  -3.664  -7.533  0.00  0.00    -0.495 OA
ATOM     35  C   UNL     1       6.047  -3.537  -8.502  0.00  0.00    +0.277 C 
ENDBRANCH  31  34
ENDBRANCH  26  28
ENDBRANCH  20  21
ENDBRANCH  19  20
ENDBRANCH   2  19
TORSDOF 8
