REMARK  Name = ZINC08937786
REMARK  7 active torsions:
REMARK  status: ('A' for Active; 'I' for Inactive)
REMARK    1  A    between atoms: C_4  and  C_7
REMARK    2  A    between atoms: C_8  and  S_9
REMARK    3  A    between atoms: S_9  and  N_12
REMARK    4  A    between atoms: C_17  and  C_18
REMARK    5  A    between atoms: C_17  and  N_58
REMARK    6  A    between atoms: N_20  and  C_21
REMARK    7  A    between atoms: C_22  and  C_29
REMARK                            x       y       z     vdW  Elec       q    Type
REMARK                         _______ _______ _______ _____ _____    ______ ____
ROOT
ATOM      1  C   UNL     1       2.545  -0.266   5.150  0.00  0.00    +0.019 C 
ENDROOT
BRANCH   1   7
ATOM      2  N   UNL     1       2.202   1.819   1.523  0.00  0.00    -0.181 NA
ATOM      3  C   UNL     1       2.225   2.624   2.754  0.00  0.00    +0.091 C 
ATOM      4  C   UNL     1       1.855   1.712   3.934  0.00  0.00    -0.061 C 
ATOM      5  C   UNL     1       2.569  -0.268   2.728  0.00  0.00    -0.061 C 
ATOM      6  C   UNL     1       2.963   0.560   1.501  0.00  0.00    +0.091 C 
ATOM      7  N   UNL     1       2.775   0.553   3.941  0.00  0.00    +0.387 N 
ATOM      8  H   UNL     1       3.743   0.896   3.951  0.00  0.00    -0.081 HD
BRANCH   2   9
ATOM      9  S   UNL     1       1.348   2.319   0.196  0.00  0.00    +0.054 S 
ATOM     10  O   UNL     1       1.948   1.697  -0.932  0.00  0.00    -0.153 OA
ATOM     11  O   UNL     1       1.215   3.730   0.306  0.00  0.00    -0.153 OA
BRANCH   9  13
ATOM     12  C   UNL     1      -1.316   2.456   0.483  0.00  0.00    +0.028 C 
ATOM     13  C   UNL     1      -0.275   1.648   0.337  0.00  0.00    +0.153 C 
BRANCH  12  17
ATOM     14  C   UNL     1      -5.230   0.839   0.806  0.00  0.00    +0.000 A 
ATOM     15  C   UNL     1      -5.045   2.209   0.853  0.00  0.00    +0.001 A 
ATOM     16  C   UNL     1      -3.776   2.741   0.749  0.00  0.00    +0.008 A 
ATOM     17  C   UNL     1      -2.679   1.893   0.595  0.00  0.00    -0.024 A 
ATOM     18  C   UNL     1      -2.873   0.512   0.543  0.00  0.00    +0.008 A 
ATOM     19  C   UNL     1      -4.146  -0.007   0.654  0.00  0.00    +0.001 A 
ENDBRANCH  12  17
ENDBRANCH   9  13
ENDBRANCH   2   9
ENDBRANCH   1   7
BRANCH   1  20
ATOM     20  C   UNL     1       1.114  -0.737   5.206  0.00  0.00    +0.201 C 
ATOM     21  O   UNL     1       0.366  -0.516   4.278  0.00  0.00    -0.278 OA
ATOM     22  N   UNL     1       0.667  -1.404   6.289  0.00  0.00    -0.281 N 
ATOM     23  H   UNL     1       1.266  -1.581   7.031  0.00  0.00    +0.155 HD
BRANCH  22  24
ATOM     24  C   UNL     1      -0.649  -1.838   6.341  0.00  0.00    +0.084 A 
ATOM     25  C   UNL     1      -1.285  -2.536   7.353  0.00  0.00    +0.068 A 
ATOM     26  C   UNL     1      -2.695  -2.873   7.160  0.00  0.00    -0.023 A 
ATOM     27  C   UNL     1      -3.225  -2.467   5.992  0.00  0.00    -0.004 A 
ATOM     28  S   UNL     1      -1.893  -1.645   5.153  0.00  0.00    -0.077 S 
ATOM     29  C   UNL     1      -4.674  -2.852   5.866  0.00  0.00    +0.043 C 
ATOM     30  C   UNL     1      -5.115  -3.187   7.308  0.00  0.00    +0.010 C 
ATOM     31  C   UNL     1      -3.779  -3.601   7.957  0.00  0.00    +0.037 C 
BRANCH  25  32
ATOM     32  C   UNL     1      -0.572  -2.920   8.575  0.00  0.00    +0.244 C 
ATOM     33  O   UNL     1      -0.559  -2.170   9.533  0.00  0.00    -0.270 OA
ATOM     34  N   UNL     1       0.068  -4.104   8.638  0.00  0.00    -0.325 N 
ATOM     35  H   UNL     1       0.058  -4.703   7.875  0.00  0.00    +0.145 HD
ATOM     36  H   UNL     1       0.540  -4.359   9.447  0.00  0.00    +0.145 HD
ENDBRANCH  25  32
ENDBRANCH  22  24
ENDBRANCH   1  20
TORSDOF 7
