REMARK  Name = ZINC42561701
REMARK  11 active torsions:
REMARK  status: ('A' for Active; 'I' for Inactive)
REMARK    1  A    between atoms: C_1  and  C_2
REMARK    2  A    between atoms: C_2  and  C_4
REMARK    3  A    between atoms: C_2  and  N_8
REMARK    4  A    between atoms: C_4  and  C_5
REMARK    5  A    between atoms: C_5  and  C_6
REMARK    6  A    between atoms: C_5  and  C_7
REMARK    7  A    between atoms: N_8  and  C_9
REMARK    8  A    between atoms: N_8  and  C_10
REMARK    9  A    between atoms: C_10  and  C_11
REMARK   10  A    between atoms: N_13  and  C_14
REMARK   11  A    between atoms: C_17  and  N_21
REMARK                            x       y       z     vdW  Elec       q    Type
REMARK                         _______ _______ _______ _____ _____    ______ ____
ROOT
ATOM      1  C   UNL     1      -3.831   0.939   1.013  0.00  0.00    +0.201 C 
ATOM      2  O   UNL     1      -4.492   0.603   0.053  0.00  0.00    -0.278 OA
ATOM      3  N   UNL     1      -4.427   1.142   2.205  0.00  0.00    -0.285 N 
ATOM      4  H   UNL     1      -3.907   1.459   2.959  0.00  0.00    +0.155 HD
ENDROOT
BRANCH   3   5
ATOM      5  C   UNL     1      -5.800   0.893   2.353  0.00  0.00    +0.070 A 
ATOM      6  C   UNL     1      -6.361  -0.255   1.809  0.00  0.00    +0.065 A 
ATOM      7  C   UNL     1      -7.713  -0.499   1.955  0.00  0.00    +0.044 A 
ATOM      8  C   UNL     1      -8.511   0.403   2.647  0.00  0.00    +0.027 A 
ATOM      9  C   UNL     1      -7.950   1.551   3.191  0.00  0.00    +0.044 A 
ATOM     10  C   UNL     1      -6.597   1.793   3.050  0.00  0.00    +0.065 A 
ATOM     11 CL   UNL     1      -5.894   3.224   3.737  0.00  0.00    -0.082 Cl
ATOM     12 CL   UNL     1      -5.364  -1.382   0.944  0.00  0.00    -0.082 Cl
BRANCH   8  13
ATOM     13  N   UNL     1      -9.880   0.156   2.795  0.00  0.00    -0.358 N 
ATOM     14  H   UNL     1     -10.271  -0.646   2.415  0.00  0.00    +0.142 HD
ATOM     15  H   UNL     1     -10.437   0.786   3.278  0.00  0.00    +0.142 HD
ENDBRANCH   8  13
ENDBRANCH   3   5
BRANCH   1  16
ATOM     16  C   UNL     1      -2.342   1.129   0.874  0.00  0.00    +0.019 C 
BRANCH  16  17
ATOM     17  N   UNL     1      -1.941   0.849  -0.511  0.00  0.00    +0.385 N 
ATOM     18  C   UNL     1      -2.151  -0.575  -0.804  0.00  0.00    -0.095 C 
ATOM     19  H   UNL     1      -2.497   1.407  -1.142  0.00  0.00    -0.081 HD
BRANCH  17  21
ATOM     20  C   UNL     1       0.308   0.447   0.370  0.00  0.00    -0.013 C 
ATOM     21  C   UNL     1      -0.521   1.181  -0.686  0.00  0.00    -0.071 C 
BRANCH  21  22
ATOM     22  C   UNL     1      -0.326   2.691  -0.528  0.00  0.00    -0.013 C 
BRANCH  22  23
ATOM     23  C   UNL     1      -1.091   3.421  -1.634  0.00  0.00    -0.019 C 
ATOM     24  C   UNL     1      -1.002   4.931  -1.403  0.00  0.00    +0.007 C 
ATOM     25  C   UNL     1      -0.476   3.077  -2.992  0.00  0.00    +0.007 C 
ENDBRANCH  22  23
ENDBRANCH  21  22
ENDBRANCH  17  21
ENDBRANCH  16  17
ENDBRANCH   1  16
TORSDOF 7
