REMARK  Name = ZINC62902772
REMARK  7 active torsions:
REMARK  status: ('A' for Active; 'I' for Inactive)
REMARK    1  A    between atoms: C_1  and  C_2
REMARK    2  A    between atoms: C_2  and  C_7
REMARK    3  A    between atoms: N_9  and  C_10
REMARK    4  A    between atoms: C_10  and  C_11
REMARK    5  A    between atoms: C_11  and  C_12
REMARK    6  A    between atoms: C_12  and  S_13
REMARK    7  A    between atoms: S_13  and  N_16
REMARK                            x       y       z     vdW  Elec       q    Type
REMARK                         _______ _______ _______ _____ _____    ______ ____
ROOT
ATOM      1  C   UNL     1       0.659  -0.510  -1.256  0.00  0.00    +0.217 C 
ATOM      2  O   UNL     1       1.647  -1.211  -1.185  0.00  0.00    -0.275 OA
ATOM      3  N   UNL     1       0.149  -0.185  -2.461  0.00  0.00    -0.315 N 
ATOM      4  H   UNL     1      -0.641   0.375  -2.517  0.00  0.00    +0.149 HD
ENDROOT
BRANCH   1   6
ATOM      5  C   UNL     1      -0.019   1.526   0.010  0.00  0.00    +0.019 C 
ATOM      6  C   UNL     1       0.002  -0.004   0.002  0.00  0.00    +0.027 C 
ATOM      7  C   UNL     1      -1.435  -0.561   0.121  0.00  0.00    -0.005 C 
ATOM      8  C   UNL     1      -1.257  -1.783   1.057  0.00  0.00    -0.082 C 
ATOM      9  N   UNL     1      -0.234  -1.320   2.029  0.00  0.00    +0.380 N 
ATOM     10  C   UNL     1       0.743  -0.535   1.243  0.00  0.00    -0.067 C 
ATOM     11  H   UNL     1      -0.661  -0.738   2.733  0.00  0.00    -0.086 HD
ATOM     12  H   UNL     1       0.221  -2.111   2.459  0.00  0.00    -0.086 HD
ENDBRANCH   1   6
BRANCH   3  13
ATOM     13  C   UNL     1       0.787  -0.678  -3.684  0.00  0.00    +0.106 C 
BRANCH  13  14
ATOM     14  C   UNL     1       0.016  -0.167  -4.903  0.00  0.00    +0.043 C 
BRANCH  14  15
ATOM     15  C   UNL     1       0.683  -0.681  -6.180  0.00  0.00    +0.186 C 
BRANCH  15  16
ATOM     16  S   UNL     1      -0.232  -0.076  -7.625  0.00  0.00    +0.027 S 
ATOM     17  O   UNL     1      -1.518  -0.679  -7.678  0.00  0.00    -0.158 OA
ATOM     18  O   UNL     1      -0.087   1.333  -7.741  0.00  0.00    -0.158 OA
BRANCH  16  19
ATOM     19  N   UNL     1       0.579  -0.693  -8.931  0.00  0.00    -0.208 NA
ATOM     20  H   UNL     1       1.364  -1.247  -8.797  0.00  0.00    +0.144 HD
ATOM     21  H   UNL     1       0.269  -0.501  -9.829  0.00  0.00    +0.144 HD
ENDBRANCH  16  19
ENDBRANCH  15  16
ENDBRANCH  14  15
ENDBRANCH  13  14
ENDBRANCH   3  13
TORSDOF 6
