REMARK  Name = ZINC06952281
REMARK  9 active torsions:
REMARK  status: ('A' for Active; 'I' for Inactive)
REMARK    1  A    between atoms: C_1  and  C_2
REMARK    2  A    between atoms: C_2  and  C_3
REMARK    3  A    between atoms: C_2  and  C_4
REMARK    4  A    between atoms: C_4  and  C_5
REMARK    5  A    between atoms: C_5  and  C_7
REMARK    6  A    between atoms: C_5  and  N_21
REMARK    7  A    between atoms: N_9  and  N_10
REMARK    8  A    between atoms: C_11  and  C_12
REMARK    9  A    between atoms: C_17  and  O_18
REMARK                            x       y       z     vdW  Elec       q    Type
REMARK                         _______ _______ _______ _____ _____    ______ ____
ROOT
ATOM      1  C   UNL     1      -2.826  -2.559  -0.234  0.00  0.00    +0.218 C 
ATOM      2  O   UNL     1      -3.499  -2.940   0.701  0.00  0.00    -0.276 OA
ATOM      3  N   UNL     1      -3.329  -2.592  -1.484  0.00  0.00    -0.208 N 
ATOM      4  H   UNL     1      -2.791  -2.287  -2.231  0.00  0.00    +0.177 HD
ENDROOT
BRANCH   3   5
ATOM      5  N   UNL     1      -4.628  -3.067  -1.703  0.00  0.00    -0.188 NA
ATOM      6  C   UNL     1      -5.113  -3.099  -2.907  0.00  0.00    +0.142 C 
BRANCH   6   7
ATOM      7  C   UNL     1      -6.480  -3.599  -3.138  0.00  0.00    +0.038 A 
ATOM      8  C   UNL     1      -7.003  -3.641  -4.433  0.00  0.00    +0.028 A 
ATOM      9  C   UNL     1      -8.283  -4.110  -4.643  0.00  0.00    +0.020 A 
ATOM     10  C   UNL     1      -9.053  -4.541  -3.575  0.00  0.00    +0.034 A 
ATOM     11  C   UNL     1      -8.546  -4.505  -2.289  0.00  0.00    +0.061 A 
ATOM     12  C   UNL     1      -7.260  -4.041  -2.061  0.00  0.00    +0.139 A 
ATOM     13 BR   UNL     1      -9.607  -5.096  -0.839  0.00  0.00    -0.046 Br
ATOM     14 BR   UNL     1      -8.990  -4.165  -6.396  0.00  0.00    -0.050 Br
BRANCH  12  15
ATOM     15  O   UNL     1      -6.759  -4.010  -0.799  0.00  0.00    -0.505 OA
ATOM     16  H   UNL     1      -6.931  -3.183  -0.328  0.00  0.00    +0.292 HD
ENDBRANCH  12  15
ENDBRANCH   6   7
ENDBRANCH   3   5
BRANCH   1  17
ATOM     17  C   UNL     1      -1.428  -2.048   0.003  0.00  0.00    +0.015 C 
BRANCH  17  18
ATOM     18  N   UNL     1      -0.940  -2.538   1.299  0.00  0.00    +0.386 N 
ATOM     19  H   UNL     1      -1.496  -2.138   2.040  0.00  0.00    -0.089 HD
ATOM     20  H   UNL     1      -1.014  -3.544   1.327  0.00  0.00    -0.089 HD
ATOM     21  H   UNL     1       0.025  -2.268   1.419  0.00  0.00    -0.089 HD
ENDBRANCH  17  18
BRANCH  17  22
ATOM     22  C   UNL     1      -1.439  -0.518   0.007  0.00  0.00    -0.004 C 
BRANCH  22  24
ATOM     23  C   UNL     1       0.784  -0.381  -1.125  0.00  0.00    +0.007 C 
ATOM     24  C   UNL     1      -0.005   0.002   0.129  0.00  0.00    -0.018 C 
ATOM     25  C   UNL     1      -0.025   1.525   0.274  0.00  0.00    +0.007 C 
ENDBRANCH  22  24
ENDBRANCH  17  22
ENDBRANCH   1  17
TORSDOF 7
