REMARK  Name = ZINC44164060
REMARK  8 active torsions:
REMARK  status: ('A' for Active; 'I' for Inactive)
REMARK    1  A    between atoms: C_1  and  O_2
REMARK    2  A    between atoms: O_2  and  C_3
REMARK    3  A    between atoms: C_8  and  C_9
REMARK    4  A    between atoms: C_14  and  C_17
REMARK    5  A    between atoms: N_19  and  C_20
REMARK    6  A    between atoms: C_20  and  C_21
REMARK    7  A    between atoms: C_21  and  C_22
REMARK    8  A    between atoms: C_25  and  O_28
REMARK                            x       y       z     vdW  Elec       q    Type
REMARK                         _______ _______ _______ _____ _____    ______ ____
ROOT
ATOM      1  C   UNL     1       0.093  -2.828   0.013  0.00  0.00    -0.026 C 
ATOM      2  C   UNL     1      -1.419  -2.895   0.264  0.00  0.00    +0.058 C 
ATOM      3  S   UNL     1      -2.183  -3.825  -1.101  0.00  0.00    -0.163 S 
ATOM      4  C   UNL     1      -1.153  -5.324  -1.188  0.00  0.00    +0.062 C 
ATOM      5  C   UNL     1       0.319  -4.894  -1.221  0.00  0.00    +0.027 C 
ATOM      6  N   UNL     1       0.655  -4.180   0.013  0.00  0.00    +0.392 N 
ATOM      7  H   UNL     1       1.659  -4.121   0.097  0.00  0.00    -0.084 HD
ATOM      8  H   UNL     1       0.288  -4.691   0.802  0.00  0.00    -0.084 HD
ENDROOT
BRANCH   1  14
ATOM      9  C   UNL     1       0.707  -0.629   1.049  0.00  0.00    +0.122 A 
ATOM     10  C   UNL     1       1.304   0.117   2.055  0.00  0.00    +0.046 A 
ATOM     11  C   UNL     1       1.940  -0.521   3.102  0.00  0.00    +0.004 A 
ATOM     12  C   UNL     1       1.981  -1.902   3.149  0.00  0.00    +0.000 A 
ATOM     13  C   UNL     1       1.387  -2.648   2.148  0.00  0.00    +0.005 A 
ATOM     14  C   UNL     1       0.745  -2.015   1.101  0.00  0.00    -0.019 A 
BRANCH   9  16
ATOM     15  C   UNL     1       0.081   1.425   0.029  0.00  0.00    +0.277 C 
ATOM     16  O   UNL     1       0.081  -0.004   0.018  0.00  0.00    -0.495 OA
ENDBRANCH   9  16
ENDBRANCH   1  14
BRANCH   5  17
ATOM     17  C   UNL     1       0.549  -3.986  -2.402  0.00  0.00    +0.200 C 
ATOM     18  O   UNL     1       1.325  -3.059  -2.312  0.00  0.00    -0.278 OA
ATOM     19  N   UNL     1      -0.108  -4.206  -3.558  0.00  0.00    -0.316 N 
ATOM     20  H   UNL     1      -0.729  -4.947  -3.630  0.00  0.00    +0.149 HD
BRANCH  19  21
ATOM     21  C   UNL     1       0.116  -3.324  -4.707  0.00  0.00    +0.109 C 
BRANCH  21  22
ATOM     22  C   UNL     1      -0.746  -3.789  -5.882  0.00  0.00    +0.054 C 
BRANCH  22  23
ATOM     23  C   UNL     1      -0.515  -2.881  -7.064  0.00  0.00    -0.046 A 
ATOM     24  C   UNL     1      -1.297  -1.753  -7.230  0.00  0.00    +0.007 A 
ATOM     25  C   UNL     1      -1.089  -0.920  -8.312  0.00  0.00    +0.045 A 
ATOM     26  C   UNL     1      -0.093  -1.216  -9.232  0.00  0.00    +0.117 A 
ATOM     27  C   UNL     1       0.690  -2.349  -9.063  0.00  0.00    +0.045 A 
ATOM     28  C   UNL     1       0.481  -3.176  -7.976  0.00  0.00    +0.007 A 
BRANCH  26  29
ATOM     29  O   UNL     1       0.113  -0.399 -10.297  0.00  0.00    -0.507 OA
ATOM     30  H   UNL     1       0.751   0.309 -10.132  0.00  0.00    +0.292 HD
ENDBRANCH  26  29
ENDBRANCH  22  23
ENDBRANCH  21  22
ENDBRANCH  19  21
ENDBRANCH   5  17
TORSDOF 7
