REMARK  Name = ZINC28900286
REMARK  13 active torsions:
REMARK  status: ('A' for Active; 'I' for Inactive)
REMARK    1  A    between atoms: C_1  and  C_2
REMARK    2  A    between atoms: C_2  and  C_3
REMARK    3  A    between atoms: C_2  and  C_4
REMARK    4  A    between atoms: C_2  and  N_5
REMARK    5  A    between atoms: C_6  and  C_8
REMARK    6  A    between atoms: C_8  and  N_9
REMARK    7  A    between atoms: N_9  and  C_10
REMARK    8  A    between atoms: N_9  and  C_11
REMARK    9  A    between atoms: C_11  and  C_12
REMARK   10  A    between atoms: C_12  and  C_13
REMARK   11  A    between atoms: N_15  and  C_16
REMARK   12  A    between atoms: C_21  and  S_22
REMARK   13  A    between atoms: S_22  and  C_23
REMARK                            x       y       z     vdW  Elec       q    Type
REMARK                         _______ _______ _______ _____ _____    ______ ____
ROOT
ATOM      1  C   UNL     1       2.456   1.000   0.008  0.00  0.00    -0.069 C 
ENDROOT
BRANCH   1   2
ATOM      2  N   UNL     1       3.719   1.751   0.012  0.00  0.00    +0.384 N 
ATOM      3  C   UNL     1       3.889   2.488   1.271  0.00  0.00    -0.096 C 
ATOM      4  H   UNL     1       3.678   2.485  -0.807  0.00  0.00    -0.082 HD
BRANCH   2   5
ATOM      5  C   UNL     1       4.861   0.862  -0.236  0.00  0.00    +0.018 C 
BRANCH   5   7
ATOM      6  N   UNL     1       7.277   1.082  -0.719  0.00  0.00    -0.312 N 
ATOM      7  C   UNL     1       6.100   1.688  -0.469  0.00  0.00    +0.197 C 
ATOM      8  O   UNL     1       6.037   2.899  -0.432  0.00  0.00    -0.278 OA
ATOM      9  H   UNL     1       7.334  -0.016  -0.752  0.00  0.00    +0.149 HD
BRANCH   6  11
ATOM     10  C   UNL     1       8.762   2.743   0.290  0.00  0.00    +0.031 C 
ATOM     11  C   UNL     1       8.481   1.885  -0.946  0.00  0.00    +0.026 C 
ATOM     12  C   UNL     1       9.671   0.959  -1.204  0.00  0.00    +0.031 C 
ATOM     13  C   UNL     1       8.268   2.792  -2.159  0.00  0.00    +0.031 C 
ENDBRANCH   6  11
ENDBRANCH   5   7
ENDBRANCH   2   5
ENDBRANCH   1   2
BRANCH   1  14
ATOM     14  C   UNL     1       1.280   1.979   0.019  0.00  0.00    +0.077 C 
BRANCH  14  15
ATOM     15  C   UNL     1      -0.015   1.208   0.015  0.00  0.00    +0.215 C 
ATOM     16  O   UNL     1       0.001  -0.005   0.005  0.00  0.00    -0.276 OA
ATOM     17  N   UNL     1      -1.191   1.867   0.018  0.00  0.00    -0.285 N 
ATOM     18  H   UNL     1      -1.207   2.963   0.101  0.00  0.00    +0.155 HD
BRANCH  17  19
ATOM     19  C   UNL     1      -2.393   1.154  -0.086  0.00  0.00    +0.047 A 
ATOM     20  C   UNL     1      -2.512  -0.098   0.498  0.00  0.00    +0.024 A 
ATOM     21  C   UNL     1      -3.701  -0.797   0.399  0.00  0.00    +0.002 A 
ATOM     22  C   UNL     1      -4.770  -0.256  -0.291  0.00  0.00    +0.001 A 
ATOM     23  C   UNL     1      -4.659   0.989  -0.881  0.00  0.00    +0.016 A 
ATOM     24  C   UNL     1      -3.472   1.700  -0.782  0.00  0.00    +0.029 A 
BRANCH  24  25
ATOM     25  S   UNL     1      -3.327   3.287  -1.534  0.00  0.00    -0.127 S 
ATOM     26  C   UNL     1      -4.948   3.559  -2.301  0.00  0.00    +0.090 C 
ENDBRANCH  24  25
ENDBRANCH  17  19
ENDBRANCH  14  15
ENDBRANCH   1  14
TORSDOF 8
