REMARK  Name = ZINC14474595
REMARK  8 active torsions:
REMARK  status: ('A' for Active; 'I' for Inactive)
REMARK    1  A    between atoms: C_1  and  O_2
REMARK    2  A    between atoms: O_2  and  C_3
REMARK    3  A    between atoms: C_3  and  C_4
REMARK    4  A    between atoms: C_4  and  C_5
REMARK    5  A    between atoms: C_5  and  N_6
REMARK    6  A    between atoms: C_7  and  C_9
REMARK    7  A    between atoms: C_16  and  C_25
REMARK    8  A    between atoms: C_30  and  O_31
REMARK                            x       y       z     vdW  Elec       q    Type
REMARK                         _______ _______ _______ _____ _____    ______ ____
ROOT
ATOM      1  C   UNL     1      -4.289   0.720  -0.481  0.00  0.00    +0.058 A 
ATOM      2  C   UNL     1      -4.722  -0.377   0.264  0.00  0.00    +0.015 A 
ATOM      3  C   UNL     1      -4.431  -0.444   1.609  0.00  0.00    +0.001 A 
ATOM      4  C   UNL     1      -3.713   0.569   2.218  0.00  0.00    +0.006 A 
ATOM      5  C   UNL     1      -3.271   1.667   1.494  0.00  0.00    -0.019 A 
ATOM      6  C   UNL     1      -3.559   1.751   0.142  0.00  0.00    +0.044 A 
ATOM      7  N   UNL     1      -3.152   2.823  -0.637  0.00  0.00    -0.336 N 
ATOM      8  C   UNL     1      -1.954   3.471  -0.104  0.00  0.00    +0.108 C 
ATOM      9  C   UNL     1      -2.225   3.949   1.324  0.00  0.00    +0.029 C 
ATOM     10  C   UNL     1      -2.488   2.720   2.221  0.00  0.00    +0.049 C 
ATOM     11  C   UNL     1      -1.106   2.211   2.564  0.00  0.00    -0.023 C 
ATOM     12  C   UNL     1      -0.215   3.156   2.398  0.00  0.00    -0.030 C 
ATOM     13  C   UNL     1      -0.878   4.436   1.928  0.00  0.00    +0.033 C 
ATOM     14  H   UNL     1      -3.016   2.542  -1.596  0.00  0.00    +0.147 HD
ENDROOT
BRANCH   8  15
ATOM     15  C   UNL     1      -0.812   2.488  -0.097  0.00  0.00    +0.014 A 
ATOM     16  C   UNL     1      -1.066   1.134   0.017  0.00  0.00    +0.009 A 
ATOM     17  C   UNL     1      -0.018   0.232   0.029  0.00  0.00    +0.001 A 
ATOM     18  C   UNL     1       1.285   0.680  -0.085  0.00  0.00    +0.004 A 
ATOM     19  C   UNL     1       1.544   2.032  -0.204  0.00  0.00    +0.046 A 
ATOM     20  C   UNL     1       0.495   2.940  -0.211  0.00  0.00    +0.122 A 
BRANCH  20  21
ATOM     21  O   UNL     1       0.747   4.270  -0.328  0.00  0.00    -0.506 OA
ATOM     22  H   UNL     1       0.767   4.588  -1.241  0.00  0.00    +0.292 HD
ENDBRANCH  20  21
ENDBRANCH   8  15
BRANCH   1  24
ATOM     23  N   UNL     1      -5.173  -0.245  -2.546  0.00  0.00    -0.311 N 
ATOM     24  C   UNL     1      -4.597   0.801  -1.921  0.00  0.00    +0.246 C 
ATOM     25  O   UNL     1      -4.331   1.811  -2.543  0.00  0.00    -0.270 OA
ATOM     26  H   UNL     1      -5.385  -1.050  -2.050  0.00  0.00    +0.149 HD
BRANCH  23  27
ATOM     27  C   UNL     1      -5.479  -0.164  -3.977  0.00  0.00    +0.107 C 
BRANCH  27  28
ATOM     28  C   UNL     1      -6.123  -1.474  -4.435  0.00  0.00    +0.047 C 
BRANCH  28  29
ATOM     29  C   UNL     1      -6.443  -1.390  -5.929  0.00  0.00    +0.161 C 
BRANCH  29  31
ATOM     30  C   UNL     1      -7.384  -2.640  -7.745  0.00  0.00    +0.193 C 
ATOM     31  O   UNL     1      -7.045  -2.614  -6.357  0.00  0.00    -0.383 OA
ENDBRANCH  29  31
ENDBRANCH  28  29
ENDBRANCH  27  28
ENDBRANCH  23  27
ENDBRANCH   1  24
TORSDOF 7
