REMARK  Name = ZINC52149457
REMARK  8 active torsions:
REMARK  status: ('A' for Active; 'I' for Inactive)
REMARK    1  A    between atoms: C_1  and  C_2
REMARK    2  A    between atoms: C_2  and  C_3
REMARK    3  A    between atoms: C_3  and  C_5
REMARK    4  A    between atoms: C_3  and  N_21
REMARK    5  A    between atoms: C_5  and  C_7
REMARK    6  A    between atoms: C_5  and  O_13
REMARK    7  A    between atoms: O_13  and  C_14
REMARK    8  A    between atoms: C_14  and  C_15
REMARK                            x       y       z     vdW  Elec       q    Type
REMARK                         _______ _______ _______ _____ _____    ______ ____
ROOT
ATOM      1  C   UNL     1       0.990  -2.033   1.215  0.00  0.00    +0.140 C 
ENDROOT
BRANCH   1   2
ATOM      2  C   UNL     1       1.645  -2.292  -0.117  0.00  0.00    +0.018 A 
ATOM      3  C   UNL     1       1.082  -2.700  -1.280  0.00  0.00    +0.015 A 
ATOM      4  C   UNL     1       1.887  -2.875  -2.390  0.00  0.00    +0.023 A 
ATOM      5  C   UNL     1       3.217  -2.631  -2.282  0.00  0.00    +0.055 A 
ATOM      6  S   UNL     1       3.363  -2.132  -0.574  0.00  0.00    -0.084 S 
ATOM      7 BR   UNL     1       4.565  -2.776  -3.600  0.00  0.00    -0.043 Br
ENDBRANCH   1   2
BRANCH   1   8
ATOM      8  C   UNL     1       0.652  -0.545   1.337  0.00  0.00    -0.041 C 
BRANCH   8   9
ATOM      9  N   UNL     1       0.136  -0.269   2.684  0.00  0.00    +0.382 N 
ATOM     10  H   UNL     1      -0.699  -0.813   2.842  0.00  0.00    -0.090 HD
ATOM     11  H   UNL     1       0.834  -0.517   3.369  0.00  0.00    -0.090 HD
ATOM     12  H   UNL     1      -0.082   0.713   2.766  0.00  0.00    -0.090 HD
ENDBRANCH   8   9
BRANCH   8  14
ATOM     13  C   UNL     1      -0.656   1.333   0.335  0.00  0.00    +0.002 C 
ATOM     14  C   UNL     1      -0.409  -0.176   0.298  0.00  0.00    -0.017 C 
ENDBRANCH   8  14
ENDBRANCH   1   8
BRANCH   1  15
ATOM     15  O   UNL     1       1.883  -2.406   2.266  0.00  0.00    -0.373 OA
BRANCH  15  16
ATOM     16  C   UNL     1       1.756  -3.767   2.681  0.00  0.00    +0.164 C 
BRANCH  16  17
ATOM     17  C   UNL     1       2.822  -4.082   3.732  0.00  0.00    +0.019 C 
ATOM     18  C   UNL     1       4.212  -3.992   3.094  0.00  0.00    +0.034 C 
ATOM     19  C   UNL     1       5.267  -4.385   4.132  0.00  0.00    +0.160 C 
ATOM     20  O   UNL     1       4.993  -5.703   4.612  0.00  0.00    -0.380 OA
ATOM     21  C   UNL     1       3.727  -5.836   5.261  0.00  0.00    +0.160 C 
ATOM     22  C   UNL     1       2.609  -5.501   4.269  0.00  0.00    +0.034 C 
ENDBRANCH  16  17
ENDBRANCH  15  16
ENDBRANCH   1  15
TORSDOF 7
