REMARK  Name = ZINC37510956
REMARK  8 active torsions:
REMARK  status: ('A' for Active; 'I' for Inactive)
REMARK    1  A    between atoms: C_1  and  N_2
REMARK    2  A    between atoms: C_8  and  C_10
REMARK    3  A    between atoms: C_13  and  C_15
REMARK    4  A    between atoms: C_15  and  N_16
REMARK    5  A    between atoms: C_19  and  C_27
REMARK    6  A    between atoms: C_27  and  C_29
REMARK    7  A    between atoms: C_29  and  O_30
REMARK    8  A    between atoms: O_30  and  C_31
REMARK                            x       y       z     vdW  Elec       q    Type
REMARK                         _______ _______ _______ _____ _____    ______ ____
ROOT
ATOM      1  N   UNL     1       4.036  -5.235   3.791  0.00  0.00    -0.258 N 
ATOM      2  C   UNL     1       4.271  -6.576   4.130  0.00  0.00    +0.079 A 
ATOM      3  C   UNL     1       3.410  -7.248   4.973  0.00  0.00    +0.038 A 
ATOM      4  C   UNL     1       3.663  -8.586   5.299  0.00  0.00    +0.023 A 
ATOM      5  C   UNL     1       4.786  -9.232   4.768  0.00  0.00    +0.015 A 
ATOM      6  C   UNL     1       5.640  -8.554   3.927  0.00  0.00    +0.048 A 
ATOM      7  C   UNL     1       5.389  -7.228   3.603  0.00  0.00    +0.143 A 
ATOM      8  O   UNL     1       6.224  -6.552   2.772  0.00  0.00    -0.481 OA
ATOM      9  C   UNL     1       5.630  -5.562   1.928  0.00  0.00    +0.325 C 
ATOM     10  C   UNL     1       4.689  -4.704   2.734  0.00  0.00    +0.258 C 
ATOM     11  O   UNL     1       4.522  -3.540   2.437  0.00  0.00    -0.271 OA
ENDROOT
BRANCH   4  12
ATOM     12  C   UNL     1       2.753  -9.310   6.196  0.00  0.00    +0.200 C 
ATOM     13  O   UNL     1       1.780  -8.749   6.655  0.00  0.00    -0.288 OA
BRANCH  12  14
ATOM     14  C   UNL     1       3.027 -10.750   6.546  0.00  0.00    +0.308 C 
BRANCH  14  15
ATOM     15  O   UNL     1       2.008 -11.229   7.426  0.00  0.00    -0.484 OA
BRANCH  15  16
ATOM     16  C   UNL     1       2.107 -12.520   7.840  0.00  0.00    +0.121 A 
ATOM     17  C   UNL     1       3.166 -13.307   7.413  0.00  0.00    +0.047 A 
ATOM     18  C   UNL     1       3.265 -14.619   7.835  0.00  0.00    +0.023 A 
ATOM     19  C   UNL     1       2.308 -15.147   8.684  0.00  0.00    +0.041 A 
ATOM     20  C   UNL     1       1.250 -14.364   9.110  0.00  0.00    +0.023 A 
ATOM     21  C   UNL     1       1.152 -13.050   8.695  0.00  0.00    +0.047 A 
ATOM     22 CL   UNL     1       2.434 -16.796   9.212  0.00  0.00    -0.084 Cl
ENDBRANCH  15  16
ENDBRANCH  14  15
ENDBRANCH  12  14
ENDBRANCH   4  12
BRANCH   1  23
ATOM     23  C   UNL     1       3.094  -4.425   4.567  0.00  0.00    +0.188 C 
BRANCH  23  27
ATOM     24  C   UNL     1      -0.058  -4.177   2.738  0.00  0.00    +0.190 A 
ATOM     25  C   UNL     1      -0.344  -5.248   3.534  0.00  0.00    +0.055 A 
ATOM     26  C   UNL     1       0.794  -5.482   4.321  0.00  0.00    +0.047 A 
ATOM     27  C   UNL     1       1.714  -4.555   3.975  0.00  0.00    +0.124 A 
ATOM     28  O   UNL     1       1.199  -3.773   3.018  0.00  0.00    -0.453 OA
BRANCH  24  36
ATOM     29  C   UNL     1      -0.718   1.737   0.737  0.00  0.00    -0.096 C 
ATOM     30  N   UNL     1      -0.447   0.304   0.561  0.00  0.00    +0.380 N 
ATOM     31  C   UNL     1      -1.711  -0.407   0.331  0.00  0.00    -0.060 C 
ATOM     32  C   UNL     1      -1.419  -1.881   0.033  0.00  0.00    +0.089 C 
ATOM     33  N   UNL     1      -0.607  -2.427   1.132  0.00  0.00    -0.299 N 
ATOM     34  C   UNL     1       0.596  -1.685   1.539  0.00  0.00    +0.089 C 
ATOM     35  C   UNL     1       0.209  -0.219   1.766  0.00  0.00    -0.060 C 
ATOM     36  C   UNL     1      -0.956  -3.574   1.748  0.00  0.00    +0.282 C 
ATOM     37  O   UNL     1      -2.016  -4.109   1.482  0.00  0.00    -0.267 OA
ATOM     38  H   UNL     1       0.160   0.173  -0.235  0.00  0.00    -0.082 HD
ENDBRANCH  24  36
ENDBRANCH  23  27
ENDBRANCH   1  23
TORSDOF 7
