REMARK  Name = ZINC63589230
REMARK  9 active torsions:
REMARK  status: ('A' for Active; 'I' for Inactive)
REMARK    1  A    between atoms: C_1  and  C_2
REMARK    2  A    between atoms: C_2  and  C_3
REMARK    3  A    between atoms: C_2  and  C_4
REMARK    4  A    between atoms: C_7  and  N_10
REMARK    5  A    between atoms: N_12  and  C_13
REMARK    6  A    between atoms: C_13  and  C_14
REMARK    7  A    between atoms: C_14  and  C_15
REMARK    8  A    between atoms: N_24  and  C_25
REMARK    9  A    between atoms: C_25  and  C_27
REMARK                            x       y       z     vdW  Elec       q    Type
REMARK                         _______ _______ _______ _____ _____    ______ ____
ROOT
ATOM      1  N   UNL     1      -5.356  -2.028   0.095  0.00  0.00    -0.328 N 
ATOM      2  C   UNL     1      -5.764  -2.751  -0.989  0.00  0.00    +0.194 C 
ATOM      3  N   UNL     1      -7.043  -3.223  -1.051  0.00  0.00    -0.357 N 
ATOM      4  N   UNL     1      -4.919  -2.994  -1.979  0.00  0.00    -0.143 NA
ATOM      5  H   UNL     1      -7.673  -3.010  -0.346  0.00  0.00    +0.162 HD
ATOM      6  H   UNL     1      -4.622  -1.399   0.010  0.00  0.00    +0.169 HD
ENDROOT
BRANCH   1  10
ATOM      7  C   UNL     1      -7.262  -2.521   3.766  0.00  0.00    -0.045 A 
ATOM      8  C   UNL     1      -6.653  -1.317   3.461  0.00  0.00    +0.006 A 
ATOM      9  C   UNL     1      -6.020  -1.151   2.245  0.00  0.00    +0.026 A 
ATOM     10  C   UNL     1      -5.995  -2.193   1.328  0.00  0.00    +0.042 A 
ATOM     11  C   UNL     1      -6.607  -3.401   1.637  0.00  0.00    +0.026 A 
ATOM     12  C   UNL     1      -7.234  -3.563   2.857  0.00  0.00    +0.006 A 
BRANCH   7  14
ATOM     13  C   UNL     1      -6.920  -2.612   6.220  0.00  0.00    +0.012 C 
ATOM     14  C   UNL     1      -7.952  -2.699   5.094  0.00  0.00    +0.013 C 
ATOM     15  C   UNL     1      -8.999  -1.598   5.276  0.00  0.00    +0.012 C 
ENDBRANCH   7  14
ENDBRANCH   1  10
BRANCH   4  16
ATOM     16  C   UNL     1      -3.624  -2.679  -1.847  0.00  0.00    +0.272 C 
ATOM     17  O   UNL     1      -3.203  -2.265  -0.782  0.00  0.00    -0.268 OA
BRANCH  16  18
ATOM     18  C   UNL     1      -2.704  -2.833  -2.997  0.00  0.00    +0.057 A 
ATOM     19  C   UNL     1      -3.201  -3.199  -4.248  0.00  0.00    +0.014 A 
ATOM     20  C   UNL     1      -2.339  -3.341  -5.315  0.00  0.00    +0.001 A 
ATOM     21  C   UNL     1      -0.983  -3.122  -5.148  0.00  0.00    +0.001 A 
ATOM     22  C   UNL     1      -0.482  -2.759  -3.911  0.00  0.00    +0.021 A 
ATOM     23  C   UNL     1      -1.336  -2.608  -2.835  0.00  0.00    +0.053 A 
ATOM     24 CL   UNL     1      -0.707  -2.145  -1.284  0.00  0.00    -0.083 Cl
ENDBRANCH  16  18
ENDBRANCH   4  16
BRANCH   3  25
ATOM     25  C   UNL     1      -7.463  -4.051  -2.184  0.00  0.00    +0.120 C 
BRANCH  25  26
ATOM     26  C   UNL     1      -8.931  -4.445  -2.011  0.00  0.00    +0.054 C 
BRANCH  26  27
ATOM     27  C   UNL     1      -9.364  -5.297  -3.176  0.00  0.00    -0.040 C 
ATOM     28  C   UNL     1      -9.388  -6.649  -3.230  0.00  0.00    -0.001 A 
ATOM     29  C   UNL     1      -9.032  -7.689  -2.258  0.00  0.00    +0.010 A 
ATOM     30  C   UNL     1      -9.166  -8.988  -2.610  0.00  0.00    +0.001 A 
ATOM     31  C   UNL     1      -9.634  -9.365  -3.876  0.00  0.00    +0.002 A 
ATOM     32  C   UNL     1      -9.981  -8.467  -4.822  0.00  0.00    +0.026 A 
ATOM     33  C   UNL     1      -9.881  -7.072  -4.560  0.00  0.00    +0.043 A 
ATOM     34  N   UNL     1     -10.150  -6.024  -5.300  0.00  0.00    -0.380 N 
ATOM     35  C   UNL     1      -9.864  -4.815  -4.519  0.00  0.00    +0.144 C 
ATOM     36  H   UNL     1     -10.486  -6.044  -6.210  0.00  0.00    +0.160 HD
ENDBRANCH  26  27
ENDBRANCH  25  26
ENDBRANCH   3  25
TORSDOF 7
