REMARK  Name = ZINC39533722
REMARK  8 active torsions:
REMARK  status: ('A' for Active; 'I' for Inactive)
REMARK    1  A    between atoms: C_4  and  C_7
REMARK    2  A    between atoms: C_10  and  C_13
REMARK    3  A    between atoms: C_13  and  C_15
REMARK    4  A    between atoms: C_13  and  N_24
REMARK    5  A    between atoms: C_15  and  N_16
REMARK    6  A    between atoms: N_16  and  C_17
REMARK    7  A    between atoms: C_22  and  O_23
REMARK    8  A    between atoms: C_28  and  O_31
REMARK                            x       y       z     vdW  Elec       q    Type
REMARK                         _______ _______ _______ _____ _____    ______ ____
ROOT
ATOM      1  C   UNL     1       7.434  -2.768  -0.085  0.00  0.00    +0.104 C 
ENDROOT
BRANCH   1   2
ATOM      2  N   UNL     1       7.393  -3.871   0.884  0.00  0.00    -0.295 NA
ATOM      3  C   UNL     1       6.379  -4.866   0.507  0.00  0.00    +0.066 C 
ATOM      4  C   UNL     1       6.410  -6.025   1.506  0.00  0.00    -0.063 C 
ATOM      5  N   UNL     1       6.140  -5.514   2.857  0.00  0.00    +0.398 N 
ATOM      6  C   UNL     1       7.175  -4.540   3.229  0.00  0.00    +0.073 C 
ATOM      7  C   UNL     1       7.151  -3.369   2.244  0.00  0.00    +0.096 C 
ATOM      8  H   UNL     1       5.236  -5.067   2.873  0.00  0.00    -0.082 HD
ATOM      9  H   UNL     1       6.148  -6.280   3.514  0.00  0.00    -0.082 HD
BRANCH   6  10
ATOM     10  O   UNL     1       6.921  -4.057   4.550  0.00  0.00    -0.409 OA
ATOM     11  H   UNL     1       6.921  -4.746   5.228  0.00  0.00    +0.207 HD
ENDBRANCH   6  10
ENDBRANCH   1   2
BRANCH   1  15
ATOM     12  C   UNL     1       3.586  -0.917  -0.301  0.00  0.00    -0.018 A 
ATOM     13  C   UNL     1       3.781  -2.190  -0.833  0.00  0.00    +0.009 A 
ATOM     14  C   UNL     1       5.025  -2.783  -0.761  0.00  0.00    +0.006 A 
ATOM     15  C   UNL     1       6.078  -2.116  -0.161  0.00  0.00    -0.029 A 
ATOM     16  C   UNL     1       5.890  -0.852   0.369  0.00  0.00    +0.006 A 
ATOM     17  C   UNL     1       4.652  -0.247   0.297  0.00  0.00    +0.009 A 
BRANCH  12  21
ATOM     18  C   UNL     1      -0.241   0.923  -0.516  0.00  0.00    +0.000 A 
ATOM     19  C   UNL     1      -0.055  -0.343  -1.041  0.00  0.00    +0.001 A 
ATOM     20  C   UNL     1       1.185  -0.945  -0.974  0.00  0.00    +0.008 A 
ATOM     21  C   UNL     1       2.251  -0.275  -0.376  0.00  0.00    -0.018 A 
ATOM     22  C   UNL     1       2.057   1.000   0.151  0.00  0.00    +0.008 A 
ATOM     23  C   UNL     1       0.813   1.593   0.079  0.00  0.00    +0.001 A 
ENDBRANCH  12  21
ENDBRANCH   1  15
BRANCH   1  24
ATOM     24  C   UNL     1       7.816  -3.313  -1.462  0.00  0.00    +0.125 C 
BRANCH  24  25
ATOM     25  N   UNL     1       9.078  -4.051  -1.363  0.00  0.00    -0.339 N 
ATOM     26  H   UNL     1       9.529  -4.127  -0.508  0.00  0.00    +0.146 HD
BRANCH  25  27
ATOM     27  C   UNL     1       9.633  -4.646  -2.502  0.00  0.00    +0.069 A 
ATOM     28  C   UNL     1       8.992  -4.533  -3.727  0.00  0.00    +0.026 A 
ATOM     29  C   UNL     1       9.542  -5.121  -4.851  0.00  0.00    +0.002 A 
ATOM     30  C   UNL     1      10.730  -5.822  -4.757  0.00  0.00    +0.004 A 
ATOM     31  C   UNL     1      11.374  -5.938  -3.539  0.00  0.00    +0.047 A 
ATOM     32  C   UNL     1      10.833  -5.348  -2.410  0.00  0.00    +0.138 A 
BRANCH  32  33
ATOM     33  O   UNL     1      11.468  -5.457  -1.212  0.00  0.00    -0.505 OA
ATOM     34  H   UNL     1      11.204  -6.231  -0.696  0.00  0.00    +0.292 HD
ENDBRANCH  32  33
ENDBRANCH  25  27
ENDBRANCH  24  25
ENDBRANCH   1  24
TORSDOF 8
