REMARK  Name = ZINC15919355
REMARK  6 active torsions:
REMARK  status: ('A' for Active; 'I' for Inactive)
REMARK    1  A    between atoms: C_5  and  N_7
REMARK    2  A    between atoms: C_8  and  C_10
REMARK    3  A    between atoms: C_12  and  N_32
REMARK    4  A    between atoms: C_15  and  N_16
REMARK    5  A    between atoms: C_17  and  C_19
REMARK    6  A    between atoms: C_19  and  N_20
REMARK                            x       y       z     vdW  Elec       q    Type
REMARK                         _______ _______ _______ _____ _____    ______ ____
ROOT
ATOM      1  C   UNL     1      -0.000  -4.503   0.762  0.00  0.00    +0.060 A 
ATOM      2  C   UNL     1       1.194  -5.224   0.827  0.00  0.00    +0.047 A 
ATOM      3  C   UNL     1       1.259  -6.495   0.297  0.00  0.00    +0.127 A 
ATOM      4  C   UNL     1       0.145  -7.062  -0.300  0.00  0.00    +0.034 A 
ATOM      5  C   UNL     1      -1.042  -6.361  -0.372  0.00  0.00    +0.026 A 
ATOM      6  C   UNL     1      -1.128  -5.082   0.161  0.00  0.00    +0.046 A 
ENDROOT
BRANCH   1   8
ATOM      7  N   UNL     1       1.034  -2.549   1.807  0.00  0.00    -0.279 N 
ATOM      8  C   UNL     1      -0.077  -3.143   1.327  0.00  0.00    +0.250 C 
ATOM      9  O   UNL     1      -1.142  -2.557   1.360  0.00  0.00    -0.270 OA
ATOM     10  H   UNL     1       1.896  -2.981   1.708  0.00  0.00    +0.155 HD
BRANCH   7  15
ATOM     11  C   UNL     1      -0.335   0.304   3.682  0.00  0.00    +0.002 A 
ATOM     12  C   UNL     1       0.761   1.146   3.717  0.00  0.00    +0.003 A 
ATOM     13  C   UNL     1       1.949   0.765   3.121  0.00  0.00    +0.040 A 
ATOM     14  C   UNL     1       2.044  -0.460   2.486  0.00  0.00    +0.144 A 
ATOM     15  C   UNL     1       0.942  -1.308   2.449  0.00  0.00    +0.069 A 
ATOM     16  C   UNL     1      -0.248  -0.921   3.050  0.00  0.00    +0.026 A 
ATOM     17  F   UNL     1       3.204  -0.832   1.903  0.00  0.00    -0.204 F 
ENDBRANCH   7  15
ENDBRANCH   1   8
BRANCH   6  18
ATOM     18  N   UNL     1      -2.326  -4.375   0.095  0.00  0.00    -0.286 N 
ATOM     19  C   UNL     1      -3.496  -5.038   0.003  0.00  0.00    +0.201 C 
ATOM     20  O   UNL     1      -3.514  -6.248   0.079  0.00  0.00    -0.278 OA
ATOM     21  H   UNL     1      -2.319  -3.405   0.115  0.00  0.00    +0.155 HD
BRANCH  19  22
ATOM     22  C   UNL     1      -4.781  -4.276  -0.196  0.00  0.00    +0.019 C 
BRANCH  22  23
ATOM     23  N   UNL     1      -5.904  -5.220  -0.264  0.00  0.00    +0.387 N 
ATOM     24  C   UNL     1      -6.043  -5.907   1.026  0.00  0.00    -0.059 C 
ATOM     25  C   UNL     1      -7.139  -6.973   0.920  0.00  0.00    +0.088 C 
ATOM     26  N   UNL     1      -8.371  -6.328   0.440  0.00  0.00    -0.320 N 
ATOM     27  C   UNL     1      -8.289  -5.483  -0.761  0.00  0.00    +0.088 C 
ATOM     28  C   UNL     1      -7.138  -4.488  -0.576  0.00  0.00    -0.059 C 
ATOM     29  C   UNL     1      -9.580  -6.512   1.102  0.00  0.00    +0.099 A 
ATOM     30  C   UNL     1     -10.749  -5.986   0.563  0.00  0.00    +0.042 A 
ATOM     31  C   UNL     1     -11.944  -6.176   1.232  0.00  0.00    +0.005 A 
ATOM     32  C   UNL     1     -11.930  -6.890   2.423  0.00  0.00    +0.018 A 
ATOM     33  C   UNL     1     -10.733  -7.385   2.901  0.00  0.00    +0.084 A 
ATOM     34  N   UNL     1      -9.608  -7.192   2.238  0.00  0.00    -0.350 N 
ATOM     35  H   UNL     1      -8.781  -7.554   2.594  0.00  0.00    +0.166 HD
ATOM     36  H   UNL     1      -5.726  -5.900  -0.988  0.00  0.00    -0.081 HD
ENDBRANCH  22  23
ENDBRANCH  19  22
ENDBRANCH   6  18
BRANCH   3  37
ATOM     37  N   UNL     1       2.526  -7.258   0.366  0.00  0.00    +0.056 N 
ATOM     38  O   UNL     1       3.500  -6.766   0.886  0.00  0.00    -0.126 OA
ATOM     39  O   UNL     1       2.586  -8.373  -0.098  0.00  0.00    -0.126 OA
ENDBRANCH   3  37
TORSDOF 6
