REMARK  Name = ZINC39231306
REMARK  5 active torsions:
REMARK  status: ('A' for Active; 'I' for Inactive)
REMARK    1  A    between atoms: C_1  and  O_2
REMARK    2  A    between atoms: O_2  and  C_3
REMARK    3  A    between atoms: C_6  and  N_10
REMARK    4  A    between atoms: C_11  and  C_13
REMARK    5  A    between atoms: C_15  and  O_40
REMARK                            x       y       z     vdW  Elec       q    Type
REMARK                         _______ _______ _______ _____ _____    ______ ____
ROOT
ATOM      1  C   UNL     1       3.108  -4.520   5.546  0.00  0.00    +0.107 C 
ATOM      2  C   UNL     1       2.385  -4.040   6.807  0.00  0.00    +0.127 C 
ATOM      3  C   UNL     1       2.978  -4.728   8.037  0.00  0.00    +0.032 C 
ATOM      4  C   UNL     1       2.829  -6.246   7.903  0.00  0.00    +0.004 C 
ATOM      5  C   UNL     1       3.562  -6.713   6.645  0.00  0.00    -0.024 C 
ATOM      6  C   UNL     1       2.945  -6.035   5.419  0.00  0.00    +0.004 C 
ATOM      7  C   UNL     1       3.648  -6.539   4.156  0.00  0.00    -0.005 C 
ATOM      8  C   UNL     1       3.522  -8.063   4.102  0.00  0.00    -0.020 C 
ATOM      9  C   UNL     1       4.203  -8.599   2.869  0.00  0.00    +0.006 A 
ATOM     10  C   UNL     1       4.961  -9.721   2.884  0.00  0.00    -0.022 A 
ATOM     11  C   UNL     1       5.444  -9.929   1.538  0.00  0.00    +0.003 A 
ATOM     12  C   UNL     1       6.256 -10.911   0.961  0.00  0.00    +0.010 A 
ATOM     13  C   UNL     1       6.514 -10.792  -0.383  0.00  0.00    +0.001 A 
ATOM     14  C   UNL     1       6.001  -9.753  -1.141  0.00  0.00    +0.002 A 
ATOM     15  C   UNL     1       5.197  -8.767  -0.596  0.00  0.00    +0.026 A 
ATOM     16  C   UNL     1       4.917  -8.862   0.765  0.00  0.00    +0.047 A 
ATOM     17  N   UNL     1       4.175  -8.080   1.604  0.00  0.00    -0.359 N 
ATOM     18  H   UNL     1       3.699  -7.276   1.342  0.00  0.00    +0.166 HD
ATOM     19  C   UNL     1       5.201 -10.542   4.126  0.00  0.00    +0.019 C 
ATOM     20  C   UNL     1       4.174 -10.114   5.185  0.00  0.00    -0.073 C 
ATOM     21  N   UNL     1       4.161  -8.652   5.286  0.00  0.00    +0.386 N 
ATOM     22  C   UNL     1       3.438  -8.230   6.495  0.00  0.00    -0.074 C 
ATOM     23  H   UNL     1       5.111  -8.318   5.345  0.00  0.00    -0.081 HD
ENDROOT
BRANCH   1  25
ATOM     24  N   UNL     1       2.541  -2.503   4.232  0.00  0.00    -0.285 N 
ATOM     25  C   UNL     1       2.514  -3.846   4.337  0.00  0.00    +0.223 C 
ATOM     26  O   UNL     1       2.011  -4.513   3.457  0.00  0.00    -0.275 OA
ATOM     27  H   UNL     1       3.010  -1.974   4.896  0.00  0.00    +0.155 HD
BRANCH  24  31
ATOM     28  C   UNL     1       0.608  -0.619   1.053  0.00  0.00    +0.138 A 
ATOM     29  C   UNL     1       0.086  -1.787   1.588  0.00  0.00    +0.049 A 
ATOM     30  C   UNL     1       0.726  -2.412   2.641  0.00  0.00    +0.027 A 
ATOM     31  C   UNL     1       1.892  -1.870   3.164  0.00  0.00    +0.035 A 
ATOM     32  C   UNL     1       2.415  -0.701   2.628  0.00  0.00    +0.047 A 
ATOM     33  C   UNL     1       1.777  -0.080   1.571  0.00  0.00    +0.084 A 
ATOM     34 CL   UNL     1       2.434   1.379   0.897  0.00  0.00    -0.080 Cl
BRANCH  28  36
ATOM     35  C   UNL     1      -1.222  -0.615  -0.466  0.00  0.00    +0.277 C 
ATOM     36  O   UNL     1      -0.023  -0.005   0.017  0.00  0.00    -0.494 OA
ENDBRANCH  28  36
ENDBRANCH  24  31
ENDBRANCH   1  25
BRANCH   2  37
ATOM     37  O   UNL     1       0.996  -4.359   6.709  0.00  0.00    -0.391 OA
ATOM     38  H   UNL     1       0.473  -4.084   7.475  0.00  0.00    +0.210 HD
ENDBRANCH   2  37
TORSDOF 4
