REMARK  Name = ZINC43222354
REMARK  4 active torsions:
REMARK  status: ('A' for Active; 'I' for Inactive)
REMARK    1  A    between atoms: C_10  and  N_12
REMARK    2  A    between atoms: C_13  and  C_15
REMARK    3  A    between atoms: C_20  and  C_22
REMARK    4  A    between atoms: N_24  and  C_25
REMARK                            x       y       z     vdW  Elec       q    Type
REMARK                         _______ _______ _______ _____ _____    ______ ____
ROOT
ATOM      1  C   UNL     1       6.241   1.830  -1.474  0.00  0.00    +0.068 C 
ATOM      2  C   UNL     1       5.440   2.421  -2.649  0.00  0.00    -0.069 C 
ATOM      3  N   UNL     1       5.602   3.890  -2.590  0.00  0.00    +0.380 N 
ATOM      4  C   UNL     1       6.887   4.127  -1.884  0.00  0.00    -0.069 C 
ATOM      5  C   UNL     1       6.888   3.046  -0.772  0.00  0.00    +0.068 C 
ATOM      6  H   UNL     1       5.641   4.273  -3.522  0.00  0.00    -0.086 HD
ATOM      7  H   UNL     1       4.840   4.303  -2.074  0.00  0.00    -0.086 HD
ENDROOT
BRANCH   1   9
ATOM      8  N   UNL     1       4.631   0.028  -0.945  0.00  0.00    -0.308 N 
ATOM      9  C   UNL     1       5.321   1.107  -0.525  0.00  0.00    +0.215 C 
ATOM     10  O   UNL     1       5.202   1.495   0.618  0.00  0.00    -0.276 OA
ATOM     11  H   UNL     1       4.727  -0.282  -1.859  0.00  0.00    +0.149 HD
BRANCH   8  21
ATOM     12  C   UNL     1      -0.017   1.375   0.010  0.00  0.00    +0.000 A 
ATOM     13  C   UNL     1       1.174   2.078   0.002  0.00  0.00    +0.000 A 
ATOM     14  C   UNL     1       2.372   1.395  -0.010  0.00  0.00    +0.006 A 
ATOM     15  C   UNL     1       2.393   0.006  -0.017  0.00  0.00    -0.024 A 
ATOM     16  C   UNL     1       1.208  -0.694  -0.014  0.00  0.00    -0.042 A 
ATOM     17  C   UNL     1       0.002  -0.004   0.002  0.00  0.00    +0.004 A 
ATOM     18  C   UNL     1       1.155  -2.199  -0.037  0.00  0.00    +0.035 C 
ATOM     19  C   UNL     1       2.501  -2.790   0.377  0.00  0.00    +0.007 C 
ATOM     20  C   UNL     1       3.599  -2.130  -0.466  0.00  0.00    +0.027 C 
ATOM     21  C   UNL     1       3.737  -0.675  -0.022  0.00  0.00    +0.103 C 
ENDBRANCH   8  21
ENDBRANCH   1   9
BRANCH   5  22
ATOM     22  C   UNL     1       8.296   2.725  -0.339  0.00  0.00    +0.215 C 
ATOM     23  O   UNL     1       8.763   1.628  -0.560  0.00  0.00    -0.276 OA
ATOM     24  N   UNL     1       9.035   3.657   0.294  0.00  0.00    -0.308 N 
ATOM     25  H   UNL     1       8.661   4.535   0.471  0.00  0.00    +0.149 HD
BRANCH  24  26
ATOM     26  C   UNL     1      10.403   3.345   0.716  0.00  0.00    +0.103 C 
ATOM     27  C   UNL     1      10.781   4.235   1.898  0.00  0.00    +0.027 C 
ATOM     28  C   UNL     1      12.277   4.051   2.182  0.00  0.00    +0.007 C 
ATOM     29  C   UNL     1      13.066   4.685   1.039  0.00  0.00    +0.035 C 
ATOM     30  C   UNL     1      12.567   4.183  -0.291  0.00  0.00    -0.042 A 
ATOM     31  C   UNL     1      11.342   3.572  -0.440  0.00  0.00    -0.024 A 
ATOM     32  C   UNL     1      10.939   3.139  -1.696  0.00  0.00    +0.006 A 
ATOM     33  C   UNL     1      11.756   3.313  -2.794  0.00  0.00    +0.000 A 
ATOM     34  C   UNL     1      12.987   3.924  -2.643  0.00  0.00    +0.000 A 
ATOM     35  C   UNL     1      13.389   4.356  -1.397  0.00  0.00    +0.004 A 
ENDBRANCH  24  26
ENDBRANCH   5  22
TORSDOF 4
