REMARK  Name = ZINC43250687
REMARK  9 active torsions:
REMARK  status: ('A' for Active; 'I' for Inactive)
REMARK    1  A    between atoms: C_1  and  C_2
REMARK    2  A    between atoms: C_2  and  C_3
REMARK    3  A    between atoms: C_3  and  C_5
REMARK    4  A    between atoms: C_3  and  N_20
REMARK    5  A    between atoms: C_5  and  C_7
REMARK    6  A    between atoms: C_5  and  S_13
REMARK    7  A    between atoms: C_8  and  C_12
REMARK    8  A    between atoms: S_13  and  C_14
REMARK    9  A    between atoms: N_18  and  C_19
REMARK                            x       y       z     vdW  Elec       q    Type
REMARK                         _______ _______ _______ _____ _____    ______ ____
ROOT
ATOM      1  C   UNL     1       0.961  -2.004  -1.149  0.00  0.00    +0.077 C 
ENDROOT
BRANCH   1   2
ATOM      2  C   UNL     1       1.850  -2.289  -2.332  0.00  0.00    +0.004 A 
ATOM      3  C   UNL     1       1.556  -2.941  -3.483  0.00  0.00    -0.039 A 
ATOM      4  C   UNL     1       2.541  -3.085  -4.442  0.00  0.00    +0.011 A 
ATOM      5  C   UNL     1       3.771  -2.570  -4.203  0.00  0.00    +0.046 A 
ATOM      6  S   UNL     1       3.561  -1.848  -2.584  0.00  0.00    -0.100 S 
ATOM      7  C   UNL     1       0.176  -3.501  -3.714  0.00  0.00    +0.044 C 
ENDBRANCH   1   2
BRANCH   1   8
ATOM      8  C   UNL     1       0.547  -0.531  -1.164  0.00  0.00    -0.057 C 
BRANCH   8   9
ATOM      9  N   UNL     1      -0.115  -0.222  -2.439  0.00  0.00    +0.381 N 
ATOM     10  H   UNL     1      -0.933  -0.803  -2.542  0.00  0.00    -0.090 HD
ATOM     11  H   UNL     1      -0.388   0.749  -2.449  0.00  0.00    -0.090 HD
ATOM     12  H   UNL     1       0.523  -0.400  -3.200  0.00  0.00    -0.090 HD
ENDBRANCH   8   9
BRANCH   8  14
ATOM     13  C   UNL     1      -0.729   1.236   0.057  0.00  0.00    +0.002 C 
ATOM     14  C   UNL     1      -0.419  -0.261  -0.009  0.00  0.00    -0.018 C 
ENDBRANCH   8  14
ENDBRANCH   1   8
BRANCH   1  15
ATOM     15  S   UNL     1       1.862  -2.363   0.384  0.00  0.00    -0.081 S 
BRANCH  15  16
ATOM     16  C   UNL     1       2.060  -4.114   0.362  0.00  0.00    +0.169 A 
ATOM     17  N   UNL     1       1.558  -4.932  -0.532  0.00  0.00    -0.230 NA
ATOM     18  C   UNL     1       1.914  -6.192  -0.231  0.00  0.00    +0.131 A 
ATOM     19  C   UNL     1       2.663  -6.165   0.884  0.00  0.00    +0.107 A 
ATOM     20  N   UNL     1       2.766  -4.846   1.267  0.00  0.00    -0.329 N 
ATOM     21  C   UNL     1       3.494  -4.330   2.429  0.00  0.00    +0.151 C 
ENDBRANCH  15  16
ENDBRANCH   1  15
TORSDOF 6
