REMARK  Name = ZINC41513665
REMARK  13 active torsions:
REMARK  status: ('A' for Active; 'I' for Inactive)
REMARK    1  A    between atoms: C_1  and  C_2
REMARK    2  A    between atoms: C_4  and  O_34
REMARK    3  A    between atoms: C_5  and  C_24
REMARK    4  A    between atoms: C_11  and  C_12
REMARK    5  A    between atoms: C_24  and  N_25
REMARK    6  A    between atoms: N_25  and  C_26
REMARK    7  A    between atoms: N_25  and  C_30
REMARK    8  A    between atoms: C_26  and  C_27
REMARK    9  A    between atoms: C_27  and  C_28
REMARK   10  A    between atoms: C_27  and  C_29
REMARK   11  A    between atoms: C_30  and  C_31
REMARK   12  A    between atoms: C_31  and  C_32
REMARK   13  A    between atoms: C_31  and  C_33
REMARK                            x       y       z     vdW  Elec       q    Type
REMARK                         _______ _______ _______ _____ _____    ______ ____
ROOT
ATOM      1  C   UNL     1       1.080   0.800  -0.184  0.00  0.00    +0.045 C 
ATOM      2  C   UNL     1       1.155  -0.688  -0.409  0.00  0.00    -0.033 A 
ATOM      3  C   UNL     1       1.590  -1.178  -1.608  0.00  0.00    +0.050 A 
ATOM      4  C   UNL     1       1.660  -2.552  -1.819  0.00  0.00    +0.122 A 
ATOM      5  C   UNL     1       1.290  -3.438  -0.819  0.00  0.00    +0.020 A 
ATOM      6  C   UNL     1       0.845  -2.956   0.406  0.00  0.00    +0.145 A 
ATOM      7  C   UNL     1       0.785  -1.568   0.608  0.00  0.00    +0.071 A 
ATOM      8  C   UNL     1       0.290  -1.370   1.983  0.00  0.00    +0.232 C 
ATOM      9  O   UNL     1       0.087  -0.314   2.557  0.00  0.00    -0.283 OA
ATOM     10  C   UNL     1       0.096  -2.730   2.505  0.00  0.00    +0.176 C 
ATOM     11  C   UNL     1      -0.352  -3.057   3.744  0.00  0.00    +0.061 C 
ATOM     12  O   UNL     1       0.434  -3.597   1.521  0.00  0.00    -0.451 OA
ENDROOT
BRANCH  11  13
ATOM     13  C   UNL     1      -0.840  -2.010   4.648  0.00  0.00    +0.022 A 
ATOM     14  C   UNL     1      -1.607  -0.950   4.149  0.00  0.00    +0.031 A 
ATOM     15  C   UNL     1      -2.060   0.031   5.005  0.00  0.00    +0.042 A 
ATOM     16  C   UNL     1      -1.758  -0.027   6.356  0.00  0.00    +0.029 A 
ATOM     17  C   UNL     1      -1.002  -1.067   6.863  0.00  0.00    +0.022 A 
ATOM     18  C   UNL     1      -0.546  -2.067   6.021  0.00  0.00    +0.136 A 
ATOM     19  O   UNL     1       0.184  -3.103   6.508  0.00  0.00    -0.465 OA
ATOM     20  C   UNL     1       0.756  -2.936   7.808  0.00  0.00    +0.395 C 
ATOM     21  O   UNL     1      -0.253  -2.429   8.690  0.00  0.00    -0.339 OA
ATOM     22  C   UNL     1      -0.683  -1.107   8.337  0.00  0.00    +0.202 C 
ATOM     23 CL   UNL     1      -3.013   1.344   4.387  0.00  0.00    -0.084 Cl
ENDBRANCH  11  13
BRANCH   4  24
ATOM     24  O   UNL     1       2.093  -3.029  -3.013  0.00  0.00    -0.506 OA
ATOM     25  H   UNL     1       3.055  -3.094  -3.085  0.00  0.00    +0.292 HD
ENDBRANCH   4  24
BRANCH   5  26
ATOM     26  C   UNL     1       1.370  -4.923  -1.061  0.00  0.00    -0.036 C 
BRANCH  26  27
ATOM     27  N   UNL     1       2.626  -5.443  -0.504  0.00  0.00    +0.383 N 
ATOM     28  H   UNL     1       2.698  -5.179   0.467  0.00  0.00    -0.081 HD
BRANCH  27  29
ATOM     29  C   UNL     1       2.643  -6.907  -0.617  0.00  0.00    -0.075 C 
BRANCH  29  30
ATOM     30  C   UNL     1       1.553  -7.499   0.280  0.00  0.00    -0.034 C 
ATOM     31  C   UNL     1       1.518  -9.019   0.104  0.00  0.00    +0.005 C 
ATOM     32  C   UNL     1       1.856  -7.163   1.741  0.00  0.00    +0.005 C 
ENDBRANCH  29  30
ENDBRANCH  27  29
BRANCH  27  33
ATOM     33  C   UNL     1       3.761  -4.882  -1.250  0.00  0.00    -0.075 C 
BRANCH  33  34
ATOM     34  C   UNL     1       5.070  -5.307  -0.582  0.00  0.00    -0.034 C 
ATOM     35  C   UNL     1       6.253  -4.788  -1.402  0.00  0.00    +0.005 C 
ATOM     36  C   UNL     1       5.134  -4.723   0.831  0.00  0.00    +0.005 C 
ENDBRANCH  33  34
ENDBRANCH  27  33
ENDBRANCH  26  27
ENDBRANCH   5  26
TORSDOF 8
