REMARK  Name = ZINC08624436
REMARK  13 active torsions:
REMARK  status: ('A' for Active; 'I' for Inactive)
REMARK    1  A    between atoms: C_1  and  N_48
REMARK    2  A    between atoms: C_2  and  C_3
REMARK    3  A    between atoms: C_2  and  N_48
REMARK    4  A    between atoms: N_5  and  C_8
REMARK    5  A    between atoms: C_8  and  C_9
REMARK    6  A    between atoms: C_11  and  O_27
REMARK    7  A    between atoms: C_13  and  O_26
REMARK    8  A    between atoms: C_15  and  C_18
REMARK    9  A    between atoms: C_18  and  C_19
REMARK   10  A    between atoms: N_21  and  C_22
REMARK   11  A    between atoms: C_22  and  C_23
REMARK   12  A    between atoms: C_23  and  O_24
REMARK   13  A    between atoms: O_24  and  C_25
REMARK                            x       y       z     vdW  Elec       q    Type
REMARK                         _______ _______ _______ _____ _____    ______ ____
ROOT
ATOM      1  C   UNL     1      -1.151   3.155   1.207  0.00  0.00    +0.171 C 
ATOM      2  C   UNL     1      -2.415   4.051   1.251  0.00  0.00    +0.176 C 
ATOM      3  C   UNL     1      -1.906   5.291   2.026  0.00  0.00    +0.175 C 
ATOM      4  C   UNL     1      -0.374   5.235   1.866  0.00  0.00    +0.159 C 
ATOM      5  O   UNL     1      -0.073   4.100   1.036  0.00  0.00    -0.366 OA
ENDROOT
BRANCH   3   6
ATOM      6  O   UNL     1      -2.268   5.200   3.406  0.00  0.00    -0.387 OA
ATOM      7  H   UNL     1      -3.221   5.231   3.565  0.00  0.00    +0.210 HD
ENDBRANCH   3   6
BRANCH   2   8
ATOM      8  O   UNL     1      -3.474   3.405   1.960  0.00  0.00    -0.387 OA
ATOM      9  H   UNL     1      -4.286   3.926   2.015  0.00  0.00    +0.210 HD
ENDBRANCH   2   8
BRANCH   1  10
ATOM     10  C   UNL     1      -1.215   2.191   0.020  0.00  0.00    +0.179 C 
BRANCH  10  13
ATOM     11  C   UNL     1       1.307  -0.363  -0.012  0.00  0.00    +0.066 A 
ATOM     12  C   UNL     1       0.002  -0.004   0.002  0.00  0.00    +0.131 A 
ATOM     13  N   UNL     1      -0.016   1.349   0.009  0.00  0.00    -0.249 N 
ATOM     14  N   UNL     1       1.200   1.769   0.000  0.00  0.00    -0.065 NA
ATOM     15  N   UNL     1       2.014   0.772  -0.013  0.00  0.00    -0.136 NA
BRANCH  11  16
ATOM     16  C   UNL     1       1.856  -1.767  -0.026  0.00  0.00    -0.023 C 
BRANCH  16  18
ATOM     17  C   UNL     1       2.671  -3.537  -1.462  0.00  0.00    -0.100 C 
ATOM     18  N   UNL     1       2.132  -2.165  -1.419  0.00  0.00    +0.381 N 
ATOM     19  H   UNL     1       1.261  -2.126  -1.961  0.00  0.00    -0.086 HD
ATOM     20  H   UNL     1       2.817  -1.518  -1.826  0.00  0.00    -0.086 HD
ENDBRANCH  16  18
ENDBRANCH  11  16
ENDBRANCH  10  13
ENDBRANCH   1  10
BRANCH   4  21
ATOM     21  C   UNL     1       0.129   6.516   1.199  0.00  0.00    +0.130 C 
BRANCH  21  22
ATOM     22  C   UNL     1       1.635   6.496   1.144  0.00  0.00    +0.216 C 
ATOM     23  O   UNL     1       2.245   5.550   1.595  0.00  0.00    -0.276 OA
ATOM     24  N   UNL     1       2.303   7.529   0.595  0.00  0.00    -0.313 N 
ATOM     25  H   UNL     1       1.815   8.286   0.235  0.00  0.00    +0.149 HD
BRANCH  24  26
ATOM     26  C   UNL     1       3.767   7.510   0.542  0.00  0.00    +0.132 C 
BRANCH  26  27
ATOM     27  C   UNL     1       4.271   8.791  -0.125  0.00  0.00    +0.178 C 
BRANCH  27  28
ATOM     28  O   UNL     1       3.937   9.916   0.691  0.00  0.00    -0.381 OA
ATOM     29  C   UNL     1       4.365  11.170   0.155  0.00  0.00    +0.194 C 
ENDBRANCH  27  28
ENDBRANCH  26  27
ENDBRANCH  24  26
ENDBRANCH  21  22
ENDBRANCH   4  21
TORSDOF 11
