REMARK  Name = ZINC63832899
REMARK  5 active torsions:
REMARK  status: ('A' for Active; 'I' for Inactive)
REMARK    1  A    between atoms: C_1  and  C_2
REMARK    2  A    between atoms: C_4  and  N_8
REMARK    3  A    between atoms: N_11  and  C_12
REMARK    4  A    between atoms: C_12  and  C_13
REMARK    5  A    between atoms: C_18  and  C_19
REMARK                            x       y       z     vdW  Elec       q    Type
REMARK                         _______ _______ _______ _____ _____    ______ ____
ROOT
ATOM      1  N   UNL     1      -1.583  -2.683   1.204  0.00  0.00    -0.269 N 
ATOM      2  C   UNL     1      -1.855  -4.002   1.250  0.00  0.00    +0.302 C 
ATOM      3  O   UNL     1      -1.614  -4.706   0.288  0.00  0.00    -0.253 OA
ATOM      4  N   UNL     1      -2.394  -4.541   2.361  0.00  0.00    -0.298 N 
ATOM      5  H   UNL     1      -1.776  -2.121   1.971  0.00  0.00    +0.153 HD
ATOM      6  H   UNL     1      -2.587  -3.979   3.128  0.00  0.00    +0.150 HD
ENDROOT
BRANCH   1  10
ATOM      7  C   UNL     1      -0.018   1.503   0.010  0.00  0.00    +0.081 C 
ATOM      8  C   UNL     1       0.002  -0.004   0.002  0.00  0.00    +0.076 C 
ATOM      9  N   UNL     1      -1.107  -0.621   0.005  0.00  0.00    -0.349 N 
ATOM     10  C   UNL     1      -0.997  -2.097  -0.004  0.00  0.00    +0.249 C 
ATOM     11  S   UNL     1       0.834  -2.273  -0.016  0.00  0.00    -0.015 S 
ATOM     12  N   UNL     1       1.214  -0.636  -0.013  0.00  0.00    -0.276 N 
ATOM     13  H   UNL     1       2.095  -0.230  -0.020  0.00  0.00    +0.161 HD
ATOM     14  H   UNL     1      -1.960  -0.160   0.012  0.00  0.00    +0.163 HD
ENDBRANCH   1  10
BRANCH   4  15
ATOM     15  C   UNL     1      -2.689  -5.975   2.411  0.00  0.00    +0.121 C 
BRANCH  15  16
ATOM     16  C   UNL     1      -3.290  -6.325   3.774  0.00  0.00    +0.101 C 
ATOM     17  C   UNL     1      -2.251  -6.184   4.868  0.00  0.00    +0.119 C 
ATOM     18  N   UNL     1      -2.116  -7.359   5.391  0.00  0.00    -0.161 NA
ATOM     19  N   UNL     1      -2.939  -8.307   4.791  0.00  0.00    -0.153 NA
ATOM     20  C   UNL     1      -3.670  -7.791   3.829  0.00  0.00    +0.087 C 
BRANCH  20  21
ATOM     21  C   UNL     1      -4.613  -8.462   3.013  0.00  0.00    +0.036 A 
ATOM     22  C   UNL     1      -4.995  -9.798   3.033  0.00  0.00    +0.017 A 
ATOM     23  C   UNL     1      -5.946 -10.159   2.107  0.00  0.00    +0.008 A 
ATOM     24  C   UNL     1      -6.434  -9.218   1.262  0.00  0.00    +0.046 A 
ATOM     25  S   UNL     1      -5.625  -7.811   1.698  0.00  0.00    -0.095 S 
ENDBRANCH  20  21
ENDBRANCH  15  16
ENDBRANCH   4  15
TORSDOF 4
