REMARK  Name = ZINC43259912
REMARK  9 active torsions:
REMARK  status: ('A' for Active; 'I' for Inactive)
REMARK    1  A    between atoms: C_1  and  C_2
REMARK    2  A    between atoms: C_2  and  C_3
REMARK    3  A    between atoms: C_3  and  C_5
REMARK    4  A    between atoms: C_3  and  N_21
REMARK    5  A    between atoms: C_5  and  C_7
REMARK    6  A    between atoms: C_5  and  N_13
REMARK    7  A    between atoms: N_13  and  C_14
REMARK    8  A    between atoms: N_13  and  C_15
REMARK    9  A    between atoms: C_15  and  C_16
REMARK                            x       y       z     vdW  Elec       q    Type
REMARK                         _______ _______ _______ _____ _____    ______ ____
ROOT
ATOM      1  C   UNL     1       0.991  -2.287   1.179  0.00  0.00    +0.079 C 
ENDROOT
BRANCH   1   2
ATOM      2  C   UNL     1       1.656  -2.999   0.030  0.00  0.00    +0.006 A 
ATOM      3  C   UNL     1       1.121  -3.405  -1.147  0.00  0.00    +0.014 A 
ATOM      4  C   UNL     1       1.930  -4.048  -2.066  0.00  0.00    +0.023 A 
ATOM      5  C   UNL     1       3.236  -4.253  -1.761  0.00  0.00    +0.055 A 
ATOM      6  S   UNL     1       3.356  -3.520  -0.138  0.00  0.00    -0.085 S 
ATOM      7 BR   UNL     1       4.582  -5.092  -2.791  0.00  0.00    -0.043 Br
ENDBRANCH   1   2
BRANCH   1   8
ATOM      8  N   UNL     1       1.491  -2.832   2.448  0.00  0.00    -0.292 NA
ATOM      9  C   UNL     1       1.282  -4.284   2.516  0.00  0.00    +0.105 C 
BRANCH   8  10
ATOM     10  C   UNL     1       0.866  -2.156   3.593  0.00  0.00    +0.159 C 
BRANCH  10  11
ATOM     11  C   UNL     1       1.664  -2.439   4.840  0.00  0.00    +0.119 A 
ATOM     12  C   UNL     1       2.687  -1.700   5.304  0.00  0.00    +0.046 A 
ATOM     13  C   UNL     1       3.140  -2.324   6.489  0.00  0.00    +0.041 A 
ATOM     14  C   UNL     1       2.367  -3.409   6.678  0.00  0.00    +0.195 A 
ATOM     15  O   UNL     1       1.471  -3.470   5.679  0.00  0.00    -0.467 OA
ENDBRANCH  10  11
ENDBRANCH   8  10
ENDBRANCH   1   8
BRANCH   1  16
ATOM     16  C   UNL     1       1.309  -0.792   1.105  0.00  0.00    -0.053 C 
BRANCH  16  17
ATOM     17  N   UNL     1       0.900  -0.268  -0.205  0.00  0.00    +0.381 N 
ATOM     18  H   UNL     1       1.455  -0.701  -0.928  0.00  0.00    -0.090 HD
ATOM     19  H   UNL     1      -0.075  -0.475  -0.360  0.00  0.00    -0.090 HD
ATOM     20  H   UNL     1       1.040   0.731  -0.226  0.00  0.00    -0.090 HD
ENDBRANCH  16  17
BRANCH  16  22
ATOM     21  C   UNL     1       3.115   0.918   1.343  0.00  0.00    +0.002 C 
ATOM     22  C   UNL     1       2.813  -0.581   1.292  0.00  0.00    -0.018 C 
ENDBRANCH  16  22
ENDBRANCH   1  16
TORSDOF 7
