REMARK  Name = ZINC65518780
REMARK  7 active torsions:
REMARK  status: ('A' for Active; 'I' for Inactive)
REMARK    1  A    between atoms: C_1  and  C_2
REMARK    2  A    between atoms: C_2  and  C_3
REMARK    3  A    between atoms: C_2  and  N_4
REMARK    4  A    between atoms: C_7  and  C_9
REMARK    5  A    between atoms: C_9  and  N_10
REMARK    6  A    between atoms: N_13  and  N_14
REMARK    7  A    between atoms: C_15  and  C_17
REMARK                            x       y       z     vdW  Elec       q    Type
REMARK                         _______ _______ _______ _____ _____    ______ ____
ROOT
ATOM      1  N   UNL     1       1.718  -3.643   4.477  0.00  0.00    -0.298 N 
ATOM      2  C   UNL     1       2.705  -4.346   5.069  0.00  0.00    +0.316 C 
ATOM      3  O   UNL     1       3.724  -4.597   4.456  0.00  0.00    -0.251 OA
ATOM      4  N   UNL     1       2.561  -4.769   6.340  0.00  0.00    -0.218 N 
ATOM      5  H   UNL     1       0.905  -3.443   4.966  0.00  0.00    +0.150 HD
ATOM      6  H   UNL     1       3.271  -5.275   6.766  0.00  0.00    +0.174 HD
ENDROOT
BRANCH   4   7
ATOM      7  N   UNL     1       1.387  -4.480   7.046  0.00  0.00    -0.228 N 
ATOM      8  C   UNL     1       1.243  -4.904   8.318  0.00  0.00    +0.276 C 
ATOM      9  O   UNL     1       2.134  -5.538   8.852  0.00  0.00    -0.267 OA
ATOM     10  H   UNL     1       0.676  -3.974   6.621  0.00  0.00    +0.173 HD
BRANCH   8  11
ATOM     11  C   UNL     1       0.013  -4.600   9.057  0.00  0.00    +0.104 A 
ATOM     12  C   UNL     1      -0.266  -4.963  10.358  0.00  0.00    +0.047 A 
ATOM     13  C   UNL     1      -1.540  -4.470  10.658  0.00  0.00    +0.036 A 
ATOM     14  C   UNL     1      -2.007  -3.829   9.559  0.00  0.00    +0.098 A 
ATOM     15  N   UNL     1      -1.070  -3.897   8.581  0.00  0.00    -0.356 N 
ATOM     16  H   UNL     1      -1.150  -3.514   7.694  0.00  0.00    +0.166 HD
ATOM     17 BR   UNL     1      -2.451  -4.665  12.304  0.00  0.00    -0.049 Br
ENDBRANCH   8  11
ENDBRANCH   4   7
BRANCH   1  18
ATOM     18  C   UNL     1       1.874  -3.183   3.095  0.00  0.00    +0.107 C 
BRANCH  18  22
ATOM     19  N   UNL     1       0.713  -0.491   1.192  0.00  0.00    +0.381 N 
ATOM     20  C   UNL     1      -0.018  -0.094   2.423  0.00  0.00    -0.078 C 
ATOM     21  C   UNL     1       0.491  -1.107   3.479  0.00  0.00    -0.015 C 
ATOM     22  C   UNL     1       0.621  -2.416   2.668  0.00  0.00    -0.012 C 
ATOM     23  C   UNL     1       0.742  -1.969   1.200  0.00  0.00    -0.074 C 
ATOM     24  H   UNL     1       1.652  -0.124   1.211  0.00  0.00    -0.081 HD
BRANCH  19  26
ATOM     25  C   UNL     1      -0.019   1.526   0.010  0.00  0.00    -0.014 C 
ATOM     26  C   UNL     1       0.002  -0.004   0.002  0.00  0.00    -0.075 C 
ATOM     27  C   UNL     1       0.718  -0.497  -1.257  0.00  0.00    -0.014 C 
ENDBRANCH  19  26
ENDBRANCH  18  22
ENDBRANCH   1  18
TORSDOF 5
