REMARK  Name = ZINC67415227
REMARK  11 active torsions:
REMARK  status: ('A' for Active; 'I' for Inactive)
REMARK    1  A    between atoms: C_1  and  C_2
REMARK    2  A    between atoms: C_2  and  C_3
REMARK    3  A    between atoms: C_2  and  C_4
REMARK    4  A    between atoms: C_4  and  N_5
REMARK    5  A    between atoms: C_6  and  N_29
REMARK    6  A    between atoms: C_7  and  C_14
REMARK    7  A    between atoms: C_14  and  C_16
REMARK    8  A    between atoms: C_16  and  N_17
REMARK    9  A    between atoms: C_21  and  C_24
REMARK   10  A    between atoms: C_24  and  N_25
REMARK   11  A    between atoms: C_26  and  C_28
REMARK                            x       y       z     vdW  Elec       q    Type
REMARK                         _______ _______ _______ _____ _____    ______ ____
ROOT
ATOM      1  N   UNL     1      -1.424  -2.008  -0.003  0.00  0.00    -0.281 N 
ATOM      2  C   UNL     1      -1.470  -2.466  -1.289  0.00  0.00    +0.116 A 
ATOM      3  C   UNL     1      -1.445  -3.852  -1.519  0.00  0.00    +0.118 A 
ATOM      4  C   UNL     1      -1.369  -4.740  -0.352  0.00  0.00    +0.266 A 
ATOM      5  O   UNL     1      -1.344  -5.949  -0.491  0.00  0.00    -0.267 OA
ATOM      6  N   UNL     1      -1.329  -4.188   0.878  0.00  0.00    -0.274 N 
ATOM      7  H   UNL     1      -1.279  -4.761   1.659  0.00  0.00    +0.173 HD
ATOM      8  C   UNL     1      -1.351  -2.854   1.036  0.00  0.00    +0.331 A 
ATOM      9  O   UNL     1      -1.308  -2.397   2.162  0.00  0.00    -0.246 OA
ENDROOT
BRANCH   2  10
ATOM     10  N   UNL     1      -1.540  -1.593  -2.331  0.00  0.00    -0.344 N 
ATOM     11  H   UNL     1      -1.637  -0.643  -2.162  0.00  0.00    +0.144 HD
ATOM     12  H   UNL     1      -1.493  -1.922  -3.243  0.00  0.00    +0.144 HD
ENDBRANCH   2  10
BRANCH   3  13
ATOM     13  C   UNL     1      -1.490  -4.374  -2.829  0.00  0.00    +0.155 C 
ATOM     14  O   UNL     1      -1.446  -3.624  -3.784  0.00  0.00    -0.294 OA
BRANCH  13  15
ATOM     15  C   UNL     1      -1.595  -5.862  -3.045  0.00  0.00    +0.002 C 
BRANCH  15  16
ATOM     16  N   UNL     1      -1.625  -6.147  -4.485  0.00  0.00    +0.385 N 
ATOM     17  C   UNL     1      -2.844  -5.576  -5.070  0.00  0.00    -0.078 C 
ATOM     18  C   UNL     1      -2.841  -5.800  -6.584  0.00  0.00    -0.018 C 
ATOM     19  C   UNL     1      -2.791  -7.303  -6.872  0.00  0.00    +0.001 C 
ATOM     20  C   UNL     1      -1.556  -7.902  -6.194  0.00  0.00    -0.011 C 
ATOM     21  C   UNL     1      -1.606  -7.600  -4.695  0.00  0.00    -0.073 C 
ATOM     22  H   UNL     1      -0.817  -5.734  -4.926  0.00  0.00    -0.081 HD
BRANCH  20  23
ATOM     23  C   UNL     1      -1.538  -9.416  -6.411  0.00  0.00    +0.105 C 
BRANCH  23  24
ATOM     24  N   UNL     1      -1.374  -9.703  -7.838  0.00  0.00    -0.315 N 
ATOM     25  C   UNL     1      -1.330 -10.980  -8.268  0.00  0.00    +0.210 C 
ATOM     26  O   UNL     1      -1.426 -11.891  -7.474  0.00  0.00    -0.276 OA
ATOM     27  C   UNL     1      -1.162 -11.275  -9.737  0.00  0.00    +0.109 C 
ATOM     28  H   UNL     1      -1.297  -8.975  -8.474  0.00  0.00    +0.149 HD
ENDBRANCH  23  24
ENDBRANCH  20  23
ENDBRANCH  15  16
ENDBRANCH  13  15
ENDBRANCH   3  13
BRANCH   1  29
ATOM     29  C   UNL     1      -1.450  -0.565   0.247  0.00  0.00    +0.131 C 
BRANCH  29  31
ATOM     30  C   UNL     1      -0.050   1.499   0.399  0.00  0.00    +0.009 C 
ATOM     31  C   UNL     1      -0.018  -0.025   0.263  0.00  0.00    +0.003 C 
ATOM     32  C   UNL     1       0.741  -0.627   1.447  0.00  0.00    +0.009 C 
ENDBRANCH  29  31
ENDBRANCH   1  29
TORSDOF 8
