REMARK  Name = ZINC65169183
REMARK  3 active torsions:
REMARK  status: ('A' for Active; 'I' for Inactive)
REMARK    1  A    between atoms: C_6  and  C_7
REMARK    2  A    between atoms: N_15  and  S_17
REMARK    3  A    between atoms: S_17  and  C_20
REMARK                            x       y       z     vdW  Elec       q    Type
REMARK                         _______ _______ _______ _____ _____    ______ ____
ROOT
ATOM      1  C   UNL     1      -1.270  -0.765   0.010  0.00  0.00    +0.160 A 
ATOM      2  N   UNL     1      -2.420  -0.104   0.019  0.00  0.00    -0.235 NA
ATOM      3  C   UNL     1      -3.568  -0.757   0.032  0.00  0.00    +0.120 A 
ATOM      4  C   UNL     1      -3.562  -2.147   0.032  0.00  0.00    +0.008 A 
ATOM      5  C   UNL     1      -2.351  -2.806   0.012  0.00  0.00    +0.051 A 
ATOM      6  N   UNL     1      -1.233  -2.088   0.003  0.00  0.00    -0.232 NA
ATOM      7  C   UNL     1      -2.236  -4.305  -0.020  0.00  0.00    +0.073 C 
ATOM      8  C   UNL     1      -3.531  -4.958   0.465  0.00  0.00    +0.116 C 
ATOM      9  N   UNL     1      -4.657  -4.300  -0.219  0.00  0.00    -0.172 NA
ATOM     10  C   UNL     1      -4.879  -2.877   0.061  0.00  0.00    +0.147 C 
ENDROOT
BRANCH   1  16
ATOM     11  C   UNL     1      -0.017   1.390   0.010  0.00  0.00    +0.014 A 
ATOM     12  C   UNL     1       1.169   2.094   0.002  0.00  0.00    +0.039 A 
ATOM     13  C   UNL     1       2.379   1.417  -0.013  0.00  0.00    +0.123 A 
ATOM     14  C   UNL     1       2.402   0.032  -0.022  0.00  0.00    +0.039 A 
ATOM     15  C   UNL     1       1.221  -0.680  -0.014  0.00  0.00    +0.014 A 
ATOM     16  C   UNL     1       0.002  -0.004   0.002  0.00  0.00    +0.019 A 
ATOM     17  F   UNL     1       3.538   2.111  -0.021  0.00  0.00    -0.205 F 
ENDBRANCH   1  16
BRANCH   9  18
ATOM     18  S   UNL     1      -5.636  -5.135  -1.262  0.00  0.00    +0.061 S 
ATOM     19  O   UNL     1      -6.211  -4.173  -2.136  0.00  0.00    -0.153 OA
ATOM     20  O   UNL     1      -4.876  -6.238  -1.737  0.00  0.00    -0.153 OA
BRANCH  18  21
ATOM     21  C   UNL     1      -6.958  -5.807  -0.311  0.00  0.00    +0.106 A 
ATOM     22  C   UNL     1      -6.832  -7.061   0.258  0.00  0.00    +0.030 A 
ATOM     23  C   UNL     1      -7.869  -7.588   1.004  0.00  0.00    +0.022 A 
ATOM     24  C   UNL     1      -9.033  -6.862   1.181  0.00  0.00    +0.041 A 
ATOM     25  C   UNL     1      -9.159  -5.607   0.611  0.00  0.00    +0.022 A 
ATOM     26  C   UNL     1      -8.119  -5.078  -0.130  0.00  0.00    +0.030 A 
ATOM     27 CL   UNL     1     -10.336  -7.524   2.117  0.00  0.00    -0.084 Cl
ENDBRANCH  18  21
ENDBRANCH   9  18
TORSDOF 3
