REMARK  Name = ZINC63614475
REMARK  6 active torsions:
REMARK  status: ('A' for Active; 'I' for Inactive)
REMARK    1  A    between atoms: C_1  and  C_2
REMARK    2  A    between atoms: C_5  and  N_8
REMARK    3  A    between atoms: C_11  and  C_14
REMARK    4  A    between atoms: N_16  and  C_17
REMARK    5  A    between atoms: C_17  and  C_18
REMARK    6  A    between atoms: C_18  and  C_19
REMARK                            x       y       z     vdW  Elec       q    Type
REMARK                         _______ _______ _______ _____ _____    ______ ____
ROOT
ATOM      1  C   UNL     1       0.555  -8.121   2.795  0.00  0.00    +0.263 C 
ATOM      2  O   UNL     1       0.648  -8.574   3.920  0.00  0.00    -0.269 OA
ATOM      3  N   UNL     1       0.584  -8.948   1.731  0.00  0.00    -0.310 N 
ATOM      4  H   UNL     1       0.510  -8.587   0.834  0.00  0.00    +0.149 HD
ENDROOT
BRANCH   1   8
ATOM      5  N   UNL     1       0.057  -4.168  -0.021  0.00  0.00    -0.294 N 
ATOM      6  C   UNL     1       0.177  -4.866   1.170  0.00  0.00    +0.163 A 
ATOM      7  N   UNL     1       0.307  -6.163   1.365  0.00  0.00    -0.220 NA
ATOM      8  C   UNL     1       0.411  -6.670   2.595  0.00  0.00    +0.135 A 
ATOM      9  C   UNL     1       0.380  -5.819   3.671  0.00  0.00    +0.081 A 
ATOM     10  S   UNL     1       0.203  -4.243   2.845  0.00  0.00    -0.060 S 
ATOM     11  H   UNL     1      -0.026  -4.650  -0.859  0.00  0.00    +0.154 HD
BRANCH   5  16
ATOM     12  C   UNL     1       0.053   1.503   0.002  0.00  0.00    +0.044 C 
ATOM     13  C   UNL     1       0.054  -0.004  -0.004  0.00  0.00    -0.050 A 
ATOM     14  C   UNL     1       0.809  -0.697   0.925  0.00  0.00    +0.005 A 
ATOM     15  C   UNL     1       0.812  -2.078   0.922  0.00  0.00    +0.023 A 
ATOM     16  C   UNL     1       0.056  -2.771  -0.015  0.00  0.00    +0.033 A 
ATOM     17  C   UNL     1      -0.702  -2.071  -0.946  0.00  0.00    +0.023 A 
ATOM     18  C   UNL     1      -0.705  -0.690  -0.934  0.00  0.00    +0.005 A 
ENDBRANCH   5  16
ENDBRANCH   1   8
BRANCH   3  19
ATOM     19  C   UNL     1       0.728 -10.393   1.930  0.00  0.00    +0.109 C 
BRANCH  19  20
ATOM     20  C   UNL     1       0.732 -11.097   0.571  0.00  0.00    +0.052 C 
BRANCH  20  21
ATOM     21  C   UNL     1       0.880 -12.582   0.776  0.00  0.00    -0.040 C 
ATOM     22  C   UNL     1      -0.114 -13.498   0.836  0.00  0.00    -0.001 A 
ATOM     23  C   UNL     1      -1.574 -13.388   0.734  0.00  0.00    +0.010 A 
ATOM     24  C   UNL     1      -2.325 -14.509   0.837  0.00  0.00    +0.001 A 
ATOM     25  C   UNL     1      -1.744 -15.769   1.038  0.00  0.00    +0.002 A 
ATOM     26  C   UNL     1      -0.410 -15.949   1.141  0.00  0.00    +0.026 A 
ATOM     27  C   UNL     1       0.474 -14.840   1.048  0.00  0.00    +0.043 A 
ATOM     28  N   UNL     1       1.781 -14.757   1.116  0.00  0.00    -0.380 N 
ATOM     29  C   UNL     1       2.170 -13.352   0.949  0.00  0.00    +0.144 C 
ATOM     30  H   UNL     1       2.389 -15.501   1.250  0.00  0.00    +0.160 HD
ENDBRANCH  20  21
ENDBRANCH  19  20
ENDBRANCH   3  19
TORSDOF 5
