REMARK  Name = ZINC58866816
REMARK  11 active torsions:
REMARK  status: ('A' for Active; 'I' for Inactive)
REMARK    1  A    between atoms: C_1  and  C_2
REMARK    2  A    between atoms: C_2  and  C_4
REMARK    3  A    between atoms: C_7  and  N_10
REMARK    4  A    between atoms: C_11  and  C_13
REMARK    5  A    between atoms: C_13  and  N_14
REMARK    6  A    between atoms: N_14  and  C_15
REMARK    7  A    between atoms: C_15  and  C_16
REMARK    8  A    between atoms: C_16  and  N_17
REMARK    9  A    between atoms: N_17  and  C_18
REMARK   10  A    between atoms: C_21  and  C_27
REMARK   11  A    between atoms: C_23  and  N_24
REMARK                            x       y       z     vdW  Elec       q    Type
REMARK                         _______ _______ _______ _____ _____    ______ ____
ROOT
ATOM      1  N   UNL     1       0.588  -6.305  -5.924  0.00  0.00    +0.386 N 
ATOM      2  H   UNL     1       1.406  -6.519  -5.374  0.00  0.00    -0.085 HD
ATOM      3  H   UNL     1      -0.239  -6.591  -5.422  0.00  0.00    -0.085 HD
ENDROOT
BRANCH   1   4
ATOM      4  C   UNL     1       0.532  -4.858  -6.174  0.00  0.00    +0.015 C 
BRANCH   4   6
ATOM      5  N   UNL     1       0.401  -2.777  -4.844  0.00  0.00    -0.287 N 
ATOM      6  C   UNL     1       0.461  -4.123  -4.861  0.00  0.00    +0.200 C 
ATOM      7  O   UNL     1       0.457  -4.743  -3.818  0.00  0.00    -0.278 OA
ATOM      8  H   UNL     1       0.328  -2.284  -5.676  0.00  0.00    +0.155 HD
BRANCH   5  12
ATOM      9  C   UNL     1       0.531  -0.733  -1.222  0.00  0.00    +0.017 A 
ATOM     10  C   UNL     1       1.249  -1.926  -1.382  0.00  0.00    +0.013 A 
ATOM     11  C   UNL     1       1.203  -2.596  -2.577  0.00  0.00    +0.024 A 
ATOM     12  C   UNL     1       0.445  -2.093  -3.631  0.00  0.00    +0.033 A 
ATOM     13  C   UNL     1      -0.269  -0.907  -3.477  0.00  0.00    +0.024 A 
ATOM     14  C   UNL     1      -0.234  -0.234  -2.284  0.00  0.00    +0.013 A 
BRANCH   9  16
ATOM     15  C   UNL     1       1.401  -0.552   1.196  0.00  0.00    +0.091 C 
ATOM     16  C   UNL     1       0.577  -0.012   0.056  0.00  0.00    +0.160 C 
ATOM     17  O   UNL     1      -0.049   1.018   0.194  0.00  0.00    -0.292 OA
ENDBRANCH   9  16
ENDBRANCH   5  12
ENDBRANCH   4   6
ENDBRANCH   1   4
BRANCH   1  18
ATOM     18  C   UNL     1       0.657  -7.021  -7.204  0.00  0.00    -0.063 C 
BRANCH  18  19
ATOM     19  C   UNL     1       0.715  -8.528  -6.943  0.00  0.00    +0.082 C 
BRANCH  19  20
ATOM     20  N   UNL     1       0.784  -9.242  -8.220  0.00  0.00    -0.344 N 
ATOM     21  H   UNL     1       0.787  -8.746  -9.054  0.00  0.00    +0.146 HD
BRANCH  20  22
ATOM     22  C   UNL     1       0.846 -10.637  -8.237  0.00  0.00    +0.058 A 
ATOM     23  C   UNL     1       0.751 -11.353  -7.050  0.00  0.00    +0.026 A 
ATOM     24  C   UNL     1       0.812 -12.732  -7.071  0.00  0.00    +0.014 A 
ATOM     25  C   UNL     1       0.967 -13.402  -8.271  0.00  0.00    +0.057 A 
ATOM     26  C   UNL     1       1.062 -12.692  -9.454  0.00  0.00    +0.047 A 
ATOM     27  C   UNL     1       0.996 -11.313  -9.442  0.00  0.00    +0.147 A 
BRANCH  25  28
ATOM     28  C   UNL     1       1.034 -14.907  -8.290  0.00  0.00    +0.417 C 
ATOM     29  F   UNL     1       0.917 -15.395  -6.984  0.00  0.00    -0.166 F 
ATOM     30  F   UNL     1      -0.012 -15.410  -9.071  0.00  0.00    -0.166 F 
ATOM     31  F   UNL     1       2.258 -15.313  -8.832  0.00  0.00    -0.166 F 
ENDBRANCH  25  28
BRANCH  27  32
ATOM     32  N   UNL     1       1.092 -10.555 -10.709  0.00  0.00    +0.058 N 
ATOM     33  O   UNL     1       0.418  -9.565 -10.874  0.00  0.00    -0.126 OA
ATOM     34  O   UNL     1       1.844 -10.925 -11.580  0.00  0.00    -0.126 OA
ENDBRANCH  27  32
ENDBRANCH  20  22
ENDBRANCH  19  20
ENDBRANCH  18  19
ENDBRANCH   1  18
TORSDOF 10
