REMARK  Name = ZINC35355699
REMARK  9 active torsions:
REMARK  status: ('A' for Active; 'I' for Inactive)
REMARK    1  A    between atoms: C_3  and  N_10
REMARK    2  A    between atoms: C_5  and  N_7
REMARK    3  A    between atoms: C_11  and  C_13
REMARK    4  A    between atoms: C_13  and  C_14
REMARK    5  A    between atoms: C_14  and  C_16
REMARK    6  A    between atoms: C_14  and  N_19
REMARK    7  A    between atoms: N_19  and  C_20
REMARK    8  A    between atoms: C_20  and  C_21
REMARK    9  A    between atoms: C_21  and  N_22
REMARK                            x       y       z     vdW  Elec       q    Type
REMARK                         _______ _______ _______ _____ _____    ______ ____
ROOT
ATOM      1  C   UNK A   1       4.567   5.728  -0.329  0.00  0.00    +0.052 C 
ENDROOT
BRANCH   1   2
ATOM      2  C   UNK A   1       5.863   6.497  -0.328  0.00  0.00    +0.343 C 
ATOM      3  O   UNK A   1       6.236   7.064  -1.340  0.00  0.00    -0.248 OA
ATOM      4  O   UNK A   1       6.538   6.552   0.686  0.00  0.00    -0.248 OA
ENDBRANCH   1   2
BRANCH   1   5
ATOM      5  N   UNK A   1       3.833   6.007  -1.571  0.00  0.00    +0.389 N 
ATOM      6  H   UNK A   1       4.423   5.803  -2.363  0.00  0.00    -0.085 HD
ATOM      7  H   UNK A   1       3.006   5.430  -1.609  0.00  0.00    -0.085 HD
BRANCH   5   8
ATOM      8  C   UNK A   0       3.444   7.423  -1.601  0.00  0.00    -0.066 C 
BRANCH   8   9
ATOM      9  C   UNK A   0       2.679   7.715  -2.894  0.00  0.00    +0.065 C 
BRANCH   9  10
ATOM     10  N   UNK A   0       2.291   9.131  -2.925  0.00  0.00    -0.308 NA
ATOM     11  C   UNK A   0       3.472   9.999  -3.021  0.00  0.00    +0.065 C 
ATOM     12  C   UNK A   0       3.029  11.464  -2.990  0.00  0.00    -0.067 C 
ATOM     13  N   UNK A   0       2.117  11.723  -4.112  0.00  0.00    +0.381 N 
ATOM     14  C   UNK A   0       0.931  10.866  -3.989  0.00  0.00    -0.067 C 
ATOM     15  C   UNK A   0       1.357   9.397  -4.028  0.00  0.00    +0.065 C 
ATOM     16  H   UNK A   0       1.835  12.692  -4.098  0.00  0.00    -0.086 HD
ATOM     17  H   UNK A   0       2.588  11.523  -4.981  0.00  0.00    -0.086 HD
ENDBRANCH   9  10
ENDBRANCH   8   9
ENDBRANCH   5   8
ENDBRANCH   1   5
BRANCH   1  18
ATOM     18  C   UNK A   1       4.863   4.229  -0.238  0.00  0.00    +0.091 C 
BRANCH  18  20
ATOM     19  N   UNK A   1       3.584   2.123  -0.021  0.00  0.00    -0.285 N 
ATOM     20  C   UNK A   1       3.569   3.468  -0.116  0.00  0.00    +0.216 C 
ATOM     21  O   UNK A   1       2.513   4.065  -0.103  0.00  0.00    -0.276 OA
ATOM     22  H   UNK A   1       4.429   1.651   0.036  0.00  0.00    +0.155 HD
BRANCH  19  25
ATOM     23  C   UNK A   1       1.114  -0.539  -0.595  0.00  0.00    +0.004 A 
ATOM     24  C   UNK A   1       2.303   0.163  -0.613  0.00  0.00    +0.023 A 
ATOM     25  C   UNK A   1       2.381   1.409  -0.005  0.00  0.00    +0.036 A 
ATOM     26  C   UNK A   1       1.262   1.946   0.619  0.00  0.00    +0.056 A 
ATOM     27  C   UNK A   1       0.076   1.238   0.633  0.00  0.00    +0.128 A 
ATOM     28  C   UNK A   1       0.002  -0.003   0.027  0.00  0.00    +0.033 A 
BRANCH  27  29
ATOM     29  N   UNK A   1      -1.117   1.809   1.298  0.00  0.00    +0.056 N 
ATOM     30  O   UNK A   1      -1.053   2.894   1.827  0.00  0.00    -0.126 OA
ATOM     31  O   UNK A   1      -2.156   1.190   1.311  0.00  0.00    -0.126 OA
ENDBRANCH  27  29
ENDBRANCH  19  25
ENDBRANCH  18  20
ENDBRANCH   1  18
TORSDOF 9
