REMARK  Name = ZINC19222107
REMARK  7 active torsions:
REMARK  status: ('A' for Active; 'I' for Inactive)
REMARK    1  A    between atoms: C_6  and  C_7
REMARK    2  A    between atoms: C_7  and  N_8
REMARK    3  A    between atoms: N_8  and  C_22
REMARK    4  A    between atoms: C_9  and  C_11
REMARK    5  A    between atoms: C_11  and  S_12
REMARK    6  A    between atoms: S_12  and  C_13
REMARK    7  A    between atoms: C_13  and  C_14
REMARK                            x       y       z     vdW  Elec       q    Type
REMARK                         _______ _______ _______ _____ _____    ______ ____
ROOT
ATOM      1  N   UNL     1       0.259   1.745   0.175  0.00  0.00    -0.291 N 
ATOM      2  C   UNL     1      -1.032   2.060  -0.049  0.00  0.00    +0.226 C 
ATOM      3  O   UNL     1      -1.881   1.195  -0.020  0.00  0.00    -0.275 OA
ENDROOT
BRANCH   1   4
ATOM      4  C   UNL     1       1.269   2.803   0.255  0.00  0.00    +0.039 C 
ATOM      5  C   UNL     1       1.032   3.640   1.514  0.00  0.00    +0.029 C 
ATOM      6  C   UNL     1       2.087   4.745   1.598  0.00  0.00    -0.008 C 
ATOM      7  C   UNL     1       3.481   4.117   1.657  0.00  0.00    +0.007 C 
ATOM      8  C   UNL     1       3.717   3.281   0.398  0.00  0.00    -0.008 C 
ATOM      9  C   UNL     1       2.663   2.175   0.314  0.00  0.00    +0.029 C 
ATOM     10  C   UNL     1       3.614   4.178  -0.837  0.00  0.00    +0.007 C 
ATOM     11  C   UNL     1       2.220   4.806  -0.896  0.00  0.00    -0.008 C 
ATOM     12  C   UNL     1       1.984   5.643   0.363  0.00  0.00    +0.007 C 
ATOM     13  C   UNL     1       1.166   3.700  -0.980  0.00  0.00    +0.029 C 
ENDBRANCH   1   4
BRANCH   1  14
ATOM     14  C   UNL     1       0.654   0.343   0.334  0.00  0.00    +0.143 C 
BRANCH  14  20
ATOM     15  C   UNL     1       1.494  -0.033   2.661  0.00  0.00    +0.008 A 
ATOM     16  C   UNL     1       1.301  -0.416   3.975  0.00  0.00    +0.038 A 
ATOM     17  C   UNL     1       0.056  -0.856   4.391  0.00  0.00    +0.123 A 
ATOM     18  C   UNL     1      -0.996  -0.907   3.491  0.00  0.00    +0.038 A 
ATOM     19  C   UNL     1      -0.801  -0.519   2.179  0.00  0.00    +0.008 A 
ATOM     20  C   UNL     1       0.443  -0.080   1.765  0.00  0.00    -0.030 A 
ATOM     21  F   UNL     1      -0.134  -1.235   5.674  0.00  0.00    -0.205 F 
ENDBRANCH  14  20
ENDBRANCH   1  14
BRANCH   2  22
ATOM     22  C   UNL     1      -1.419   3.488  -0.337  0.00  0.00    +0.165 C 
BRANCH  22  23
ATOM     23  S   UNL     1      -3.208   3.687  -0.107  0.00  0.00    -0.144 S 
BRANCH  23  24
ATOM     24  C   UNL     1      -3.507   5.435  -0.486  0.00  0.00    +0.145 C 
BRANCH  24  25
ATOM     25  C   UNL     1      -4.975   5.738  -0.332  0.00  0.00    +0.146 A 
ATOM     26  N   UNL     1      -5.787   5.608  -1.366  0.00  0.00    -0.199 NA
ATOM     27  C   UNL     1      -7.086   5.870  -1.232  0.00  0.00    +0.217 A 
ATOM     28  N   UNL     1      -7.563   6.274  -0.060  0.00  0.00    -0.181 NA
ATOM     29  C   UNL     1      -6.742   6.408   0.976  0.00  0.00    +0.217 A 
ATOM     30  N   UNL     1      -5.446   6.139   0.836  0.00  0.00    -0.199 NA
ATOM     31  N   UNL     1      -7.233   6.827   2.196  0.00  0.00    -0.327 N 
ATOM     32  N   UNL     1      -7.934   5.729  -2.312  0.00  0.00    -0.327 N 
ATOM     33  H   UNL     1      -6.553   6.938   3.054  0.00  0.00    +0.145 HD
ATOM     34  H   UNL     1      -8.304   7.050   2.311  0.00  0.00    +0.145 HD
ATOM     35  H   UNL     1      -9.007   5.946  -2.200  0.00  0.00    +0.145 HD
ATOM     36  H   UNL     1      -7.537   5.399  -3.283  0.00  0.00    +0.145 HD
ENDBRANCH  24  25
ENDBRANCH  23  24
ENDBRANCH  22  23
ENDBRANCH   2  22
TORSDOF 7
