REMARK  Name = ZINC39652818
REMARK  6 active torsions:
REMARK  status: ('A' for Active; 'I' for Inactive)
REMARK    1  A    between atoms: C_1  and  C_2
REMARK    2  A    between atoms: C_5  and  C_8
REMARK    3  A    between atoms: C_12  and  C_21
REMARK    4  A    between atoms: N_23  and  C_24
REMARK    5  A    between atoms: C_24  and  C_25
REMARK    6  A    between atoms: C_25  and  C_26
REMARK                            x       y       z     vdW  Elec       q    Type
REMARK                         _______ _______ _______ _____ _____    ______ ____
ROOT
ATOM      1  C   UNL     1       0.058  -4.249  -0.021  0.00  0.00    +0.247 C 
ATOM      2  O   UNL     1      -0.047  -4.852  -1.071  0.00  0.00    -0.270 OA
ATOM      3  N   UNL     1       0.175  -4.928   1.137  0.00  0.00    -0.296 N 
ATOM      4  C   UNL     1       0.185  -4.381   2.514  0.00  0.00    +0.121 C 
ATOM      5  C   UNL     1      -0.633  -5.395   3.344  0.00  0.00    +0.100 C 
ATOM      6  C   UNL     1      -0.537  -6.713   2.557  0.00  0.00    -0.004 C 
ATOM      7  C   UNL     1       0.317  -6.393   1.322  0.00  0.00    +0.115 C 
ATOM      8  C   UNL     1       0.139  -7.787   3.405  0.00  0.00    -0.010 C 
ATOM      9  C   UNL     1       0.170  -9.103   2.623  0.00  0.00    -0.082 C 
ATOM     10  N   UNL     1      -1.200  -9.508   2.287  0.00  0.00    +0.379 N 
ATOM     11  C   UNL     1      -1.812  -8.514   1.396  0.00  0.00    -0.082 C 
ATOM     12  C   UNL     1      -1.927  -7.173   2.126  0.00  0.00    -0.010 C 
ATOM     13  H   UNL     1      -1.181 -10.405   1.826  0.00  0.00    -0.086 HD
ATOM     14  H   UNL     1      -1.745  -9.579   3.134  0.00  0.00    -0.086 HD
ENDROOT
BRANCH   1  19
ATOM     15  C   UNL     1       0.057   1.506   0.006  0.00  0.00    +0.044 C 
ATOM     16  C   UNL     1       0.057  -0.001  -0.001  0.00  0.00    -0.050 A 
ATOM     17  C   UNL     1      -0.548  -0.685  -1.040  0.00  0.00    +0.004 A 
ATOM     18  C   UNL     1      -0.551  -2.065  -1.053  0.00  0.00    +0.013 A 
ATOM     19  C   UNL     1       0.058  -2.771  -0.014  0.00  0.00    +0.037 A 
ATOM     20  C   UNL     1       0.667  -2.074   1.031  0.00  0.00    +0.013 A 
ATOM     21  C   UNL     1       0.668  -0.695   1.029  0.00  0.00    +0.004 A 
ENDBRANCH   1  19
BRANCH   5  22
ATOM     22  C   UNL     1      -0.033  -5.556   4.717  0.00  0.00    +0.218 C 
ATOM     23  O   UNL     1       1.144  -5.323   4.895  0.00  0.00    -0.275 OA
ATOM     24  N   UNL     1      -0.804  -5.959   5.746  0.00  0.00    -0.315 N 
ATOM     25  H   UNL     1      -1.745  -6.146   5.604  0.00  0.00    +0.149 HD
BRANCH  24  26
ATOM     26  C   UNL     1      -0.220  -6.116   7.081  0.00  0.00    +0.109 C 
BRANCH  26  27
ATOM     27  C   UNL     1      -1.301  -6.580   8.059  0.00  0.00    +0.054 C 
BRANCH  27  28
ATOM     28  C   UNL     1      -0.701  -6.740   9.432  0.00  0.00    -0.046 A 
ATOM     29  C   UNL     1      -0.157  -7.954   9.810  0.00  0.00    +0.005 A 
ATOM     30  C   UNL     1       0.394  -8.101  11.069  0.00  0.00    +0.015 A 
ATOM     31  C   UNL     1       0.401  -7.035  11.951  0.00  0.00    +0.018 A 
ATOM     32  C   UNL     1      -0.144  -5.822  11.572  0.00  0.00    +0.015 A 
ATOM     33  C   UNL     1      -0.690  -5.673  10.311  0.00  0.00    +0.005 A 
ATOM     34 BR   UNL     1       1.154  -7.237  13.673  0.00  0.00    -0.050 Br
ENDBRANCH  27  28
ENDBRANCH  26  27
ENDBRANCH  24  26
ENDBRANCH   5  22
TORSDOF 5
