REMARK  Name = ZINC36213540
REMARK  10 active torsions:
REMARK  status: ('A' for Active; 'I' for Inactive)
REMARK    1  A    between atoms: C_1  and  C_2
REMARK    2  A    between atoms: C_2  and  C_4
REMARK    3  A    between atoms: C_2  and  S_10
REMARK    4  A    between atoms: S_10  and  C_11
REMARK    5  A    between atoms: N_24  and  C_25
REMARK    6  A    between atoms: C_25  and  C_26
REMARK    7  A    between atoms: C_26  and  C_27
REMARK    8  A    between atoms: C_27  and  N_28
REMARK    9  A    between atoms: N_28  and  C_29
REMARK   10  A    between atoms: N_28  and  C_30
REMARK                            x       y       z     vdW  Elec       q    Type
REMARK                         _______ _______ _______ _____ _____    ______ ____
ROOT
ATOM      1  C   UNL     1       2.509  -0.029  -1.285  0.00  0.00    +0.173 A 
ATOM      2  N   UNL     1       2.838   0.645  -0.202  0.00  0.00    -0.216 NA
ATOM      3  C   UNL     1       4.080   1.079  -0.021  0.00  0.00    +0.117 A 
ATOM      4  C   UNL     1       5.096   0.847  -0.963  0.00  0.00    +0.076 A 
ATOM      5  C   UNL     1       6.415   1.387  -0.626  0.00  0.00    -0.023 A 
ATOM      6  C   UNL     1       6.525   2.049   0.544  0.00  0.00    -0.004 A 
ATOM      7  S   UNL     1       4.903   1.994   1.258  0.00  0.00    -0.073 S 
ATOM      8  C   UNL     1       7.754   2.690   1.113  0.00  0.00    +0.043 C 
ATOM      9  C   UNL     1       8.974   2.168   0.341  0.00  0.00    +0.005 C 
ATOM     10  C   UNL     1       8.681   2.256  -1.160  0.00  0.00    +0.005 C 
ATOM     11  C   UNL     1       7.623   1.221  -1.544  0.00  0.00    +0.037 C 
ATOM     12  C   UNL     1       4.711   0.113  -2.129  0.00  0.00    +0.263 A 
ATOM     13  O   UNL     1       5.527  -0.137  -2.999  0.00  0.00    -0.267 OA
ATOM     14  N   UNL     1       3.437  -0.303  -2.248  0.00  0.00    -0.287 N 
ENDROOT
BRANCH   1  15
ATOM     15  S   UNL     1       0.851  -0.589  -1.490  0.00  0.00    -0.075 S 
BRANCH  15  17
ATOM     16  C   UNL     1      -0.019   1.526   0.010  0.00  0.00    +0.029 C 
ATOM     17  C   UNL     1       0.002  -0.004   0.002  0.00  0.00    +0.137 C 
BRANCH  17  18
ATOM     18  C   UNL     1      -1.412  -0.526   0.013  0.00  0.00    +0.233 C 
ATOM     19  O   UNL     1      -1.927  -0.901  -1.018  0.00  0.00    -0.274 OA
ATOM     20  N   UNL     1      -2.103  -0.575   1.169  0.00  0.00    -0.239 N 
ATOM     21  C   UNL     1      -3.368  -1.042   1.178  0.00  0.00    +0.303 C 
ATOM     22  O   UNL     1      -3.884  -1.418   0.144  0.00  0.00    -0.253 OA
ATOM     23  N   UNL     1      -4.059  -1.091   2.334  0.00  0.00    -0.313 N 
ATOM     24  H   UNL     1      -1.691  -0.275   1.994  0.00  0.00    +0.159 HD
ATOM     25  H   UNL     1      -3.647  -0.790   3.159  0.00  0.00    +0.146 HD
ATOM     26  H   UNL     1      -4.969  -1.427   2.341  0.00  0.00    +0.146 HD
ENDBRANCH  17  18
ENDBRANCH  15  17
ENDBRANCH   1  15
BRANCH  14  27
ATOM     27  C   UNL     1       3.036  -1.060  -3.436  0.00  0.00    +0.125 C 
BRANCH  27  28
ATOM     28  C   UNL     1       2.563  -0.092  -4.523  0.00  0.00    +0.003 C 
BRANCH  28  29
ATOM     29  C   UNL     1       2.145  -0.883  -5.764  0.00  0.00    -0.078 C 
BRANCH  29  30
ATOM     30  N   UNL     1       1.691   0.046  -6.807  0.00  0.00    +0.376 N 
ATOM     31  C   UNL     1       1.403  -0.702  -8.038  0.00  0.00    -0.097 C 
ATOM     32  C   UNL     1       0.474   0.733  -6.355  0.00  0.00    -0.097 C 
ATOM     33  H   UNL     1       2.413   0.727  -6.988  0.00  0.00    -0.083 HD
ENDBRANCH  29  30
ENDBRANCH  28  29
ENDBRANCH  27  28
ENDBRANCH  14  27
TORSDOF 7
