REMARK  Name = ZINC58912410
REMARK  11 active torsions:
REMARK  status: ('A' for Active; 'I' for Inactive)
REMARK    1  A    between atoms: C_1  and  C_2
REMARK    2  A    between atoms: C_3  and  C_16
REMARK    3  A    between atoms: C_4  and  C_15
REMARK    4  A    between atoms: C_16  and  C_17
REMARK    5  A    between atoms: C_17  and  C_18
REMARK    6  A    between atoms: N_20  and  C_21
REMARK    7  A    between atoms: C_21  and  C_23
REMARK    8  A    between atoms: C_21  and  C_24
REMARK    9  A    between atoms: C_29  and  N_30
REMARK   10  A    between atoms: N_30  and  S_31
REMARK   11  A    between atoms: S_31  and  C_34
REMARK                            x       y       z     vdW  Elec       q    Type
REMARK                         _______ _______ _______ _____ _____    ______ ____
ROOT
ATOM      1  C   UNL     1      -2.898   0.357   1.456  0.00  0.00    +0.100 C 
ENDROOT
BRANCH   1   2
ATOM      2  C   UNL     1      -4.218   1.086   1.466  0.00  0.00    +0.214 C 
ATOM      3  O   UNL     1      -4.798   1.304   0.424  0.00  0.00    -0.276 OA
ATOM      4  N   UNL     1      -4.753   1.494   2.634  0.00  0.00    -0.309 N 
ATOM      5  H   UNL     1      -4.288   1.319   3.468  0.00  0.00    +0.149 HD
BRANCH   4   6
ATOM      6  C   UNL     1      -6.035   2.201   2.645  0.00  0.00    +0.102 C 
ATOM      7  C   UNL     1      -5.796   3.693   2.402  0.00  0.00    +0.033 C 
BRANCH   6   8
ATOM      8  C   UNL     1      -6.703   2.011   3.982  0.00  0.00    -0.003 A 
ATOM      9  C   UNL     1      -5.942   1.740   5.103  0.00  0.00    +0.007 A 
ATOM     10  C   UNL     1      -6.554   1.565   6.330  0.00  0.00    +0.000 A 
ATOM     11  C   UNL     1      -7.930   1.661   6.440  0.00  0.00    +0.002 A 
ATOM     12  C   UNL     1      -8.696   1.931   5.324  0.00  0.00    +0.027 A 
ATOM     13  C   UNL     1      -8.084   2.114   4.090  0.00  0.00    +0.079 A 
BRANCH  13  14
ATOM     14  N   UNL     1      -8.856   2.393   2.960  0.00  0.00    -0.103 NA
BRANCH  14  15
ATOM     15  S   UNL     1     -10.502   2.515   3.092  0.00  0.00    +0.059 S 
ATOM     16  O   UNL     1     -10.931   1.218   3.485  0.00  0.00    -0.154 OA
ATOM     17  O   UNL     1     -10.717   3.636   3.937  0.00  0.00    -0.154 OA
ATOM     18  C   UNL     1     -11.078   2.880   1.411  0.00  0.00    +0.220 C 
ENDBRANCH  14  15
ENDBRANCH  13  14
ENDBRANCH   6   8
ENDBRANCH   4   6
ENDBRANCH   1   2
BRANCH   1  19
ATOM     19  C   UNL     1      -2.520   0.009   0.015  0.00  0.00    +0.048 C 
BRANCH  19  22
ATOM     20  C   UNL     1      -0.018   1.503   0.010  0.00  0.00    +0.066 C 
ATOM     21  C   UNL     1       0.002  -0.004   0.002  0.00  0.00    +0.045 A 
ATOM     22  C   UNL     1      -1.200  -0.719   0.004  0.00  0.00    -0.005 A 
ATOM     23  C   UNL     1      -1.166  -2.077  -0.004  0.00  0.00    +0.047 A 
ATOM     24  N   UNL     1       0.041  -2.711  -0.013  0.00  0.00    -0.217 N 
ATOM     25  C   UNL     1       1.192  -1.977  -0.014  0.00  0.00    +0.164 A 
ATOM     26  N   UNL     1       1.150  -0.645  -0.012  0.00  0.00    -0.232 NA
ATOM     27  C   UNL     1       2.266  -2.894  -0.024  0.00  0.00    +0.046 A 
ATOM     28  C   UNL     1       3.661  -2.747  -0.029  0.00  0.00    +0.014 A 
ATOM     29  C   UNL     1       4.458  -3.851  -0.038  0.00  0.00    +0.001 A 
ATOM     30  C   UNL     1       3.907  -5.131  -0.042  0.00  0.00    +0.002 A 
ATOM     31  C   UNL     1       2.559  -5.315  -0.037  0.00  0.00    +0.030 A 
ATOM     32  C   UNL     1       1.701  -4.196  -0.028  0.00  0.00    +0.095 A 
ATOM     33  N   UNL     1       0.378  -4.070  -0.021  0.00  0.00    -0.165 NA
ATOM     34  C   UNL     1      -2.446  -2.872  -0.001  0.00  0.00    +0.066 C 
ENDBRANCH  19  22
ENDBRANCH   1  19
TORSDOF 7
