REMARK  Name = ZINC04568772
REMARK  2 active torsions:
REMARK  status: ('A' for Active; 'I' for Inactive)
REMARK    1  A    between atoms: C_1  and  O_2
REMARK    2  A    between atoms: O_2  and  C_3
REMARK                            x       y       z     vdW  Elec       q    Type
REMARK                         _______ _______ _______ _____ _____    ______ ____
ROOT
ATOM      1  C   UNL     1      -4.357   4.513  -0.431  0.00  0.00    +0.121 A 
ATOM      2  C   UNL     1      -4.216   4.934   0.884  0.00  0.00    +0.051 A 
ATOM      3  C   UNL     1      -2.978   4.873   1.496  0.00  0.00    -0.023 A 
ATOM      4  C   UNL     1      -1.881   4.401   0.799  0.00  0.00    +0.010 A 
ATOM      5  C   UNL     1      -2.019   3.991  -0.514  0.00  0.00    -0.023 A 
ATOM      6  C   UNL     1      -3.255   4.043  -1.130  0.00  0.00    +0.051 A 
ATOM      7  C   UNL     1      -0.816   3.494  -1.271  0.00  0.00    +0.201 C 
ATOM      8  S   UNL     1      -0.899   1.691  -1.455  0.00  0.00    -0.023 S 
ATOM      9  O   UNL     1      -0.159   1.324  -2.611  0.00  0.00    -0.174 OA
ATOM     10  O   UNL     1      -2.259   1.294  -1.352  0.00  0.00    -0.174 OA
ATOM     11  C   UNL     1      -0.013   1.086   0.008  0.00  0.00    +0.201 C 
ATOM     12  C   UNL     1      -0.726   1.576   1.243  0.00  0.00    -0.027 A 
ATOM     13  C   UNL     1      -2.062   1.247   1.422  0.00  0.00    +0.005 A 
ATOM     14  C   UNL     1      -2.744   1.719   2.528  0.00  0.00    +0.005 A 
ATOM     15  C   UNL     1      -2.099   2.527   3.446  0.00  0.00    -0.027 A 
ATOM     16  C   UNL     1      -0.756   2.814   3.289  0.00  0.00    +0.005 A 
ATOM     17  C   UNL     1      -0.067   2.341   2.184  0.00  0.00    +0.005 A 
ATOM     18  C   UNL     1      -2.861   3.091   4.618  0.00  0.00    +0.201 C 
ATOM     19  S   UNL     1      -3.924   4.441   4.022  0.00  0.00    -0.023 S 
ATOM     20  O   UNL     1      -4.250   5.277   5.124  0.00  0.00    -0.174 OA
ATOM     21  O   UNL     1      -4.973   3.879   3.246  0.00  0.00    -0.174 OA
ATOM     22  C   UNL     1      -2.818   5.354   2.916  0.00  0.00    +0.201 C 
ENDROOT
BRANCH   1  24
ATOM     23  C   UNL     1      -6.665   5.057  -0.255  0.00  0.00    +0.277 C 
ATOM     24  O   UNL     1      -5.574   4.561  -1.034  0.00  0.00    -0.495 OA
ENDBRANCH   1  24
TORSDOF 1
