REMARK  Name = ZINC66224461
REMARK  9 active torsions:
REMARK  status: ('A' for Active; 'I' for Inactive)
REMARK    1  A    between atoms: C_1  and  C_2
REMARK    2  A    between atoms: C_2  and  C_4
REMARK    3  A    between atoms: C_2  and  N_10
REMARK    4  A    between atoms: C_11  and  C_13
REMARK    5  A    between atoms: C_16  and  N_19
REMARK    6  A    between atoms: C_20  and  C_22
REMARK    7  A    between atoms: C_22  and  N_23
REMARK    8  A    between atoms: N_23  and  C_24
REMARK    9  A    between atoms: C_24  and  C_25
REMARK                            x       y       z     vdW  Elec       q    Type
REMARK                         _______ _______ _______ _____ _____    ______ ____
ROOT
ATOM      1  C   UNL     1       0.767  -1.138   3.543  0.00  0.00    +0.037 A 
ATOM      2  C   UNL     1       2.076  -1.616   3.435  0.00  0.00    +0.015 A 
ATOM      3  C   UNL     1       2.739  -2.065   4.554  0.00  0.00    +0.024 A 
ATOM      4  C   UNL     1       2.106  -2.045   5.794  0.00  0.00    +0.033 A 
ATOM      5  C   UNL     1       0.803  -1.570   5.906  0.00  0.00    +0.024 A 
ATOM      6  C   UNL     1       0.137  -1.113   4.791  0.00  0.00    +0.015 A 
ENDROOT
BRANCH   1   8
ATOM      7  N   UNL     1       0.664  -0.678   1.143  0.00  0.00    -0.305 N 
ATOM      8  C   UNL     1       0.055  -0.654   2.345  0.00  0.00    +0.245 C 
ATOM      9  O   UNL     1      -1.082  -0.234   2.442  0.00  0.00    -0.270 OA
ATOM     10  H   UNL     1       1.571  -1.014   1.065  0.00  0.00    +0.150 HD
BRANCH   7  12
ATOM     11  C   UNL     1       0.118   1.319  -0.159  0.00  0.00    +0.033 C 
ATOM     12  C   UNL     1      -0.044  -0.199  -0.047  0.00  0.00    +0.100 C 
BRANCH  12  13
ATOM     13  C   UNL     1       0.532  -0.858  -1.274  0.00  0.00    -0.027 A 
ATOM     14  C   UNL     1       1.897  -1.051  -1.378  0.00  0.00    +0.005 A 
ATOM     15  C   UNL     1       2.425  -1.655  -2.504  0.00  0.00    +0.000 A 
ATOM     16  C   UNL     1       1.588  -2.067  -3.524  0.00  0.00    +0.000 A 
ATOM     17  C   UNL     1       0.223  -1.874  -3.419  0.00  0.00    +0.000 A 
ATOM     18  C   UNL     1      -0.305  -1.274  -2.292  0.00  0.00    +0.005 A 
ENDBRANCH  12  13
ENDBRANCH   7  12
ENDBRANCH   1   8
BRANCH   4  19
ATOM     19  N   UNL     1       2.780  -2.502   6.926  0.00  0.00    -0.287 N 
ATOM     20  C   UNL     1       4.112  -2.328   7.034  0.00  0.00    +0.200 C 
ATOM     21  O   UNL     1       4.710  -1.691   6.193  0.00  0.00    -0.278 OA
ATOM     22  H   UNL     1       2.289  -2.945   7.636  0.00  0.00    +0.155 HD
BRANCH  20  23
ATOM     23  C   UNL     1       4.858  -2.926   8.199  0.00  0.00    +0.016 C 
BRANCH  23  24
ATOM     24  N   UNL     1       6.285  -2.597   8.087  0.00  0.00    +0.387 N 
ATOM     25  H   UNL     1       6.651  -2.973   7.225  0.00  0.00    -0.085 HD
ATOM     26  H   UNL     1       6.401  -1.595   8.092  0.00  0.00    -0.085 HD
BRANCH  24  27
ATOM     27  C   UNL     1       7.013  -3.179   9.223  0.00  0.00    -0.055 C 
BRANCH  27  28
ATOM     28  C   UNL     1       8.477  -2.842   9.108  0.00  0.00    -0.054 C 
ATOM     29  C   UNL     1       9.090  -2.243  10.098  0.00  0.00    +0.002 C 
ENDBRANCH  27  28
ENDBRANCH  24  27
ENDBRANCH  23  24
ENDBRANCH  20  23
ENDBRANCH   4  19
TORSDOF 8
