REMARK  Name = ZINC12898975
REMARK  11 active torsions:
REMARK  status: ('A' for Active; 'I' for Inactive)
REMARK    1  A    between atoms: C_1  and  C_2
REMARK    2  A    between atoms: C_3  and  C_21
REMARK    3  A    between atoms: C_9  and  O_19
REMARK    4  A    between atoms: C_15  and  C_17
REMARK    5  A    between atoms: C_15  and  C_18
REMARK    6  A    between atoms: O_19  and  C_20
REMARK    7  A    between atoms: C_21  and  C_22
REMARK    8  A    between atoms: N_24  and  C_25
REMARK    9  A    between atoms: C_25  and  C_26
REMARK   10  A    between atoms: C_26  and  C_32
REMARK   11  A    between atoms: C_32  and  C_33
REMARK                            x       y       z     vdW  Elec       q    Type
REMARK                         _______ _______ _______ _____ _____    ______ ____
ROOT
ATOM      1  C   UNL     1      -1.934   0.793   3.639  0.00  0.00    +0.045 C 
ATOM      2  C   UNL     1      -2.068   2.234   4.061  0.00  0.00    -0.026 A 
ATOM      3  C   UNL     1      -2.751   2.564   5.188  0.00  0.00    +0.049 A 
ATOM      4  C   UNL     1      -2.866   3.917   5.567  0.00  0.00    +0.341 A 
ATOM      5  O   UNL     1      -3.481   4.205   6.578  0.00  0.00    -0.245 OA
ATOM      6  O   UNL     1      -2.308   4.894   4.831  0.00  0.00    -0.421 OA
ATOM      7  C   UNL     1      -1.621   4.606   3.703  0.00  0.00    +0.149 A 
ATOM      8  C   UNL     1      -1.483   3.269   3.288  0.00  0.00    +0.063 A 
ATOM      9  C   UNL     1      -0.769   2.975   2.113  0.00  0.00    +0.134 A 
ATOM     10  C   UNL     1      -0.205   4.001   1.386  0.00  0.00    +0.092 A 
ATOM     11  C   UNL     1      -0.345   5.327   1.800  0.00  0.00    +0.131 A 
ATOM     12  C   UNL     1      -1.050   5.626   2.953  0.00  0.00    +0.038 A 
ATOM     13  C   UNL     1      -1.220   7.049   3.424  0.00  0.00    +0.046 C 
ATOM     14  C   UNL     1      -0.186   7.947   2.741  0.00  0.00    +0.052 C 
ATOM     15  C   UNL     1      -0.205   7.643   1.237  0.00  0.00    +0.105 C 
ATOM     16  O   UNL     1       0.232   6.297   1.045  0.00  0.00    -0.486 OA
ATOM     17  C   UNL     1      -1.627   7.806   0.696  0.00  0.00    +0.055 C 
ATOM     18  C   UNL     1       0.739   8.600   0.506  0.00  0.00    +0.055 C 
ENDROOT
BRANCH   9  19
ATOM     19  O   UNL     1      -0.631   1.689   1.702  0.00  0.00    -0.494 OA
ATOM     20  C   UNL     1       0.108   1.469   0.498  0.00  0.00    +0.277 C 
ENDBRANCH   9  19
BRANCH   3  21
ATOM     21  C   UNL     1      -3.384   1.488   6.030  0.00  0.00    +0.138 C 
BRANCH  21  22
ATOM     22  C   UNL     1      -4.792   1.239   5.553  0.00  0.00    +0.218 C 
ATOM     23  O   UNL     1      -5.237   1.874   4.620  0.00  0.00    -0.275 OA
ATOM     24  N   UNL     1      -5.556   0.311   6.162  0.00  0.00    -0.314 N 
ATOM     25  H   UNL     1      -5.200  -0.197   6.908  0.00  0.00    +0.149 HD
BRANCH  24  26
ATOM     26  C   UNL     1      -6.925   0.070   5.698  0.00  0.00    +0.111 C 
BRANCH  26  27
ATOM     27  C   UNL     1      -7.606  -0.939   6.624  0.00  0.00    -0.004 C 
ATOM     28  C   UNL     1      -6.782  -2.227   6.670  0.00  0.00    +0.009 C 
ATOM     29  C   UNL     1      -6.677  -2.816   5.261  0.00  0.00    +0.001 C 
ATOM     30  C   UNL     1      -8.079  -3.127   4.733  0.00  0.00    +0.000 C 
ATOM     31  C   UNL     1      -8.904  -1.839   4.687  0.00  0.00    +0.001 C 
ATOM     32  C   UNL     1      -9.008  -1.250   6.095  0.00  0.00    +0.009 C 
BRANCH  27  33
ATOM     33  C   UNL     1      -7.711  -0.350   8.032  0.00  0.00    +0.133 C 
BRANCH  33  34
ATOM     34  C   UNL     1      -8.432  -1.322   8.931  0.00  0.00    +0.357 C 
ATOM     35  O   UNL     1      -8.724  -2.421   8.522  0.00  0.00    -0.246 OA
ATOM     36  O   UNL     1      -8.751  -0.966  10.185  0.00  0.00    -0.246 OA
ENDBRANCH  33  34
ENDBRANCH  27  33
ENDBRANCH  26  27
ENDBRANCH  24  26
ENDBRANCH  21  22
ENDBRANCH   3  21
TORSDOF 7
