REMARK  Name = ZINC65951438
REMARK  9 active torsions:
REMARK  status: ('A' for Active; 'I' for Inactive)
REMARK    1  A    between atoms: C_9  and  N_10
REMARK    2  A    between atoms: N_10  and  C_11
REMARK    3  A    between atoms: N_10  and  C_27
REMARK    4  A    between atoms: C_11  and  C_12
REMARK    5  A    between atoms: N_14  and  C_15
REMARK    6  A    between atoms: C_15  and  C_16
REMARK    7  A    between atoms: C_19  and  O_22
REMARK    8  A    between atoms: O_22  and  C_23
REMARK    9  A    between atoms: C_23  and  C_24
REMARK                            x       y       z     vdW  Elec       q    Type
REMARK                         _______ _______ _______ _____ _____    ______ ____
ROOT
ATOM      1  C   UNL     1       4.880   0.226   3.250  0.00  0.00    +0.197 C 
ATOM      2  O   UNL     1       4.880  -0.839   3.830  0.00  0.00    -0.278 OA
ATOM      3  N   UNL     1       5.175   1.358   3.919  0.00  0.00    -0.313 N 
ATOM      4  H   UNL     1       5.174   2.210   3.455  0.00  0.00    +0.149 HD
ENDROOT
BRANCH   1   5
ATOM      5  C   UNL     1       4.551   0.283   1.780  0.00  0.00    +0.020 C 
BRANCH   5   6
ATOM      6  N   UNL     1       4.157  -1.053   1.314  0.00  0.00    +0.392 N 
ATOM      7  H   UNL     1       3.844  -0.997   0.357  0.00  0.00    -0.080 HD
BRANCH   6  16
ATOM      8  C   UNL     1       8.331  -0.925  -1.426  0.00  0.00    +0.000 A 
ATOM      9  C   UNL     1       8.304  -0.186  -0.259  0.00  0.00    +0.000 A 
ATOM     10  C   UNL     1       7.355  -0.458   0.708  0.00  0.00    +0.002 A 
ATOM     11  C   UNL     1       6.431  -1.471   0.511  0.00  0.00    -0.058 A 
ATOM     12  C   UNL     1       6.459  -2.210  -0.657  0.00  0.00    -0.046 A 
ATOM     13  C   UNL     1       7.410  -1.935  -1.625  0.00  0.00    +0.004 A 
ATOM     14  C   UNL     1       5.357  -3.248  -0.632  0.00  0.00    +0.034 C 
ATOM     15  C   UNL     1       4.935  -3.354   0.849  0.00  0.00    -0.006 C 
ATOM     16  C   UNL     1       5.309  -1.961   1.400  0.00  0.00    -0.036 C 
ENDBRANCH   6  16
BRANCH   6  17
ATOM     17  C   UNL     1       3.067  -1.564   2.156  0.00  0.00    -0.067 C 
ATOM     18  C   UNL     1       1.842  -2.149   1.450  0.00  0.00    -0.017 C 
ATOM     19  C   UNL     1       1.746  -0.791   2.149  0.00  0.00    -0.017 C 
ENDBRANCH   6  17
ENDBRANCH   5   6
ENDBRANCH   1   5
BRANCH   3  20
ATOM     20  C   UNL     1       5.495   1.302   5.347  0.00  0.00    +0.139 C 
BRANCH  20  21
ATOM     21  C   UNL     1       5.784   2.693   5.852  0.00  0.00    -0.030 A 
ATOM     22  C   UNL     1       7.074   3.187   5.812  0.00  0.00    +0.009 A 
ATOM     23  C   UNL     1       7.342   4.461   6.274  0.00  0.00    +0.046 A 
ATOM     24  C   UNL     1       6.314   5.245   6.779  0.00  0.00    +0.121 A 
ATOM     25  C   UNL     1       5.020   4.747   6.817  0.00  0.00    +0.046 A 
ATOM     26  C   UNL     1       4.757   3.474   6.348  0.00  0.00    +0.009 A 
BRANCH  24  27
ATOM     27  O   UNL     1       6.574   6.498   7.234  0.00  0.00    -0.483 OA
BRANCH  27  28
ATOM     28  C   UNL     1       5.468   7.248   7.739  0.00  0.00    +0.324 C 
BRANCH  28  29
ATOM     29  C   UNL     1       5.945   8.603   8.196  0.00  0.00    +0.248 C 
ATOM     30  O   UNL     1       7.118   8.897   8.098  0.00  0.00    -0.272 OA
ATOM     31  N   UNL     1       5.069   9.487   8.713  0.00  0.00    -0.327 N 
ATOM     32  H   UNL     1       4.131   9.252   8.790  0.00  0.00    +0.145 HD
ATOM     33  H   UNL     1       5.376  10.359   9.006  0.00  0.00    +0.145 HD
ENDBRANCH  28  29
ENDBRANCH  27  28
ENDBRANCH  24  27
ENDBRANCH  20  21
ENDBRANCH   3  20
TORSDOF 9
