REMARK  Name = ZINC09629847
REMARK  10 active torsions:
REMARK  status: ('A' for Active; 'I' for Inactive)
REMARK    1  A    between atoms: C_1  and  C_2
REMARK    2  A    between atoms: C_2  and  C_3
REMARK    3  A    between atoms: C_3  and  N_57
REMARK    4  A    between atoms: C_9  and  N_14
REMARK    5  A    between atoms: C_10  and  C_11
REMARK    6  A    between atoms: C_15  and  C_17
REMARK    7  A    between atoms: C_17  and  C_18
REMARK    8  A    between atoms: C_18  and  S_19
REMARK    9  A    between atoms: S_19  and  C_22
REMARK   10  A    between atoms: C_25  and  C_28
REMARK                            x       y       z     vdW  Elec       q    Type
REMARK                         _______ _______ _______ _____ _____    ______ ____
ROOT
ATOM      1  C   UNL     1       7.045  -0.001   0.374  0.00  0.00    -0.074 C 
ATOM      2  C   UNL     1       6.217   1.215  -0.050  0.00  0.00    +0.018 C 
ATOM      3  C   UNL     1       4.746   0.814  -0.040  0.00  0.00    -0.027 A 
ATOM      4  C   UNL     1       4.399  -0.493  -0.044  0.00  0.00    -0.021 A 
ATOM      5  S   UNL     1       2.630  -0.489  -0.026  0.00  0.00    -0.079 S 
ATOM      6  C   UNL     1       2.354   1.221  -0.014  0.00  0.00    +0.084 A 
ATOM      7  C   UNL     1       3.638   1.750  -0.029  0.00  0.00    +0.068 A 
ATOM      8  C   UNL     1       5.334  -1.661  -0.062  0.00  0.00    -0.035 C 
ATOM      9  N   UNL     1       6.674  -1.163  -0.460  0.00  0.00    +0.383 N 
ATOM     10  H   UNL     1       6.643  -0.872  -1.444  0.00  0.00    -0.081 HD
ENDROOT
BRANCH   7  11
ATOM     11  C   UNL     1       3.864   3.199  -0.031  0.00  0.00    +0.244 C 
ATOM     12  O   UNL     1       3.972   3.799   1.023  0.00  0.00    -0.270 OA
ATOM     13  N   UNL     1       3.954   3.865  -1.198  0.00  0.00    -0.325 N 
ATOM     14  H   UNL     1       3.869   3.387  -2.038  0.00  0.00    +0.145 HD
ATOM     15  H   UNL     1       4.104   4.824  -1.200  0.00  0.00    +0.145 HD
ENDBRANCH   7  11
BRANCH   6  16
ATOM     16  N   UNL     1       1.143   1.898   0.001  0.00  0.00    -0.279 N 
ATOM     17  C   UNL     1      -0.014   1.209   0.009  0.00  0.00    +0.219 C 
ATOM     18  O   UNL     1       0.002  -0.004   0.002  0.00  0.00    -0.275 OA
ATOM     19  H   UNL     1       1.130   2.868   0.007  0.00  0.00    +0.155 HD
BRANCH  17  20
ATOM     20  C   UNL     1      -1.330   1.944   0.019  0.00  0.00    +0.119 C 
BRANCH  20  21
ATOM     21  C   UNL     1      -2.479   0.934   0.019  0.00  0.00    +0.181 C 
BRANCH  21  22
ATOM     22  S   UNL     1      -4.062   1.820   0.031  0.00  0.00    -0.003 S 
ATOM     23  O   UNL     1      -4.237   2.493   1.270  0.00  0.00    -0.169 OA
ATOM     24  O   UNL     1      -4.248   2.507  -1.199  0.00  0.00    -0.169 OA
BRANCH  22  25
ATOM     25  C   UNL     1      -5.288   0.555   0.030  0.00  0.00    +0.088 A 
ATOM     26  C   UNL     1      -5.779   0.069  -1.167  0.00  0.00    +0.027 A 
ATOM     27  C   UNL     1      -6.738  -0.926  -1.168  0.00  0.00    +0.005 A 
ATOM     28  C   UNL     1      -7.213  -1.429   0.029  0.00  0.00    -0.050 A 
ATOM     29  C   UNL     1      -6.726  -0.940   1.226  0.00  0.00    +0.005 A 
ATOM     30  C   UNL     1      -5.764   0.052   1.227  0.00  0.00    +0.027 A 
ATOM     31  C   UNL     1      -8.262  -2.511   0.028  0.00  0.00    +0.044 C 
ENDBRANCH  22  25
ENDBRANCH  21  22
ENDBRANCH  20  21
ENDBRANCH  17  20
ENDBRANCH   6  16
BRANCH   9  32
ATOM     32  C   UNL     1       7.678  -2.237  -0.308  0.00  0.00    -0.079 C 
BRANCH  32  34
ATOM     33  C   UNL     1       8.873  -3.734   1.296  0.00  0.00    +0.002 C 
ATOM     34  C   UNL     1       7.828  -2.624   1.165  0.00  0.00    -0.022 C 
ENDBRANCH  32  34
ENDBRANCH   9  32
TORSDOF 8
