REMARK  Name = ZINC16315740
REMARK  7 active torsions:
REMARK  status: ('A' for Active; 'I' for Inactive)
REMARK    1  A    between atoms: C_1  and  C_2
REMARK    2  A    between atoms: C_7  and  N_8
REMARK    3  A    between atoms: N_8  and  C_9
REMARK    4  A    between atoms: C_9  and  N_11
REMARK    5  A    between atoms: N_11  and  C_12
REMARK    6  A    between atoms: C_12  and  C_13
REMARK    7  A    between atoms: C_13  and  N_55
REMARK                            x       y       z     vdW  Elec       q    Type
REMARK                         _______ _______ _______ _____ _____    ______ ____
ROOT
ATOM      1  C   UNL     1       2.339  -2.104   1.669  0.00  0.00    +0.091 C 
ENDROOT
BRANCH   1   2
ATOM      2  C   UNL     1       2.353  -0.594   1.913  0.00  0.00    -0.050 C 
ATOM      3  C   UNL     1       1.370  -0.250   3.034  0.00  0.00    -0.010 C 
ATOM      4  C   UNL     1       1.782  -0.978   4.315  0.00  0.00    -0.001 C 
ATOM      5  C   UNL     1       3.190  -0.539   4.720  0.00  0.00    -0.000 C 
ATOM      6  C   UNL     1       4.174  -0.883   3.600  0.00  0.00    -0.001 C 
ATOM      7  C   UNL     1       3.762  -0.156   2.319  0.00  0.00    -0.010 C 
BRANCH   2  13
ATOM      8  C   UNL     1       0.608  -0.292   0.263  0.00  0.00    -0.078 C 
ATOM      9  C   UNL     1       0.287   0.341  -1.093  0.00  0.00    -0.019 C 
ATOM     10  C   UNL     1       0.378   1.865  -0.974  0.00  0.00    -0.004 C 
ATOM     11  C   UNL     1       1.778   2.248  -0.488  0.00  0.00    -0.019 C 
ATOM     12  C   UNL     1       2.056   1.560   0.850  0.00  0.00    -0.078 C 
ATOM     13  N   UNL     1       1.977   0.096   0.662  0.00  0.00    +0.384 N 
ATOM     14  H   UNL     1       2.631  -0.180  -0.080  0.00  0.00    -0.081 HD
ENDBRANCH   2  13
ENDBRANCH   1   2
BRANCH   1  15
ATOM     15  N   UNL     1       3.281  -2.434   0.596  0.00  0.00    -0.328 N 
ATOM     16  H   UNL     1       3.792  -1.730   0.166  0.00  0.00    +0.148 HD
BRANCH  15  17
ATOM     17  C   UNL     1       3.438  -3.715   0.207  0.00  0.00    +0.134 C 
ATOM     18  S   UNL     1       2.537  -4.957   0.967  0.00  0.00    -0.019 S 
BRANCH  17  19
ATOM     19  N   UNL     1       4.304  -4.018  -0.780  0.00  0.00    -0.297 N 
ATOM     20  H   UNL     1       4.755  -3.309  -1.264  0.00  0.00    +0.154 HD
BRANCH  19  27
ATOM     21  C   UNL     1       4.388  -4.736  -3.532  0.00  0.00    +0.045 C 
ATOM     22  C   UNL     1       4.602  -5.749  -2.437  0.00  0.00    -0.029 A 
ATOM     23  C   UNL     1       4.848  -7.071  -2.756  0.00  0.00    +0.005 A 
ATOM     24  C   UNL     1       5.044  -8.001  -1.752  0.00  0.00    +0.000 A 
ATOM     25  C   UNL     1       4.995  -7.612  -0.425  0.00  0.00    +0.002 A 
ATOM     26  C   UNL     1       4.755  -6.291  -0.100  0.00  0.00    +0.023 A 
ATOM     27  C   UNL     1       4.552  -5.356  -1.106  0.00  0.00    +0.036 A 
ENDBRANCH  19  27
ENDBRANCH  17  19
ENDBRANCH  15  17
ENDBRANCH   1  15
TORSDOF 6
