REMARK  Name = ZINC46562004
REMARK  12 active torsions:
REMARK  status: ('A' for Active; 'I' for Inactive)
REMARK    1  A    between atoms: C_1  and  C_2
REMARK    2  A    between atoms: C_2  and  C_3
REMARK    3  A    between atoms: C_3  and  N_4
REMARK    4  A    between atoms: N_4  and  C_5
REMARK    5  A    between atoms: C_5  and  C_6
REMARK    6  A    between atoms: C_9  and  C_11
REMARK    7  A    between atoms: C_16  and  C_18
REMARK    8  A    between atoms: C_18  and  N_19
REMARK    9  A    between atoms: C_25  and  C_28
REMARK   10  A    between atoms: C_28  and  C_29
REMARK   11  A    between atoms: C_28  and  C_30
REMARK   12  A    between atoms: C_28  and  C_31
REMARK                            x       y       z     vdW  Elec       q    Type
REMARK                         _______ _______ _______ _____ _____    ______ ____
ROOT
ATOM      1  C   UNL     1       2.890  -1.860  -0.049  0.00  0.00    +0.213 C 
ENDROOT
BRANCH   1   2
ATOM      2  N   UNL     1       3.872  -2.802   0.494  0.00  0.00    -0.215 N 
ATOM      3  C   UNL     1       3.829  -3.306   1.744  0.00  0.00    +0.247 C 
ATOM      4  O   UNL     1       3.002  -3.076   2.600  0.00  0.00    -0.273 OA
ATOM      5  C   UNL     1       5.028  -4.220   1.853  0.00  0.00    +0.113 C 
ATOM      6  C   UNL     1       4.582  -5.652   2.124  0.00  0.00    +0.035 C 
ATOM      7  C   UNL     1       3.879  -5.720   3.483  0.00  0.00    +0.006 C 
ATOM      8  C   UNL     1       4.840  -5.251   4.577  0.00  0.00    -0.005 C 
ATOM      9  C   UNL     1       5.263  -3.806   4.303  0.00  0.00    +0.006 C 
ATOM     10  C   UNL     1       5.971  -3.731   2.947  0.00  0.00    +0.035 C 
ATOM     11  N   UNL     1       5.672  -4.121   0.537  0.00  0.00    -0.285 N 
ATOM     12  C   UNL     1       4.921  -3.273  -0.192  0.00  0.00    +0.310 C 
ATOM     13  O   UNL     1       5.169  -2.968  -1.342  0.00  0.00    -0.252 OA
ATOM     14  H   UNL     1       6.476  -4.579   0.248  0.00  0.00    +0.151 HD
BRANCH   8  15
ATOM     15  C   UNL     1       4.142  -5.328   5.936  0.00  0.00    -0.035 C 
ATOM     16  C   UNL     1       3.721  -6.773   6.212  0.00  0.00    +0.011 C 
ATOM     17  C   UNL     1       5.103  -4.859   7.030  0.00  0.00    +0.011 C 
ATOM     18  C   UNL     1       2.903  -4.429   5.925  0.00  0.00    +0.011 C 
ENDBRANCH   8  15
ENDBRANCH   1   2
BRANCH   1  20
ATOM     19  N   UNL     1       0.738  -1.962  -1.265  0.00  0.00    -0.291 N 
ATOM     20  C   UNL     1       1.764  -2.626  -0.695  0.00  0.00    +0.234 C 
ATOM     21  O   UNL     1       1.780  -3.838  -0.701  0.00  0.00    -0.274 OA
BRANCH  19  22
ATOM     22  C   UNL     1       0.718  -0.497  -1.257  0.00  0.00    +0.108 C 
BRANCH  22  24
ATOM     23  C   UNL     1      -0.019   1.526   0.010  0.00  0.00    +0.005 C 
ATOM     24  C   UNL     1       0.002  -0.004   0.002  0.00  0.00    +0.016 C 
ENDBRANCH  22  24
ENDBRANCH  19  22
BRANCH  19  25
ATOM     25  C   UNL     1      -0.357  -2.706  -1.893  0.00  0.00    +0.205 C 
BRANCH  25  26
ATOM     26  C   UNL     1      -0.033  -2.945  -3.345  0.00  0.00    +0.235 A 
ATOM     27  N   UNL     1       0.597  -3.976  -3.833  0.00  0.00    -0.110 NA
ATOM     28  N   UNL     1       0.699  -3.855  -5.110  0.00  0.00    -0.104 NA
ATOM     29  C   UNL     1       0.131  -2.729  -5.485  0.00  0.00    +0.284 A 
ATOM     30  O   UNL     1      -0.349  -2.135  -4.372  0.00  0.00    -0.416 OA
BRANCH  29  31
ATOM     31  C   UNL     1       0.032  -2.217  -6.859  0.00  0.00    +0.191 A 
ATOM     32  C   UNL     1       0.509  -2.830  -7.979  0.00  0.00    +0.055 A 
ATOM     33  C   UNL     1       0.195  -1.992  -9.065  0.00  0.00    +0.042 A 
ATOM     34  C   UNL     1      -0.452  -0.920  -8.564  0.00  0.00    +0.196 A 
ATOM     35  O   UNL     1      -0.553  -1.061  -7.233  0.00  0.00    -0.458 OA
ENDBRANCH  29  31
ENDBRANCH  25  26
ENDBRANCH  19  25
ENDBRANCH   1  20
TORSDOF 8
