REMARK  Name = ZINC39841015
REMARK  5 active torsions:
REMARK  status: ('A' for Active; 'I' for Inactive)
REMARK    1  A    between atoms: C_1  and  C_2
REMARK    2  A    between atoms: C_8  and  C_10
REMARK    3  A    between atoms: N_23  and  C_26
REMARK    4  A    between atoms: C_24  and  N_25
REMARK    5  A    between atoms: C_26  and  C_27
REMARK                            x       y       z     vdW  Elec       q    Type
REMARK                         _______ _______ _______ _____ _____    ______ ____
ROOT
ATOM      1  C   UNL     1      -3.689  -4.436   0.518  0.00  0.00    +0.076 A 
ATOM      2  C   UNL     1      -3.121  -5.707   0.408  0.00  0.00    +0.033 A 
ATOM      3  C   UNL     1      -3.908  -6.732  -0.111  0.00  0.00    +0.083 A 
ATOM      4  C   UNL     1      -5.246  -6.463  -0.508  0.00  0.00    +0.150 A 
ATOM      5  N   UNL     1      -5.985  -7.461  -1.004  0.00  0.00    -0.211 NA
ATOM      6  C   UNL     1      -5.511  -8.694  -1.138  0.00  0.00    +0.143 A 
ATOM      7  C   UNL     1      -6.360  -9.687  -1.671  0.00  0.00    +0.047 A 
ATOM      8  C   UNL     1      -5.898 -10.959  -1.819  0.00  0.00    +0.005 A 
ATOM      9  C   UNL     1      -4.583 -11.268  -1.440  0.00  0.00    +0.018 A 
ATOM     10  C   UNL     1      -3.782 -10.308  -0.931  0.00  0.00    +0.096 A 
ATOM     11  N   UNL     1      -4.233  -9.029  -0.779  0.00  0.00    -0.268 N 
ATOM     12  C   UNL     1      -3.398  -8.095  -0.264  0.00  0.00    +0.268 A 
ATOM     13  O   UNL     1      -2.260  -8.380   0.060  0.00  0.00    -0.267 OA
ATOM     14  N   UNL     1      -5.746  -5.232  -0.383  0.00  0.00    -0.309 N 
ATOM     15  C   UNL     1      -5.027  -4.241   0.110  0.00  0.00    +0.110 A 
ENDROOT
BRANCH   1  23
ATOM     16  C   UNL     1      -0.366   1.079   2.950  0.00  0.00    +0.089 C 
ATOM     17  C   UNL     1      -0.348  -0.405   2.688  0.00  0.00    +0.136 A 
ATOM     18  C   UNL     1      -1.341  -1.120   2.131  0.00  0.00    +0.091 A 
ATOM     19  C   UNL     1      -0.926  -2.470   2.064  0.00  0.00    +0.168 A 
ATOM     20  N   UNL     1       0.278  -2.545   2.570  0.00  0.00    -0.063 NA
ATOM     21  O   UNL     1       0.665  -1.242   2.967  0.00  0.00    -0.358 OA
ATOM     22  N   UNL     1      -1.669  -3.532   1.552  0.00  0.00    -0.264 N 
ATOM     23  C   UNL     1      -2.905  -3.314   1.059  0.00  0.00    +0.253 C 
ATOM     24  O   UNL     1      -3.372  -2.191   1.062  0.00  0.00    -0.270 OA
ATOM     25  H   UNL     1      -1.297  -4.428   1.550  0.00  0.00    +0.157 HD
ENDBRANCH   1  23
BRANCH  15  26
ATOM     26  N   UNL     1      -5.593  -2.988   0.224  0.00  0.00    -0.344 N 
ATOM     27  H   UNL     1      -5.037  -2.196   0.152  0.00  0.00    +0.144 HD
ATOM     28  H   UNL     1      -6.547  -2.898   0.375  0.00  0.00    +0.144 HD
ENDBRANCH  15  26
BRANCH  14  29
ATOM     29  C   UNL     1      -7.127  -4.976  -0.798  0.00  0.00    +0.151 C 
BRANCH  29  30
ATOM     30  C   UNL     1      -8.053  -5.204   0.369  0.00  0.00    -0.013 C 
ATOM     31  C   UNL     1      -8.873  -4.256   0.750  0.00  0.00    +0.005 C 
ENDBRANCH  29  30
ENDBRANCH  14  29
TORSDOF 4
