REMARK  Name = ZINC43771670
REMARK  11 active torsions:
REMARK  status: ('A' for Active; 'I' for Inactive)
REMARK    1  A    between atoms: N_7  and  C1*_10
REMARK    2  A    between atoms: C3*_13  and  O3*_20
REMARK    3  A    between atoms: C4*_15  and  C5*_18
REMARK    4  A    between atoms: C5*_18  and  O5*_19
REMARK    5  A    between atoms: N_21  and  C_22
REMARK    6  A    between atoms: C_22  and  C_23
REMARK    7  A    between atoms: C_23  and  C_24
REMARK    8  A    between atoms: C_24  and  C_25
REMARK    9  A    between atoms: C_25  and  C_26
REMARK   10  A    between atoms: C_26  and  C_27
REMARK   11  A    between atoms: C_27  and  N_28
REMARK                            x       y       z     vdW  Elec       q    Type
REMARK                         _______ _______ _______ _____ _____    ______ ____
ROOT
ATOM      1  C   UNL     1      -0.016   1.312   0.009  0.00  0.00    +0.225 A 
ATOM      2  N   UNL     1       1.089   2.036   0.003  0.00  0.00    -0.219 NA
ATOM      3  C   UNL     1       2.288   1.462  -0.012  0.00  0.00    +0.150 A 
ATOM      4  C   UNL     1       2.358   0.059  -0.020  0.00  0.00    +0.147 A 
ATOM      5  C   UNL     1       1.155  -0.666  -0.013  0.00  0.00    +0.167 A 
ATOM      6  N   UNL     1       0.002  -0.004   0.002  0.00  0.00    -0.216 NA
ATOM      7  N   UNL     1       1.511  -1.991  -0.023  0.00  0.00    -0.288 N 
ATOM      8  C   UNL     1       2.873  -2.048  -0.036  0.00  0.00    +0.203 A 
ATOM      9  N   UNL     1       3.368  -0.844  -0.034  0.00  0.00    -0.231 NA
ATOM     10  N   UNL     1       3.439   2.229  -0.019  0.00  0.00    -0.327 N 
ATOM     11  H   UNL     1       4.309   1.799  -0.030  0.00  0.00    +0.148 HD
ENDROOT
BRANCH   7  12
ATOM     12  C1* UNL     1       0.596  -3.135  -0.019  0.00  0.00    +0.225 C 
ATOM     13  C2* UNL     1       0.177  -3.493  -1.463  0.00  0.00    +0.088 C 
ATOM     14  C3* UNL     1       0.106  -5.036  -1.461  0.00  0.00    +0.150 C 
ATOM     15  C4* UNL     1       0.489  -5.428  -0.017  0.00  0.00    +0.175 C 
ATOM     16  O4* UNL     1       1.266  -4.314   0.476  0.00  0.00    -0.348 OA
BRANCH  14  17
ATOM     17  O3* UNL     1       1.039  -5.582  -2.395  0.00  0.00    -0.389 OA
ATOM     18  H3* UNL     1       0.879  -5.318  -3.311  0.00  0.00    +0.210 HD
ENDBRANCH  14  17
BRANCH  15  19
ATOM     19  C5* UNL     1       1.327  -6.708  -0.016  0.00  0.00    +0.190 C 
BRANCH  19  20
ATOM     20  O5* UNL     1       1.572  -7.117   1.331  0.00  0.00    -0.392 OA
ATOM     21  H5* UNL     1       2.100  -7.923   1.407  0.00  0.00    +0.210 HD
ENDBRANCH  19  20
ENDBRANCH  15  19
ENDBRANCH   7  12
BRANCH  10  22
ATOM     22  C   UNL     1       3.346   3.692  -0.011  0.00  0.00    +0.103 C 
BRANCH  22  23
ATOM     23  C   UNL     1       4.753   4.293  -0.022  0.00  0.00    +0.019 C 
BRANCH  23  24
ATOM     24  C   UNL     1       4.655   5.819  -0.013  0.00  0.00    +0.001 C 
BRANCH  24  25
ATOM     25  C   UNL     1       6.062   6.420  -0.024  0.00  0.00    -0.002 C 
BRANCH  25  26
ATOM     26  C   UNL     1       5.965   7.947  -0.015  0.00  0.00    -0.020 C 
BRANCH  26  27
ATOM     27  C   UNL     1       7.372   8.548  -0.026  0.00  0.00    -0.086 C 
BRANCH  27  28
ATOM     28  N   UNL     1       7.278  10.014  -0.017  0.00  0.00    +0.378 N 
ATOM     29  H   UNL     1       6.790  10.316   0.813  0.00  0.00    -0.090 HD
ATOM     30  H   UNL     1       8.206  10.411  -0.024  0.00  0.00    -0.090 HD
ATOM     31  H   UNL     1       6.774  10.324  -0.835  0.00  0.00    -0.090 HD
ENDBRANCH  27  28
ENDBRANCH  26  27
ENDBRANCH  25  26
ENDBRANCH  24  25
ENDBRANCH  23  24
ENDBRANCH  22  23
ENDBRANCH  10  22
TORSDOF 11
