REMARK  Name = ZINC61594159
REMARK  6 active torsions:
REMARK  status: ('A' for Active; 'I' for Inactive)
REMARK    1  A    between atoms: C_1  and  C_2
REMARK    2  A    between atoms: C_2  and  N_3
REMARK    3  A    between atoms: C_9  and  S_10
REMARK    4  A    between atoms: S_10  and  C_11
REMARK    5  A    between atoms: C_11  and  C_12
REMARK    6  A    between atoms: C_15  and  N_19
REMARK                            x       y       z     vdW  Elec       q    Type
REMARK                         _______ _______ _______ _____ _____    ______ ____
ROOT
ATOM      1  C   UNL     1       4.795  -1.015  -0.816  0.00  0.00    +0.113 C 
ENDROOT
BRANCH   1   2
ATOM      2  C   UNL     1       5.914  -0.892   0.185  0.00  0.00    -0.023 A 
ATOM      3  C   UNL     1       6.604   0.300   0.306  0.00  0.00    +0.007 A 
ATOM      4  C   UNL     1       7.631   0.417   1.222  0.00  0.00    +0.023 A 
ATOM      5  C   UNL     1       7.971  -0.666   2.024  0.00  0.00    +0.026 A 
ATOM      6  C   UNL     1       7.276  -1.862   1.901  0.00  0.00    +0.038 A 
ATOM      7  C   UNL     1       6.246  -1.970   0.986  0.00  0.00    +0.024 A 
ATOM      8 BR   UNL     1       5.294  -3.596   0.824  0.00  0.00    -0.050 Br
BRANCH   5   9
ATOM      9  N   UNL     1       9.009  -0.551   2.951  0.00  0.00    -0.358 N 
ATOM     10  H   UNL     1       9.494   0.285   3.036  0.00  0.00    +0.142 HD
ATOM     11  H   UNL     1       9.245  -1.307   3.510  0.00  0.00    +0.142 HD
ENDBRANCH   5   9
ENDBRANCH   1   2
BRANCH   1  12
ATOM     12  S   UNL     1       3.230  -0.530  -0.036  0.00  0.00    -0.081 S 
BRANCH  12  19
ATOM     13  N   UNL     1       0.688  -0.476  -1.203  0.00  0.00    -0.271 N 
ATOM     14  C   UNL     1       0.106  -0.735  -2.392  0.00  0.00    +0.345 A 
ATOM     15  O   UNL     1      -1.077  -0.619  -2.654  0.00  0.00    -0.245 OA
ATOM     16  N   UNL     1       1.074  -1.147  -3.237  0.00  0.00    -0.226 N 
ATOM     17  H   UNL     1       0.954  -1.404  -4.165  0.00  0.00    +0.194 HD
ATOM     18  N   UNL     1       2.283  -1.135  -2.529  0.00  0.00    -0.145 NA
ATOM     19  C   UNL     1       2.037  -0.726  -1.317  0.00  0.00    +0.192 A 
BRANCH  13  21
ATOM     20  C   UNL     1      -0.019   1.526   0.010  0.00  0.00    +0.027 C 
ATOM     21  C   UNL     1       0.002  -0.004   0.002  0.00  0.00    +0.125 C 
ENDBRANCH  13  21
ENDBRANCH  12  19
ENDBRANCH   1  12
TORSDOF 5
