REMARK  Name = ZINC63303153
REMARK  3 active torsions:
REMARK  status: ('A' for Active; 'I' for Inactive)
REMARK    1  A    between atoms: C_7  and  C_10
REMARK    2  A    between atoms: C_10  and  C_11
REMARK    3  A    between atoms: C_14  and  C_18
REMARK                            x       y       z     vdW  Elec       q    Type
REMARK                         _______ _______ _______ _____ _____    ______ ____
ROOT
ATOM      1  C   UNL     1       0.457  -3.653  -1.462  0.00  0.00    +0.154 C 
ATOM      2  N   UNL     1      -0.538  -4.748  -1.487  0.00  0.00    -0.265 NA
ATOM      3  C   UNL     1       0.157  -5.925  -2.055  0.00  0.00    +0.297 C 
ATOM      4  O   UNL     1       1.239  -5.372  -2.837  0.00  0.00    -0.270 OA
ATOM      5  N   UNL     1       1.703  -4.226  -2.022  0.00  0.00    -0.181 NA
ATOM      6  H   UNL     1      -0.883  -4.944  -0.559  0.00  0.00    +0.126 HD
ATOM      7  H   UNL     1       2.323  -4.532  -1.288  0.00  0.00    +0.156 HD
ENDROOT
BRANCH   3   8
ATOM      8  C   UNL     1      -0.780  -6.713  -2.934  0.00  0.00    +0.256 C 
ATOM      9  O   UNL     1      -0.617  -6.727  -4.136  0.00  0.00    -0.272 OA
ATOM     10  N   UNL     1      -1.799  -7.404  -2.384  0.00  0.00    -0.326 N 
ATOM     11  H   UNL     1      -1.929  -7.394  -1.423  0.00  0.00    +0.145 HD
ATOM     12  H   UNL     1      -2.402  -7.911  -2.950  0.00  0.00    +0.145 HD
ENDBRANCH   3   8
BRANCH   1  13
ATOM     13  C   UNL     1       0.691  -3.186  -0.024  0.00  0.00    +0.070 C 
BRANCH  13  20
ATOM     14  C   UNL     1      -0.016   1.348   0.009  0.00  0.00    +0.001 A 
ATOM     15  C   UNL     1       1.166   2.101   0.002  0.00  0.00    +0.002 A 
ATOM     16  C   UNL     1       2.391   1.535  -0.013  0.00  0.00    +0.026 A 
ATOM     17  C   UNL     1       2.529   0.120  -0.022  0.00  0.00    +0.043 A 
ATOM     18  N   UNL     1       3.587  -0.654  -0.037  0.00  0.00    -0.380 N 
ATOM     19  C   UNL     1       3.143  -2.053  -0.041  0.00  0.00    +0.144 C 
ATOM     20  C   UNL     1       1.631  -2.008  -0.025  0.00  0.00    -0.039 C 
ATOM     21  C   UNL     1       1.295  -0.698  -0.014  0.00  0.00    -0.001 A 
ATOM     22  C   UNL     1       0.002  -0.004   0.002  0.00  0.00    +0.010 A 
ATOM     23  H   UNL     1       4.509  -0.353  -0.045  0.00  0.00    +0.160 HD
ENDBRANCH  13  20
ENDBRANCH   1  13
TORSDOF 3
