REMARK  Name = ZINC09314377
REMARK  10 active torsions:
REMARK  status: ('A' for Active; 'I' for Inactive)
REMARK    1  A    between atoms: C_1  and  C_2
REMARK    2  A    between atoms: C_2  and  C_3
REMARK    3  A    between atoms: C_2  and  O_4
REMARK    4  A    between atoms: O_4  and  C_5
REMARK    5  A    between atoms: C_8  and  S_25
REMARK    6  A    between atoms: C_10  and  N_11
REMARK    7  A    between atoms: C_12  and  C_14
REMARK    8  A    between atoms: C_14  and  N_64
REMARK    9  A    between atoms: C_18  and  C_20
REMARK   10  A    between atoms: S_25  and  N_28
REMARK                            x       y       z     vdW  Elec       q    Type
REMARK                         _______ _______ _______ _____ _____    ______ ____
ROOT
ATOM      1  C   UNL     1       1.247   2.213  -0.536  0.00  0.00    +0.142 A 
ATOM      2  C   UNL     1       2.409   1.535  -0.866  0.00  0.00    +0.049 A 
ATOM      3  C   UNL     1       3.592   2.231  -1.034  0.00  0.00    +0.032 A 
ATOM      4  C   UNL     1       3.619   3.604  -0.872  0.00  0.00    +0.107 A 
ATOM      5  C   UNL     1       2.465   4.287  -0.543  0.00  0.00    +0.055 A 
ATOM      6  C   UNL     1       1.273   3.597  -0.379  0.00  0.00    +0.077 A 
ENDROOT
BRANCH   6   7
ATOM      7  N   UNL     1       0.099   4.288  -0.051  0.00  0.00    -0.284 N 
ATOM      8  C   UNL     1       0.173   5.506   0.522  0.00  0.00    +0.201 C 
ATOM      9  O   UNL     1       1.250   5.960   0.845  0.00  0.00    -0.278 OA
ATOM     10  H   UNL     1      -0.766   3.891  -0.235  0.00  0.00    +0.155 HD
BRANCH   8  11
ATOM     11  C   UNL     1      -1.084   6.303   0.762  0.00  0.00    +0.020 C 
BRANCH  11  16
ATOM     12  C   UNL     1      -0.191   7.419   2.726  0.00  0.00    -0.077 C 
ATOM     13  C   UNL     1      -0.650   8.631   3.558  0.00  0.00    -0.020 C 
ATOM     14  C   UNL     1      -1.508   9.481   2.593  0.00  0.00    -0.012 C 
ATOM     15  C   UNL     1      -1.939   8.454   1.516  0.00  0.00    -0.030 C 
ATOM     16  N   UNL     1      -0.740   7.619   1.380  0.00  0.00    +0.390 N 
ATOM     17  H   UNL     1      -0.049   8.098   0.790  0.00  0.00    -0.080 HD
BRANCH  15  18
ATOM     18  C   UNL     1      -2.266   9.149   0.220  0.00  0.00    -0.024 A 
ATOM     19  C   UNL     1      -3.478   9.379  -0.343  0.00  0.00    +0.009 A 
ATOM     20  C   UNL     1      -3.539  10.044  -1.553  0.00  0.00    +0.008 A 
ATOM     21  C   UNL     1      -2.386  10.447  -2.141  0.00  0.00    +0.045 A 
ATOM     22  S   UNL     1      -1.160   9.890  -0.970  0.00  0.00    -0.103 S 
ENDBRANCH  15  18
ENDBRANCH  11  16
ENDBRANCH   8  11
ENDBRANCH   6   7
BRANCH   4  23
ATOM     23  S   UNL     1       5.131   4.484  -1.087  0.00  0.00    +0.061 S 
ATOM     24  O   UNL     1       5.007   5.690  -0.347  0.00  0.00    -0.153 OA
ATOM     25  O   UNL     1       6.179   3.553  -0.857  0.00  0.00    -0.153 OA
BRANCH  23  26
ATOM     26  N   UNL     1       5.223   4.915  -2.684  0.00  0.00    -0.172 NA
ATOM     27  C   UNL     1       5.864   4.033  -3.671  0.00  0.00    +0.137 C 
ATOM     28  C   UNL     1       4.899   3.858  -4.855  0.00  0.00    +0.177 C 
ATOM     29  O   UNL     1       4.495   5.146  -5.324  0.00  0.00    -0.377 OA
ATOM     30  C   UNL     1       3.769   5.918  -4.363  0.00  0.00    +0.177 C 
ATOM     31  C   UNL     1       4.671   6.195  -3.155  0.00  0.00    +0.137 C 
ENDBRANCH  23  26
ENDBRANCH   4  23
BRANCH   1  32
ATOM     32  O   UNL     1       0.083   1.530  -0.372  0.00  0.00    -0.488 OA
BRANCH  32  34
ATOM     33  C   UNL     1       0.618  -0.506   0.815  0.00  0.00    +0.051 C 
ATOM     34  C   UNL     1       0.141   0.108  -0.502  0.00  0.00    +0.167 C 
ATOM     35  C   UNL     1      -1.251  -0.430  -0.841  0.00  0.00    +0.051 C 
ENDBRANCH  32  34
ENDBRANCH   1  32
TORSDOF 8
