REMARK  Name = ZINC48845961
REMARK  7 active torsions:
REMARK  status: ('A' for Active; 'I' for Inactive)
REMARK    1  A    between atoms: C_1  and  C_2
REMARK    2  A    between atoms: C_2  and  C_3
REMARK    3  A    between atoms: C_2  and  C_10
REMARK    4  A    between atoms: C_2  and  N_13
REMARK    5  A    between atoms: N_13  and  C_14
REMARK    6  A    between atoms: C_14  and  C_15
REMARK    7  A    between atoms: C_15  and  N_16
REMARK                            x       y       z     vdW  Elec       q    Type
REMARK                         _______ _______ _______ _____ _____    ______ ____
ROOT
ATOM      1  N   UNL     1       0.682  -0.181  -1.300  0.00  0.00    +0.393 N 
ATOM      2  H   UNL     1       1.641   0.121  -1.214  0.00  0.00    -0.084 HD
ATOM      3  H   UNL     1       0.659  -1.155  -1.564  0.00  0.00    -0.084 HD
ENDROOT
BRANCH   1   5
ATOM      4  C   UNL     1      -0.090   1.483   0.323  0.00  0.00    +0.006 C 
ATOM      5  C   UNL     1      -0.003  -0.008  -0.012  0.00  0.00    +0.058 C 
BRANCH   5   6
ATOM      6  C   UNL     1       0.769  -0.721   1.068  0.00  0.00    -0.048 A 
ATOM      7  C   UNL     1       1.935  -1.394   0.755  0.00  0.00    +0.004 A 
ATOM      8  C   UNL     1       2.643  -2.048   1.745  0.00  0.00    +0.015 A 
ATOM      9  C   UNL     1       2.185  -2.029   3.050  0.00  0.00    +0.018 A 
ATOM     10  C   UNL     1       1.018  -1.355   3.363  0.00  0.00    +0.015 A 
ATOM     11  C   UNL     1       0.313  -0.698   2.373  0.00  0.00    +0.004 A 
ATOM     12 BR   UNL     1       3.154  -2.924   4.405  0.00  0.00    -0.050 Br
ENDBRANCH   5   6
BRANCH   5  13
ATOM     13  C   UNL     1      -1.393  -0.584  -0.101  0.00  0.00    +0.349 C 
ATOM     14  O   UNL     1      -1.733  -1.205  -1.093  0.00  0.00    -0.248 OA
ATOM     15  O   UNL     1      -2.177  -0.430   0.820  0.00  0.00    -0.248 OA
ENDBRANCH   5  13
ENDBRANCH   1   5
BRANCH   1  16
ATOM     16  C   UNL     1       0.005   0.621  -2.327  0.00  0.00    -0.065 C 
BRANCH  16  17
ATOM     17  C   UNL     1       0.634   0.337  -3.692  0.00  0.00    +0.065 C 
BRANCH  17  18
ATOM     18  N   UNL     1      -0.043   1.140  -4.720  0.00  0.00    -0.308 NA
ATOM     19  C   UNL     1       0.207   2.574  -4.517  0.00  0.00    +0.065 C 
ATOM     20  C   UNL     1      -0.562   3.376  -5.569  0.00  0.00    -0.067 C 
ATOM     21  N   UNL     1      -0.125   2.970  -6.911  0.00  0.00    +0.381 N 
ATOM     22  C   UNL     1      -0.403   1.541  -7.107  0.00  0.00    -0.067 C 
ATOM     23  C   UNL     1       0.367   0.724  -6.068  0.00  0.00    +0.065 C 
ATOM     24  H   UNL     1      -0.623   3.508  -7.604  0.00  0.00    -0.086 HD
ATOM     25  H   UNL     1       0.866   3.135  -7.006  0.00  0.00    -0.086 HD
ENDBRANCH  17  18
ENDBRANCH  16  17
ENDBRANCH   1  16
TORSDOF 6
