REMARK  Name = ZINC35747708
REMARK  14 active torsions:
REMARK  status: ('A' for Active; 'I' for Inactive)
REMARK    1  A    between atoms: C_1  and  C_2
REMARK    2  A    between atoms: C_2  and  C_3
REMARK    3  A    between atoms: C_3  and  N_4
REMARK    4  A    between atoms: N_4  and  C_5
REMARK    5  A    between atoms: N_4  and  C_25
REMARK    6  A    between atoms: C_5  and  C_6
REMARK    7  A    between atoms: C_12  and  C_17
REMARK    8  A    between atoms: C_20  and  C_24
REMARK    9  A    between atoms: C_22  and  C_23
REMARK   10  A    between atoms: C_25  and  C_26
REMARK   11  A    between atoms: C_26  and  C_28
REMARK   12  A    between atoms: C_26  and  O_32
REMARK   13  A    between atoms: C_28  and  C_29
REMARK   14  A    between atoms: C_29  and  C_30
REMARK                            x       y       z     vdW  Elec       q    Type
REMARK                         _______ _______ _______ _____ _____    ______ ____
ROOT
ATOM      1  C   UNL     1       0.657  -1.813   1.155  0.00  0.00    +0.094 A 
ATOM      2  N   UNL     1       1.460  -2.067   2.221  0.00  0.00    -0.312 N 
ATOM      3  H   UNL     1       1.134  -2.633   2.938  0.00  0.00    +0.170 HD
ATOM      4  C   UNL     1       2.699  -1.548   2.301  0.00  0.00    +0.260 A 
ATOM      5  O   UNL     1       3.408  -1.786   3.264  0.00  0.00    -0.267 OA
ATOM      6  C   UNL     1       3.172  -0.714   1.239  0.00  0.00    +0.080 A 
ATOM      7  C   UNL     1       4.459  -0.044   1.096  0.00  0.00    +0.004 A 
ATOM      8  C   UNL     1       4.685   0.704  -0.012  0.00  0.00    +0.056 A 
ATOM      9  S   UNL     1       3.166   0.547  -0.932  0.00  0.00    -0.076 S 
ATOM     10  C   UNL     1       2.273  -0.508   0.180  0.00  0.00    +0.116 A 
ATOM     11  N   UNL     1       1.063  -1.060   0.168  0.00  0.00    -0.229 NA
ENDROOT
BRANCH   7  12
ATOM     12  C   UNL     1       5.501  -0.177   2.142  0.00  0.00    -0.014 A 
ATOM     13  C   UNL     1       5.899   0.937   2.880  0.00  0.00    +0.009 A 
ATOM     14  C   UNL     1       6.868   0.807   3.853  0.00  0.00    +0.004 A 
ATOM     15  C   UNL     1       7.446  -0.426   4.097  0.00  0.00    -0.050 A 
ATOM     16  C   UNL     1       7.055  -1.535   3.368  0.00  0.00    +0.007 A 
ATOM     17  C   UNL     1       6.083  -1.418   2.396  0.00  0.00    -0.042 A 
ATOM     18  C   UNL     1       5.654  -2.629   1.607  0.00  0.00    +0.044 C 
ATOM     19  C   UNL     1       8.505  -0.562   5.160  0.00  0.00    +0.044 C 
ENDBRANCH   7  12
BRANCH   1  20
ATOM     20  C   UNL     1      -0.723  -2.416   1.108  0.00  0.00    -0.003 C 
BRANCH  20  21
ATOM     21  N   UNL     1      -1.336  -2.136  -0.197  0.00  0.00    +0.386 N 
ATOM     22  H   UNL     1      -1.295  -1.145  -0.382  0.00  0.00    -0.081 HD
BRANCH  21  23
ATOM     23  C   UNL     1      -2.738  -2.574  -0.185  0.00  0.00    -0.078 C 
BRANCH  23  25
ATOM     24  C   UNL     1      -5.013  -2.085   0.725  0.00  0.00    +0.002 C 
ATOM     25  C   UNL     1      -3.527  -1.729   0.817  0.00  0.00    -0.022 C 
ENDBRANCH  23  25
ENDBRANCH  21  23
BRANCH  21  26
ATOM     26  C   UNL     1      -0.606  -2.860  -1.246  0.00  0.00    -0.047 C 
BRANCH  26  27
ATOM     27  C   UNL     1      -1.163  -2.471  -2.617  0.00  0.00    +0.098 C 
BRANCH  27  28
ATOM     28  O   UNL     1      -0.904  -1.088  -2.862  0.00  0.00    -0.394 OA
ATOM     29  H   UNL     1       0.035  -0.857  -2.861  0.00  0.00    +0.210 HD
ENDBRANCH  27  28
BRANCH  27  30
ATOM     30  C   UNL     1      -0.490  -3.316  -3.700  0.00  0.00    +0.033 C 
BRANCH  30  31
ATOM     31  C   UNL     1      -1.135  -3.017  -5.055  0.00  0.00    +0.029 C 
BRANCH  31  32
ATOM     32  C   UNL     1      -0.471  -3.849  -6.122  0.00  0.00    -0.034 C 
ATOM     33  C   UNL     1      -1.193  -4.628  -6.889  0.00  0.00    +0.004 C 
ENDBRANCH  31  32
ENDBRANCH  30  31
ENDBRANCH  27  30
ENDBRANCH  26  27
ENDBRANCH  21  26
ENDBRANCH  20  21
ENDBRANCH   1  20
TORSDOF 11
