REMARK  Name = ZINC44163637
REMARK  10 active torsions:
REMARK  status: ('A' for Active; 'I' for Inactive)
REMARK    1  A    between atoms: C_1  and  C_2
REMARK    2  A    between atoms: C_2  and  C_4
REMARK    3  A    between atoms: C_2  and  C_26
REMARK    4  A    between atoms: C_4  and  N_5
REMARK    5  A    between atoms: C_6  and  C_8
REMARK    6  A    between atoms: C_13  and  C_16
REMARK    7  A    between atoms: C_19  and  O_24
REMARK    8  A    between atoms: C_21  and  O_22
REMARK    9  A    between atoms: O_22  and  C_23
REMARK   10  A    between atoms: O_24  and  C_25
REMARK                            x       y       z     vdW  Elec       q    Type
REMARK                         _______ _______ _______ _____ _____    ______ ____
ROOT
ATOM      1  C   UNL     1      -0.409  -0.050  -4.888  0.00  0.00    +0.027 C 
ATOM      2  C   UNL     1      -1.805  -0.678  -4.810  0.00  0.00    +0.062 C 
ATOM      3  S   UNL     1      -2.760  -0.128  -6.258  0.00  0.00    -0.163 S 
ATOM      4  C   UNL     1      -1.624  -0.471  -7.638  0.00  0.00    +0.058 C 
ATOM      5  C   UNL     1      -0.254   0.126  -7.293  0.00  0.00    -0.026 C 
ATOM      6  N   UNL     1       0.280  -0.520  -6.092  0.00  0.00    +0.392 N 
ATOM      7  H   UNL     1       1.264  -0.309  -6.014  0.00  0.00    -0.084 HD
ATOM      8  H   UNL     1       0.162  -1.519  -6.172  0.00  0.00    -0.084 HD
ENDROOT
BRANCH   5   9
ATOM      9  C   UNL     1       0.694  -0.097  -8.443  0.00  0.00    -0.019 A 
ATOM     10  C   UNL     1       1.533  -1.194  -8.443  0.00  0.00    +0.009 A 
ATOM     11  C   UNL     1       2.404  -1.402  -9.496  0.00  0.00    +0.046 A 
ATOM     12  C   UNL     1       2.436  -0.507 -10.557  0.00  0.00    +0.124 A 
ATOM     13  C   UNL     1       1.595   0.594 -10.560  0.00  0.00    +0.091 A 
ATOM     14  C   UNL     1       0.718   0.797  -9.504  0.00  0.00    +0.125 A 
BRANCH  14  15
ATOM     15  O   UNL     1      -0.112   1.873  -9.507  0.00  0.00    -0.495 OA
ATOM     16  C   UNL     1      -0.032   2.751 -10.631  0.00  0.00    +0.277 C 
ENDBRANCH  14  15
BRANCH  12  17
ATOM     17  O   UNL     1       3.292  -0.711 -11.592  0.00  0.00    -0.495 OA
ATOM     18  C   UNL     1       4.130  -1.867 -11.523  0.00  0.00    +0.277 C 
ENDBRANCH  12  17
ENDBRANCH   5   9
BRANCH   1  20
ATOM     19  N   UNL     1      -0.055  -0.114  -2.441  0.00  0.00    -0.316 N 
ATOM     20  C   UNL     1       0.387  -0.445  -3.670  0.00  0.00    +0.200 C 
ATOM     21  O   UNL     1       1.424  -1.060  -3.797  0.00  0.00    -0.278 OA
ATOM     22  H   UNL     1      -0.885   0.378  -2.339  0.00  0.00    +0.149 HD
BRANCH  19  23
ATOM     23  C   UNL     1       0.718  -0.497  -1.257  0.00  0.00    +0.112 C 
BRANCH  23  25
ATOM     24  C   UNL     1      -0.019   1.526   0.010  0.00  0.00    +0.014 C 
ATOM     25  C   UNL     1       0.002  -0.004   0.002  0.00  0.00    +0.033 C 
BRANCH  25  26
ATOM     26  C   UNL     1       0.731  -0.503   1.223  0.00  0.00    -0.043 A 
ATOM     27  C   UNL     1       2.050  -0.148   1.434  0.00  0.00    +0.004 A 
ATOM     28  C   UNL     1       2.719  -0.606   2.554  0.00  0.00    +0.000 A 
ATOM     29  C   UNL     1       2.068  -1.419   3.463  0.00  0.00    +0.000 A 
ATOM     30  C   UNL     1       0.749  -1.773   3.252  0.00  0.00    +0.000 A 
ATOM     31  C   UNL     1       0.079  -1.312   2.135  0.00  0.00    +0.004 A 
ENDBRANCH  25  26
ENDBRANCH  23  25
ENDBRANCH  19  23
ENDBRANCH   1  20
TORSDOF 7
