REMARK  Name = ZINC39655576
REMARK  6 active torsions:
REMARK  status: ('A' for Active; 'I' for Inactive)
REMARK    1  A    between atoms: C_4  and  N_7
REMARK    2  A    between atoms: N_7  and  C_8
REMARK    3  A    between atoms: C_8  and  C_9
REMARK    4  A    between atoms: C_9  and  N_10
REMARK    5  A    between atoms: C_11  and  C_13
REMARK    6  A    between atoms: C_24  and  C_26
REMARK                            x       y       z     vdW  Elec       q    Type
REMARK                         _______ _______ _______ _____ _____    ______ ____
ROOT
ATOM      1  C   UNL     1       6.286  -6.306  -0.084  0.00  0.00    +0.100 C 
ATOM      2  C   UNL     1       5.519  -6.814  -1.325  0.00  0.00    +0.121 C 
ATOM      3  N   UNL     1       6.567  -7.030  -2.350  0.00  0.00    -0.297 N 
ATOM      4  C   UNL     1       7.707  -7.606  -1.597  0.00  0.00    +0.115 C 
ATOM      5  C   UNL     1       7.720  -6.830  -0.264  0.00  0.00    -0.004 C 
ATOM      6  C   UNL     1       8.702  -5.666  -0.342  0.00  0.00    -0.010 C 
ATOM      7  C   UNL     1      10.127  -6.213  -0.464  0.00  0.00    -0.082 C 
ATOM      8  N   UNL     1      10.430  -7.058   0.698  0.00  0.00    +0.379 N 
ATOM      9  C   UNL     1       9.541  -8.225   0.714  0.00  0.00    -0.082 C 
ATOM     10  C   UNL     1       8.091  -7.763   0.885  0.00  0.00    -0.010 C 
ATOM     11  C   UNL     1       6.499  -6.764  -3.670  0.00  0.00    +0.260 C 
ATOM     12  O   UNL     1       5.527  -6.201  -4.126  0.00  0.00    -0.271 OA
ATOM     13  H   UNL     1      11.389  -7.367   0.646  0.00  0.00    -0.086 HD
ATOM     14  H   UNL     1      10.297  -6.524   1.544  0.00  0.00    -0.086 HD
ENDROOT
BRANCH  11  15
ATOM     15  C   UNL     1       7.632  -7.167  -4.579  0.00  0.00    +0.296 C 
ATOM     16  C   UNL     1       7.683  -8.697  -4.695  0.00  0.00    +0.283 C 
ATOM     17  O   UNL     1       8.758  -9.044  -5.574  0.00  0.00    -0.484 OA
ATOM     18  C   UNL     1       8.847  -8.343  -6.738  0.00  0.00    +0.162 A 
ATOM     19  C   UNL     1       9.611  -8.847  -7.779  0.00  0.00    +0.049 A 
ATOM     20  C   UNL     1       9.714  -8.146  -8.966  0.00  0.00    +0.004 A 
ATOM     21  C   UNL     1       9.054  -6.941  -9.118  0.00  0.00    +0.004 A 
ATOM     22  C   UNL     1       8.289  -6.434  -8.085  0.00  0.00    +0.049 A 
ATOM     23  C   UNL     1       8.181  -7.133  -6.892  0.00  0.00    +0.163 A 
ATOM     24  O   UNL     1       7.418  -6.624  -5.886  0.00  0.00    -0.473 OA
ENDBRANCH  11  15
BRANCH   1  26
ATOM     25  N   UNL     1       6.319  -4.158   1.142  0.00  0.00    -0.314 N 
ATOM     26  C   UNL     1       6.279  -4.800  -0.043  0.00  0.00    +0.218 C 
ATOM     27  O   UNL     1       6.237  -4.165  -1.075  0.00  0.00    -0.275 OA
ATOM     28  H   UNL     1       6.352  -4.665   1.968  0.00  0.00    +0.149 HD
BRANCH  25  29
ATOM     29  C   UNL     1       6.312  -2.693   1.181  0.00  0.00    +0.123 C 
BRANCH  29  30
ATOM     30  C   UNL     1       6.363  -2.223   2.636  0.00  0.00    +0.120 C 
BRANCH  30  31
ATOM     31  N   UNL     1       6.356  -0.758   2.676  0.00  0.00    -0.342 N 
ATOM     32  H   UNL     1       6.322  -0.251   1.850  0.00  0.00    +0.146 HD
BRANCH  31  36
ATOM     33  C   UNL     1       6.478   1.225   6.335  0.00  0.00    +0.000 A 
ATOM     34  C   UNL     1       6.431   1.950   5.158  0.00  0.00    +0.002 A 
ATOM     35  C   UNL     1       6.391   1.296   3.943  0.00  0.00    +0.023 A 
ATOM     36  C   UNL     1       6.397  -0.093   3.904  0.00  0.00    +0.027 A 
ATOM     37  C   UNL     1       6.444  -0.818   5.087  0.00  0.00    +0.023 A 
ATOM     38  C   UNL     1       6.485  -0.157   6.299  0.00  0.00    +0.002 A 
ENDBRANCH  31  36
ENDBRANCH  30  31
ENDBRANCH  29  30
ENDBRANCH  25  29
ENDBRANCH   1  26
TORSDOF 6
