REMARK  Name = ZINC09633558
REMARK  7 active torsions:
REMARK  status: ('A' for Active; 'I' for Inactive)
REMARK    1  A    between atoms: C_1  and  C_2
REMARK    2  A    between atoms: C_5  and  N_12
REMARK    3  A    between atoms: C_7  and  S_8
REMARK    4  A    between atoms: S_8  and  N_11
REMARK    5  A    between atoms: C_15  and  C_25
REMARK    6  A    between atoms: C_18  and  C_24
REMARK    7  A    between atoms: C_20  and  C_23
REMARK                            x       y       z     vdW  Elec       q    Type
REMARK                         _______ _______ _______ _____ _____    ______ ____
ROOT
ATOM      1  N   UNL     1       0.057  -4.168  -0.021  0.00  0.00    -0.301 N 
ATOM      2  C   UNL     1      -0.045  -4.857  -1.221  0.00  0.00    +0.101 A 
ATOM      3  C   UNL     1      -0.053  -4.137  -2.425  0.00  0.00    +0.045 A 
ATOM      4  C   UNL     1      -0.152  -4.800  -3.611  0.00  0.00    -0.038 A 
ATOM      5  C   UNL     1      -0.244  -6.207  -3.585  0.00  0.00    +0.002 A 
ATOM      6  C   UNL     1      -0.348  -6.952  -4.770  0.00  0.00    +0.013 A 
ATOM      7  C   UNL     1      -0.435  -8.309  -4.706  0.00  0.00    -0.050 A 
ATOM      8  C   UNL     1      -0.422  -8.970  -3.480  0.00  0.00    +0.008 A 
ATOM      9  C   UNL     1      -0.322  -8.278  -2.312  0.00  0.00    -0.026 A 
ATOM     10  C   UNL     1      -0.231  -6.875  -2.337  0.00  0.00    +0.051 A 
ATOM     11  N   UNL     1      -0.126  -6.172  -1.204  0.00  0.00    -0.343 N 
ATOM     12  C   UNL     1      -0.309  -9.013  -0.996  0.00  0.00    +0.046 C 
ATOM     13  C   UNL     1      -0.547  -9.108  -5.980  0.00  0.00    +0.044 C 
ATOM     14  C   UNL     1      -0.164  -4.049  -4.918  0.00  0.00    +0.044 C 
ATOM     15  H   UNL     1       0.201  -4.654   0.806  0.00  0.00    +0.154 HD
ATOM     16  H   UNL     1      -0.114  -6.638  -0.353  0.00  0.00    +0.167 HD
ENDROOT
BRANCH   1  21
ATOM     17  C   UNL     1      -0.367   1.487   0.048  0.00  0.00    +0.046 C 
ATOM     18  C   UNL     1      -0.254  -0.016   0.030  0.00  0.00    -0.024 A 
ATOM     19  C   UNL     1       0.706  -0.645   0.800  0.00  0.00    +0.007 A 
ATOM     20  C   UNL     1       0.812  -2.022   0.786  0.00  0.00    +0.023 A 
ATOM     21  C   UNL     1      -0.048  -2.775  -0.004  0.00  0.00    +0.034 A 
ATOM     22  C   UNL     1      -1.012  -2.140  -0.776  0.00  0.00    +0.052 A 
ATOM     23  C   UNL     1      -1.115  -0.762  -0.753  0.00  0.00    +0.110 A 
BRANCH  23  24
ATOM     24  S   UNL     1      -2.342   0.044  -1.727  0.00  0.00    +0.056 S 
ATOM     25  O   UNL     1      -1.681   1.084  -2.434  0.00  0.00    -0.153 OA
ATOM     26  O   UNL     1      -3.075  -0.980  -2.386  0.00  0.00    -0.153 OA
BRANCH  24  27
ATOM     27  N   UNL     1      -3.394   0.779  -0.680  0.00  0.00    -0.204 NA
ATOM     28  H   UNL     1      -3.854   1.591  -0.945  0.00  0.00    +0.144 HD
ATOM     29  H   UNL     1      -3.550   0.397   0.198  0.00  0.00    +0.144 HD
ENDBRANCH  24  27
ENDBRANCH  23  24
ENDBRANCH   1  21
TORSDOF 3
