REMARK  Name = ZINC14543864
REMARK  12 active torsions:
REMARK  status: ('A' for Active; 'I' for Inactive)
REMARK    1  A    between atoms: C_1  and  C_2
REMARK    2  A    between atoms: C_2  and  N_67
REMARK    3  A    between atoms: C_3  and  C_4
REMARK    4  A    between atoms: C_3  and  N_67
REMARK    5  A    between atoms: C_5  and  C_6
REMARK    6  A    between atoms: C_5  and  N_67
REMARK    7  A    between atoms: C_6  and  N_7
REMARK    8  A    between atoms: C_8  and  C_10
REMARK    9  A    between atoms: C_23  and  C_26
REMARK   10  A    between atoms: C_29  and  O_32
REMARK   11  A    between atoms: O_32  and  C_33
REMARK   12  A    between atoms: C_33  and  C_34
REMARK                            x       y       z     vdW  Elec       q    Type
REMARK                         _______ _______ _______ _____ _____    ______ ____
ROOT
ATOM      1  C   UNL     1       0.251  -3.218  -1.737  0.00  0.00    +0.037 A 
ATOM      2  C   UNL     1      -0.909  -2.451  -1.879  0.00  0.00    +0.015 A 
ATOM      3  C   UNL     1      -0.819  -1.133  -2.256  0.00  0.00    +0.024 A 
ATOM      4  C   UNL     1       0.422  -0.549  -2.501  0.00  0.00    +0.031 A 
ATOM      5  C   UNL     1       1.585  -1.323  -2.372  0.00  0.00    -0.019 A 
ATOM      6  C   UNL     1       1.498  -2.639  -1.988  0.00  0.00    +0.019 A 
ATOM      7  C   UNL     1       2.877  -0.669  -2.672  0.00  0.00    +0.049 C 
ATOM      8  C   UNL     1       4.152  -1.127  -2.063  0.00  0.00    -0.023 C 
ATOM      9  C   UNL     1       4.957  -0.079  -1.931  0.00  0.00    -0.030 C 
ATOM     10  C   UNL     1       4.253   1.188  -2.420  0.00  0.00    +0.033 C 
ATOM     11  C   UNL     1       2.777   0.818  -2.219  0.00  0.00    +0.029 C 
ATOM     12  C   UNL     1       1.769   1.459  -3.156  0.00  0.00    +0.105 C 
ATOM     13  N   UNL     1       0.479   0.794  -2.869  0.00  0.00    -0.336 N 
ATOM     14  H   UNL     1      -0.344   1.303  -2.942  0.00  0.00    +0.147 HD
ENDROOT
BRANCH  12  15
ATOM     15  C   UNL     1       1.666   2.936  -2.878  0.00  0.00    -0.027 A 
ATOM     16  C   UNL     1       0.962   3.384  -1.776  0.00  0.00    +0.009 A 
ATOM     17  C   UNL     1       0.872   4.738  -1.516  0.00  0.00    +0.046 A 
ATOM     18  C   UNL     1       1.478   5.649  -2.369  0.00  0.00    +0.121 A 
ATOM     19  C   UNL     1       2.179   5.197  -3.478  0.00  0.00    +0.046 A 
ATOM     20  C   UNL     1       2.271   3.842  -3.730  0.00  0.00    +0.009 A 
BRANCH  18  21
ATOM     21  O   UNL     1       1.386   6.981  -2.119  0.00  0.00    -0.492 OA
BRANCH  21  22
ATOM     22  C   UNL     1       0.648   7.374  -0.960  0.00  0.00    +0.225 C 
ATOM     23  C   UNL     1       0.654   8.900  -0.844  0.00  0.00    +0.048 C 
ENDBRANCH  21  22
ENDBRANCH  18  21
ENDBRANCH  12  15
BRANCH   1  25
ATOM     24  N   UNL     1      -1.045  -5.187  -1.085  0.00  0.00    -0.313 N 
ATOM     25  C   UNL     1       0.160  -4.632  -1.326  0.00  0.00    +0.244 C 
ATOM     26  O   UNL     1       1.171  -5.297  -1.204  0.00  0.00    -0.270 OA
ATOM     27  H   UNL     1      -1.851  -4.657  -1.182  0.00  0.00    +0.149 HD
BRANCH  24  28
ATOM     28  C   UNL     1      -1.135  -6.591  -0.676  0.00  0.00    +0.086 C 
BRANCH  28  29
ATOM     29  C   UNL     1      -2.604  -6.968  -0.469  0.00  0.00    -0.060 C 
BRANCH  29  30
ATOM     30  N   UNL     1      -2.680  -8.391  -0.078  0.00  0.00    +0.380 N 
ATOM     31  H   UNL     1      -2.151  -8.952  -0.756  0.00  0.00    -0.082 HD
BRANCH  30  33
ATOM     32  C   UNL     1      -2.840  -7.738   2.301  0.00  0.00    -0.017 C 
ATOM     33  C   UNL     1      -2.091  -8.579   1.265  0.00  0.00    -0.082 C 
ENDBRANCH  30  33
BRANCH  30  34
ATOM     34  C   UNL     1      -4.088  -8.841  -0.080  0.00  0.00    -0.082 C 
ATOM     35  C   UNL     1      -4.116 -10.370  -0.036  0.00  0.00    -0.017 C 
ENDBRANCH  30  34
ENDBRANCH  29  30
ENDBRANCH  28  29
ENDBRANCH  24  28
ENDBRANCH   1  25
TORSDOF 9
