REMARK  Name = ZINC16322865
REMARK  14 active torsions:
REMARK  status: ('A' for Active; 'I' for Inactive)
REMARK    1  A    between atoms: C_1  and  C_2
REMARK    2  A    between atoms: C_2  and  C_3
REMARK    3  A    between atoms: C_2  and  C_4
REMARK    4  A    between atoms: C_2  and  N_5
REMARK    5  A    between atoms: C_6  and  C_8
REMARK    6  A    between atoms: C_8  and  O_9
REMARK    7  A    between atoms: O_9  and  C_10
REMARK    8  A    between atoms: C_13  and  C_16
REMARK    9  A    between atoms: C_16  and  N_56
REMARK   10  A    between atoms: C_17  and  C_18
REMARK   11  A    between atoms: C_17  and  N_56
REMARK   12  A    between atoms: C_18  and  N_19
REMARK   13  A    between atoms: N_19  and  C_20
REMARK   14  A    between atoms: C_23  and  N_27
REMARK                            x       y       z     vdW  Elec       q    Type
REMARK                         _______ _______ _______ _____ _____    ______ ____
ROOT
ATOM      1  C   UNL     1       1.226  -2.187  -0.021  0.00  0.00    -0.047 C 
ENDROOT
BRANCH   1   5
ATOM      2  C   UNL     1       1.176   2.086   0.002  0.00  0.00    +0.121 A 
ATOM      3  C   UNL     1      -0.017   1.377   0.010  0.00  0.00    +0.046 A 
ATOM      4  C   UNL     1       0.002  -0.004   0.002  0.00  0.00    +0.005 A 
ATOM      5  C   UNL     1       1.208  -0.680  -0.013  0.00  0.00    -0.064 A 
ATOM      6  C   UNL     1       2.398   0.024  -0.021  0.00  0.00    +0.005 A 
ATOM      7  C   UNL     1       2.385   1.405  -0.013  0.00  0.00    +0.046 A 
BRANCH   2   8
ATOM      8  O   UNL     1       1.160   3.445   0.009  0.00  0.00    -0.483 OA
BRANCH   8   9
ATOM      9  C   UNL     1       2.426   4.108   0.001  0.00  0.00    +0.324 C 
BRANCH   9  11
ATOM     10  N   UNL     1       3.270   6.433   0.004  0.00  0.00    -0.308 N 
ATOM     11  C   UNL     1       2.211   5.600   0.010  0.00  0.00    +0.251 C 
ATOM     12  O   UNL     1       1.085   6.051   0.023  0.00  0.00    -0.272 OA
ATOM     13  H   UNL     1       4.171   6.073  -0.006  0.00  0.00    +0.149 HD
BRANCH  10  15
ATOM     14  C   UNL     1       2.286   8.279   1.272  0.00  0.00    +0.031 C 
ATOM     15  C   UNL     1       3.061   7.883   0.014  0.00  0.00    +0.026 C 
ATOM     16  C   UNL     1       4.416   8.594   0.004  0.00  0.00    +0.031 C 
ATOM     17  C   UNL     1       2.263   8.292  -1.226  0.00  0.00    +0.031 C 
ENDBRANCH  10  15
ENDBRANCH   9  11
ENDBRANCH   8   9
ENDBRANCH   2   8
ENDBRANCH   1   5
BRANCH   1  18
ATOM     18  N   UNL     1       1.218  -2.663  -1.417  0.00  0.00    +0.383 N 
ATOM     19  H   UNL     1       2.047  -2.303  -1.903  0.00  0.00    -0.085 HD
ATOM     20  H   UNL     1       0.371  -2.322  -1.886  0.00  0.00    -0.085 HD
BRANCH  18  21
ATOM     21  C   UNL     1       1.234  -4.138  -1.455  0.00  0.00    -0.063 C 
BRANCH  21  22
ATOM     22  C   UNL     1       1.226  -4.602  -2.913  0.00  0.00    +0.082 C 
BRANCH  22  23
ATOM     23  N   UNL     1       1.242  -6.066  -2.960  0.00  0.00    -0.345 N 
ATOM     24  H   UNL     1       1.256  -6.577  -2.135  0.00  0.00    +0.146 HD
BRANCH  23  25
ATOM     25  C   UNL     1       1.238  -6.726  -4.191  0.00  0.00    +0.046 A 
ATOM     26  C   UNL     1       1.218  -5.995  -5.372  0.00  0.00    +0.026 A 
ATOM     27  C   UNL     1       1.214  -6.651  -6.588  0.00  0.00    +0.034 A 
ATOM     28  C   UNL     1       1.230  -8.033  -6.631  0.00  0.00    +0.128 A 
ATOM     29  C   UNL     1       1.250  -8.764  -5.458  0.00  0.00    +0.054 A 
ATOM     30  C   UNL     1       1.260  -8.115  -4.238  0.00  0.00    +0.064 A 
ATOM     31 CL   UNL     1       1.292  -9.033  -2.765  0.00  0.00    -0.082 Cl
BRANCH  28  32
ATOM     32  N   UNL     1       1.226  -8.731  -7.936  0.00  0.00    +0.056 N 
ATOM     33  O   UNL     1       1.209  -8.088  -8.971  0.00  0.00    -0.126 OA
ATOM     34  O   UNL     1       1.239  -9.948  -7.976  0.00  0.00    -0.126 OA
ENDBRANCH  28  32
ENDBRANCH  23  25
ENDBRANCH  22  23
ENDBRANCH  21  22
ENDBRANCH  18  21
ENDBRANCH   1  18
TORSDOF 11
