REMARK  Name = ZINC43021965
REMARK  9 active torsions:
REMARK  status: ('A' for Active; 'I' for Inactive)
REMARK    1  A    between atoms: C_1  and  C_2
REMARK    2  A    between atoms: C_2  and  C_3
REMARK    3  A    between atoms: C_3  and  C_5
REMARK    4  A    between atoms: C_3  and  N_23
REMARK    5  A    between atoms: C_5  and  C_7
REMARK    6  A    between atoms: C_5  and  N_14
REMARK    7  A    between atoms: N_14  and  C_15
REMARK    8  A    between atoms: N_14  and  C_20
REMARK    9  A    between atoms: C_15  and  C_16
REMARK                            x       y       z     vdW  Elec       q    Type
REMARK                         _______ _______ _______ _____ _____    ______ ____
ROOT
ATOM      1  C   UNL     1       0.484  -1.913  -0.635  0.00  0.00    +0.073 C 
ENDROOT
BRANCH   1   2
ATOM      2  C   UNL     1       0.304  -2.725   0.622  0.00  0.00    -0.031 A 
ATOM      3  C   UNL     1      -0.967  -3.049   1.059  0.00  0.00    +0.005 A 
ATOM      4  C   UNL     1      -1.133  -3.795   2.211  0.00  0.00    +0.001 A 
ATOM      5  C   UNL     1      -0.028  -4.217   2.927  0.00  0.00    +0.015 A 
ATOM      6  C   UNL     1       1.244  -3.893   2.489  0.00  0.00    +0.018 A 
ATOM      7  C   UNL     1       1.409  -3.152   1.333  0.00  0.00    +0.020 A 
ATOM      8 BR   UNL     1       2.756  -4.470   3.467  0.00  0.00    -0.050 Br
ENDBRANCH   1   2
BRANCH   1   9
ATOM      9  C   UNL     1       0.342  -0.426  -0.305  0.00  0.00    -0.053 C 
BRANCH   9  10
ATOM     10  N   UNL     1       1.316  -0.059   0.732  0.00  0.00    +0.381 N 
ATOM     11  H   UNL     1       2.249  -0.242   0.396  0.00  0.00    -0.090 HD
ATOM     12  H   UNL     1       1.222   0.922   0.950  0.00  0.00    -0.090 HD
ATOM     13  H   UNL     1       1.144  -0.606   1.563  0.00  0.00    -0.090 HD
ENDBRANCH   9  10
BRANCH   9  15
ATOM     14  C   UNL     1      -1.266   1.358   0.385  0.00  0.00    +0.002 C 
ATOM     15  C   UNL     1      -1.074  -0.149   0.205  0.00  0.00    -0.018 C 
ENDBRANCH   9  15
ENDBRANCH   1   9
BRANCH   1  16
ATOM     16  N   UNL     1      -0.540  -2.296  -1.617  0.00  0.00    -0.286 NA
BRANCH  16  17
ATOM     17  C   UNL     1      -0.473  -1.439  -2.808  0.00  0.00    +0.058 C 
ATOM     18  C   UNL     1      -0.116  -2.105  -4.138  0.00  0.00    +0.020 C 
ATOM     19  C   UNL     1       0.903  -1.206  -3.434  0.00  0.00    +0.020 C 
ENDBRANCH  16  17
BRANCH  16  20
ATOM     20  C   UNL     1      -0.415  -3.714  -1.980  0.00  0.00    +0.199 C 
BRANCH  20  21
ATOM     21  C   UNL     1      -1.765  -4.233  -2.479  0.00  0.00    +0.402 C 
ATOM     22  F   UNL     1      -2.110  -3.574  -3.663  0.00  0.00    -0.169 F 
ATOM     23  F   UNL     1      -1.676  -5.608  -2.720  0.00  0.00    -0.169 F 
ATOM     24  F   UNL     1      -2.744  -3.992  -1.509  0.00  0.00    -0.169 F 
ENDBRANCH  20  21
ENDBRANCH  16  20
ENDBRANCH   1  16
TORSDOF 8
