REMARK  Name = ZINC58114043
REMARK  3 active torsions:
REMARK  status: ('A' for Active; 'I' for Inactive)
REMARK    1  A    between atoms: C_2  and  C_13
REMARK    2  A    between atoms: C_13  and  C_15
REMARK    3  A    between atoms: C_13  and  N_21
REMARK                            x       y       z     vdW  Elec       q    Type
REMARK                         _______ _______ _______ _____ _____    ______ ____
ROOT
ATOM      1  C   UNL     1      -0.017   1.377   0.010  0.00  0.00    +0.007 A 
ATOM      2  C   UNL     1       1.171   2.085   0.002  0.00  0.00    -0.058 A 
ATOM      3  C   UNL     1       2.380   1.415  -0.014  0.00  0.00    +0.024 A 
ATOM      4  C   UNL     1       2.406   0.033  -0.022  0.00  0.00    +0.063 A 
ATOM      5  C   UNL     1       1.214  -0.681  -0.014  0.00  0.00    +0.055 A 
ATOM      6  C   UNL     1       0.002  -0.004   0.002  0.00  0.00    -0.024 A 
ATOM      7  C   UNL     1      -1.290  -0.779   0.011  0.00  0.00    +0.046 C 
ATOM      8  C   UNL     1      -1.122  -2.063  -0.801  0.00  0.00    +0.101 C 
ATOM      9  C   UNL     1       0.137  -2.774  -0.382  0.00  0.00    +0.218 C 
ATOM     10  O   UNL     1       0.165  -3.987  -0.369  0.00  0.00    -0.275 OA
ATOM     11  N   UNL     1       1.232  -2.080  -0.022  0.00  0.00    -0.284 N 
ATOM     12 CL   UNL     1       3.924  -0.809  -0.043  0.00  0.00    -0.082 Cl
ATOM     13  H   UNL     1       2.040  -2.553   0.234  0.00  0.00    +0.155 HD
ENDROOT
BRANCH   2  14
ATOM     14  C   UNL     1       1.147   3.592   0.011  0.00  0.00    -0.015 C 
BRANCH  14  15
ATOM     15  C   UNL     1       1.403   4.098   1.432  0.00  0.00    +0.108 C 
ATOM     16  C   UNL     1       1.385   5.642   1.449  0.00  0.00    +0.032 C 
ATOM     17  C   UNL     1       2.538   5.973   2.436  0.00  0.00    +0.030 C 
ATOM     18  C   UNL     1       3.527   4.820   2.132  0.00  0.00    +0.160 C 
ATOM     19  O   UNL     1       2.698   3.673   1.873  0.00  0.00    -0.378 OA
ENDBRANCH  14  15
BRANCH  14  20
ATOM     20  N   UNL     1       2.192   4.104  -0.887  0.00  0.00    +0.384 N 
ATOM     21  H   UNL     1       2.023   3.770  -1.824  0.00  0.00    -0.089 HD
ATOM     22  H   UNL     1       2.176   5.112  -0.881  0.00  0.00    -0.089 HD
ATOM     23  H   UNL     1       3.094   3.780  -0.572  0.00  0.00    -0.089 HD
ENDBRANCH  14  20
ENDBRANCH   2  14
TORSDOF 3
