REMARK  Name = ZINC39632051
REMARK  14 active torsions:
REMARK  status: ('A' for Active; 'I' for Inactive)
REMARK    1  A    between atoms: C_1  and  C_2
REMARK    2  A    between atoms: C_2  and  O_3
REMARK    3  A    between atoms: O_3  and  C_4
REMARK    4  A    between atoms: C_8  and  C_10
REMARK    5  A    between atoms: C_14  and  C_23
REMARK    6  A    between atoms: N_25  and  C_26
REMARK    7  A    between atoms: C_26  and  C_28
REMARK    8  A    between atoms: C_26  and  C_29
REMARK    9  A    between atoms: C_29  and  C_30
REMARK   10  A    between atoms: C_30  and  C_31
REMARK   11  A    between atoms: C_31  and  C_32
REMARK   12  A    between atoms: C_32  and  C_33
REMARK   13  A    between atoms: C_32  and  C_34
REMARK   14  A    between atoms: C_32  and  O_35
REMARK                            x       y       z     vdW  Elec       q    Type
REMARK                         _______ _______ _______ _____ _____    ______ ____
ROOT
ATOM      1  C   UNL     1       2.207  -4.262  -3.798  0.00  0.00    +0.247 C 
ATOM      2  O   UNL     1       2.582  -3.522  -4.686  0.00  0.00    -0.270 OA
ATOM      3  N   UNL     1       2.399  -5.592  -3.903  0.00  0.00    -0.296 N 
ATOM      4  C   UNL     1       1.905  -6.656  -2.998  0.00  0.00    +0.121 C 
ATOM      5  C   UNL     1       1.492  -7.809  -3.940  0.00  0.00    +0.100 C 
ATOM      6  C   UNL     1       2.316  -7.585  -5.219  0.00  0.00    -0.004 C 
ATOM      7  C   UNL     1       3.147  -6.322  -4.955  0.00  0.00    +0.115 C 
ATOM      8  C   UNL     1       3.232  -8.778  -5.473  0.00  0.00    -0.010 C 
ATOM      9  C   UNL     1       3.998  -8.558  -6.781  0.00  0.00    -0.082 C 
ATOM     10  N   UNL     1       3.046  -8.402  -7.887  0.00  0.00    +0.379 N 
ATOM     11  C   UNL     1       2.231  -7.199  -7.680  0.00  0.00    -0.082 C 
ATOM     12  C   UNL     1       1.390  -7.362  -6.411  0.00  0.00    -0.010 C 
ATOM     13  H   UNL     1       3.553  -8.318  -8.756  0.00  0.00    -0.086 HD
ATOM     14  H   UNL     1       2.445  -9.211  -7.929  0.00  0.00    -0.086 HD
ENDROOT
BRANCH   1  19
ATOM     15  C   UNL     1       0.262  -1.958  -1.552  0.00  0.00    +0.121 A 
ATOM     16  C   UNL     1       0.292  -2.663  -0.356  0.00  0.00    +0.046 A 
ATOM     17  C   UNL     1       0.941  -3.881  -0.281  0.00  0.00    +0.004 A 
ATOM     18  C   UNL     1       1.564  -4.405  -1.395  0.00  0.00    +0.013 A 
ATOM     19  C   UNL     1       1.540  -3.704  -2.602  0.00  0.00    +0.040 A 
ATOM     20  C   UNL     1       0.879  -2.478  -2.677  0.00  0.00    +0.058 A 
BRANCH  15  21
ATOM     21  O   UNL     1      -0.377  -0.761  -1.619  0.00  0.00    -0.492 OA
BRANCH  21  23
ATOM     22  C   UNL     1      -1.656   1.067  -0.689  0.00  0.00    +0.048 C 
ATOM     23  C   UNL     1      -0.992  -0.285  -0.420  0.00  0.00    +0.225 C 
ENDBRANCH  21  23
ENDBRANCH  15  21
ENDBRANCH   1  19
BRANCH   5  24
ATOM     24  C   UNL     1       1.833  -9.140  -3.320  0.00  0.00    +0.218 C 
ATOM     25  O   UNL     1       2.722  -9.217  -2.498  0.00  0.00    -0.275 OA
ATOM     26  N   UNL     1       1.149 -10.245  -3.678  0.00  0.00    -0.312 N 
ATOM     27  H   UNL     1       0.438 -10.184  -4.335  0.00  0.00    +0.149 HD
BRANCH  26  28
ATOM     28  C   UNL     1       1.480 -11.539  -3.075  0.00  0.00    +0.070 C 
ATOM     29  C   UNL     1       2.635 -12.181  -3.848  0.00  0.00    +0.028 C 
BRANCH  28  30
ATOM     30  C   UNL     1       0.257 -12.456  -3.132  0.00  0.00    +0.022 C 
BRANCH  30  31
ATOM     31  C   UNL     1      -0.856 -11.875  -2.257  0.00  0.00    +0.005 C 
BRANCH  31  32
ATOM     32  C   UNL     1      -2.080 -12.792  -2.314  0.00  0.00    +0.034 C 
BRANCH  32  33
ATOM     33  C   UNL     1      -3.193 -12.211  -1.439  0.00  0.00    +0.061 C 
ATOM     34  C   UNL     1      -4.369 -13.188  -1.395  0.00  0.00    +0.041 C 
ATOM     35  C   UNL     1      -2.663 -11.987  -0.021  0.00  0.00    +0.041 C 
BRANCH  33  36
ATOM     36  O   UNL     1      -3.629 -10.966  -1.988  0.00  0.00    -0.389 OA
ATOM     37  H   UNL     1      -4.335 -10.539  -1.483  0.00  0.00    +0.210 HD
ENDBRANCH  33  36
ENDBRANCH  32  33
ENDBRANCH  31  32
ENDBRANCH  30  31
ENDBRANCH  28  30
ENDBRANCH  26  28
ENDBRANCH   5  24
TORSDOF 10
