REMARK  Name = ZINC09165343
REMARK  10 active torsions:
REMARK  status: ('A' for Active; 'I' for Inactive)
REMARK    1  A    between atoms: C_1  and  C_2
REMARK    2  A    between atoms: C_2  and  C_3
REMARK    3  A    between atoms: C_2  and  C_4
REMARK    4  A    between atoms: C_7  and  N_10
REMARK    5  A    between atoms: C_11  and  C_13
REMARK    6  A    between atoms: N_15  and  C_16
REMARK    7  A    between atoms: C_16  and  C_17
REMARK    8  A    between atoms: C_17  and  C_19
REMARK    9  A    between atoms: C_17  and  N_72
REMARK   10  A    between atoms: N_28  and  C_29
REMARK                            x       y       z     vdW  Elec       q    Type
REMARK                         _______ _______ _______ _____ _____    ______ ____
ROOT
ATOM      1  C   UNL     1      -2.530   0.860   0.309  0.00  0.00    -0.020 C 
ENDROOT
BRANCH   1   2
ATOM      2  C   UNL     1      -1.114   1.353   0.158  0.00  0.00    -0.059 A 
ATOM      3  C   UNL     1      -0.053   0.513   0.446  0.00  0.00    +0.004 A 
ATOM      4  C   UNL     1       1.241   0.965   0.303  0.00  0.00    +0.023 A 
ATOM      5  C   UNL     1       1.491   2.270  -0.125  0.00  0.00    +0.033 A 
ATOM      6  C   UNL     1       0.426   3.106  -0.411  0.00  0.00    -0.026 A 
ATOM      7  C   UNL     1      -0.873   2.645  -0.263  0.00  0.00    +0.007 A 
ATOM      8  C   UNL     1       0.627   4.523  -0.888  0.00  0.00    +0.038 C 
ATOM      9  C   UNL     1       2.069   4.957  -0.615  0.00  0.00    +0.024 C 
ATOM     10  C   UNL     1       3.000   3.839  -1.101  0.00  0.00    +0.105 C 
ATOM     11  N   UNL     1       2.821   2.672  -0.235  0.00  0.00    -0.333 N 
ATOM     12  C   UNL     1       3.673   1.557  -0.671  0.00  0.00    +0.129 C 
ENDBRANCH   1   2
BRANCH   1  18
ATOM     13  C   UNL     1      -2.110  -0.642  -1.543  0.00  0.00    -0.078 C 
ATOM     14  C   UNL     1      -2.083  -2.115  -1.956  0.00  0.00    -0.019 C 
ATOM     15  C   UNL     1      -3.499  -2.692  -1.866  0.00  0.00    -0.004 C 
ATOM     16  C   UNL     1      -4.024  -2.515  -0.438  0.00  0.00    -0.019 C 
ATOM     17  C   UNL     1      -3.995  -1.030  -0.069  0.00  0.00    -0.078 C 
ATOM     18  N   UNL     1      -2.601  -0.542  -0.152  0.00  0.00    +0.385 N 
ATOM     19  H   UNL     1      -2.009  -1.123   0.453  0.00  0.00    -0.081 HD
ENDBRANCH   1  18
BRANCH   1  20
ATOM     20  C   UNL     1      -2.935   0.916   1.784  0.00  0.00    +0.094 C 
BRANCH  20  23
ATOM     21  C   UNL     1      -3.178   2.599   3.529  0.00  0.00    +0.299 C 
ATOM     22  O   UNL     1      -3.371   1.703   4.325  0.00  0.00    -0.265 OA
ATOM     23  N   UNL     1      -2.950   2.311   2.232  0.00  0.00    -0.309 N 
ATOM     24  H   UNL     1      -2.795   3.027   1.597  0.00  0.00    +0.149 HD
BRANCH  21  26
ATOM     25  N   UNL     1      -3.421   4.308   5.284  0.00  0.00    -0.278 N 
ATOM     26  C   UNL     1      -3.192   4.020   3.987  0.00  0.00    +0.303 C 
ATOM     27  O   UNL     1      -2.999   4.916   3.191  0.00  0.00    -0.265 OA
ATOM     28  H   UNL     1      -3.644   3.599   5.906  0.00  0.00    +0.155 HD
BRANCH  25  32
ATOM     29  C   UNL     1      -3.166   8.245   6.619  0.00  0.00    -0.045 A 
ATOM     30  C   UNL     1      -3.658   7.975   5.355  0.00  0.00    +0.006 A 
ATOM     31  C   UNL     1      -3.744   6.671   4.909  0.00  0.00    +0.023 A 
ATOM     32  C   UNL     1      -3.335   5.629   5.732  0.00  0.00    +0.034 A 
ATOM     33  C   UNL     1      -2.846   5.903   7.003  0.00  0.00    +0.023 A 
ATOM     34  C   UNL     1      -2.758   7.210   7.441  0.00  0.00    +0.006 A 
BRANCH  29  36
ATOM     35  C   UNL     1      -3.927   9.837   8.361  0.00  0.00    +0.012 C 
ATOM     36  C   UNL     1      -3.074   9.669   7.102  0.00  0.00    +0.013 C 
ATOM     37  C   UNL     1      -1.616  10.004   7.425  0.00  0.00    +0.012 C 
ENDBRANCH  29  36
ENDBRANCH  25  32
ENDBRANCH  21  26
ENDBRANCH  20  23
ENDBRANCH   1  20
TORSDOF 7
