REMARK  Name = ZINC05217818
REMARK  14 active torsions:
REMARK  status: ('A' for Active; 'I' for Inactive)
REMARK    1  A    between atoms: C_1  and  O_2
REMARK    2  A    between atoms: O_2  and  C_3
REMARK    3  A    between atoms: C_6  and  C_11
REMARK    4  A    between atoms: C_8  and  O_9
REMARK    5  A    between atoms: O_9  and  C_10
REMARK    6  A    between atoms: C_12  and  C_13
REMARK    7  A    between atoms: C_16  and  O_37
REMARK    8  A    between atoms: C_17  and  O_35
REMARK    9  A    between atoms: C_28  and  O_33
REMARK   10  A    between atoms: C_29  and  O_31
REMARK   11  A    between atoms: O_31  and  C_32
REMARK   12  A    between atoms: O_33  and  C_34
REMARK   13  A    between atoms: O_35  and  C_36
REMARK   14  A    between atoms: O_37  and  C_38
REMARK                            x       y       z     vdW  Elec       q    Type
REMARK                         _______ _______ _______ _____ _____    ______ ____
ROOT
ATOM      1  C   UNL     1       1.244  -1.025   0.086  0.00  0.00    +0.054 A 
ATOM      2  C   UNL     1       0.171  -0.586   0.886  0.00  0.00    +0.010 A 
ATOM      3  C   UNL     1       0.268   0.564   1.684  0.00  0.00    +0.060 A 
ATOM      4  C   UNL     1      -0.799   0.952   2.443  0.00  0.00    +0.162 A 
ATOM      5  C   UNL     1      -1.994   0.215   2.439  0.00  0.00    +0.162 A 
ATOM      6  C   UNL     1      -2.120  -0.909   1.674  0.00  0.00    +0.058 A 
ATOM      7  C   UNL     1      -1.039  -1.331   0.882  0.00  0.00    -0.010 A 
ATOM      8  C   UNL     1      -1.113  -2.476   0.079  0.00  0.00    +0.035 A 
ATOM      9  C   UNL     1      -0.011  -2.847  -0.684  0.00  0.00    +0.055 A 
ATOM     10  N   UNL     1       1.127  -2.129  -0.676  0.00  0.00    -0.315 N 
ATOM     11  C   UNL     1       2.196  -2.491  -1.411  0.00  0.00    +0.092 A 
ATOM     12  C   UNL     1       2.212  -3.576  -2.210  0.00  0.00    +0.027 A 
ATOM     13  C   UNL     1       1.022  -4.420  -2.295  0.00  0.00    -0.011 A 
ATOM     14  C   UNL     1      -0.104  -4.053  -1.524  0.00  0.00    +0.010 A 
ATOM     15  C   UNL     1      -1.261  -4.827  -1.572  0.00  0.00    +0.060 A 
ATOM     16  C   UNL     1      -1.296  -5.950  -2.376  0.00  0.00    +0.162 A 
ATOM     17  C   UNL     1      -0.182  -6.314  -3.140  0.00  0.00    +0.162 A 
ATOM     18  C   UNL     1       0.972  -5.558  -3.103  0.00  0.00    +0.058 A 
ENDROOT
BRANCH   1  20
ATOM     19  C   UNL     1       2.516   1.004  -0.369  0.00  0.00    +0.010 C 
ATOM     20  C   UNL     1       2.498  -0.269   0.078  0.00  0.00    +0.027 C 
BRANCH  19  24
ATOM     21  C   UNL     1      -0.931   2.644  -2.229  0.00  0.00    +0.162 A 
ATOM     22  C   UNL     1      -0.650   1.291  -2.360  0.00  0.00    +0.050 A 
ATOM     23  C   UNL     1       0.465   0.753  -1.753  0.00  0.00    +0.012 A 
ATOM     24  C   UNL     1       1.322   1.574  -1.012  0.00  0.00    -0.021 A 
ATOM     25  C   UNL     1       1.041   2.939  -0.886  0.00  0.00    +0.057 A 
ATOM     26  C   UNL     1      -0.081   3.468  -1.493  0.00  0.00    +0.162 A 
BRANCH  21  28
ATOM     27  C   UNL     1      -2.861   2.268  -3.564  0.00  0.00    +0.277 C 
ATOM     28  O   UNL     1      -2.034   3.168  -2.825  0.00  0.00    -0.491 OA
ENDBRANCH  21  28
BRANCH  26  29
ATOM     29  O   UNL     1      -0.357   4.794  -1.371  0.00  0.00    -0.491 OA
ATOM     30  C   UNL     1       0.556   5.580  -0.602  0.00  0.00    +0.277 C 
ENDBRANCH  26  29
ENDBRANCH  19  24
ENDBRANCH   1  20
BRANCH  17  31
ATOM     31  O   UNL     1      -0.236  -7.423  -3.925  0.00  0.00    -0.491 OA
ATOM     32  C   UNL     1       0.934  -7.741  -4.680  0.00  0.00    +0.277 C 
ENDBRANCH  17  31
BRANCH  16  33
ATOM     33  O   UNL     1      -2.423  -6.708  -2.426  0.00  0.00    -0.491 OA
ATOM     34  C   UNL     1      -3.526  -6.283  -1.623  0.00  0.00    +0.277 C 
ENDBRANCH  16  33
BRANCH   5  35
ATOM     35  O   UNL     1      -3.038   0.625   3.206  0.00  0.00    -0.491 OA
ATOM     36  C   UNL     1      -4.227  -0.166   3.160  0.00  0.00    +0.277 C 
ENDBRANCH   5  35
BRANCH   4  37
ATOM     37  O   UNL     1      -0.701   2.066   3.215  0.00  0.00    -0.491 OA
ATOM     38  C   UNL     1       0.539   2.775   3.178  0.00  0.00    +0.277 C 
ENDBRANCH   4  37
TORSDOF 8
