REMARK  Name = ZINC32052941
REMARK  7 active torsions:
REMARK  status: ('A' for Active; 'I' for Inactive)
REMARK    1  A    between atoms: C_1  and  C_2
REMARK    2  A    between atoms: C_2  and  N_3
REMARK    3  A    between atoms: N_6  and  C_9
REMARK    4  A    between atoms: C_9  and  C_11
REMARK    5  A    between atoms: C_9  and  C_13
REMARK    6  A    between atoms: C_11  and  N_12
REMARK    7  A    between atoms: C_17  and  N_19
REMARK                            x       y       z     vdW  Elec       q    Type
REMARK                         _______ _______ _______ _____ _____    ______ ____
ROOT
ATOM      1  C   UNL     1       3.681   2.172  -0.048  0.00  0.00    +0.069 C 
ENDROOT
BRANCH   1   5
ATOM      2  N   UNL     1       6.480   1.382   3.016  0.00  0.00    +0.381 N 
ATOM      3  C   UNL     1       6.996   1.715   1.681  0.00  0.00    -0.063 C 
ATOM      4  C   UNL     1       5.905   2.426   0.878  0.00  0.00    +0.066 C 
ATOM      5  N   UNL     1       4.725   1.555   0.781  0.00  0.00    -0.301 NA
ATOM      6  C   UNL     1       4.209   1.222   2.116  0.00  0.00    +0.066 C 
ATOM      7  C   UNL     1       5.301   0.511   2.920  0.00  0.00    -0.063 C 
ATOM      8  H   UNL     1       6.172   2.318   3.505  0.00  0.00    -0.082 HD
BRANCH   2  10
ATOM      9  C   UNL     1       6.897   0.209   5.125  0.00  0.00    -0.017 C 
ATOM     10  C   UNL     1       7.524   0.765   3.845  0.00  0.00    -0.082 C 
ENDBRANCH   2  10
ENDBRANCH   1   5
BRANCH   1  11
ATOM     11  C   UNL     1       2.525   1.217  -0.192  0.00  0.00    -0.030 A 
ATOM     12  C   UNL     1       2.763  -0.133  -0.372  0.00  0.00    +0.009 A 
ATOM     13  C   UNL     1       1.704  -1.011  -0.506  0.00  0.00    +0.053 A 
ATOM     14  C   UNL     1       0.401  -0.536  -0.460  0.00  0.00    +0.209 A 
ATOM     15  C   UNL     1       0.165   0.819  -0.279  0.00  0.00    +0.173 A 
ATOM     16  C   UNL     1       1.227   1.692  -0.146  0.00  0.00    +0.041 A 
ATOM     17  O   UNL     1      -0.642  -1.397  -0.592  0.00  0.00    -0.285 OA
BRANCH  15  18
ATOM     18  N   UNL     1      -1.224   1.329  -0.235  0.00  0.00    +0.060 N 
ATOM     19  O   UNL     1      -1.430   2.519  -0.077  0.00  0.00    -0.126 OA
ATOM     20  O   UNL     1      -2.159   0.559  -0.358  0.00  0.00    -0.126 OA
ENDBRANCH  15  18
ENDBRANCH   1  11
BRANCH   1  21
ATOM     21  C   UNL     1       4.252   2.495  -1.430  0.00  0.00    -0.063 C 
BRANCH  21  22
ATOM     22  N   UNL     1       3.233   3.186  -2.232  0.00  0.00    +0.379 N 
ATOM     23  H   UNL     1       3.643   3.418  -3.225  0.00  0.00    -0.090 HD
ATOM     24  H   UNL     1       2.941   4.119  -1.728  0.00  0.00    -0.090 HD
ATOM     25  H   UNL     1       2.351   2.537  -2.341  0.00  0.00    -0.090 HD
ENDBRANCH  21  22
ENDBRANCH   1  21
TORSDOF 6
