REMARK  Name = ZINC27366149
REMARK  9 active torsions:
REMARK  status: ('A' for Active; 'I' for Inactive)
REMARK    1  A    between atoms: C_5  and  C_7
REMARK    2  A    between atoms: C_7  and  N_8
REMARK    3  A    between atoms: N_8  and  C_9
REMARK    4  A    between atoms: N_8  and  C_22
REMARK    5  A    between atoms: C_9  and  C_10
REMARK    6  A    between atoms: C_10  and  O_11
REMARK    7  A    between atoms: O_11  and  C_12
REMARK    8  A    between atoms: C_15  and  S_18
REMARK    9  A    between atoms: S_18  and  N_21
REMARK                            x       y       z     vdW  Elec       q    Type
REMARK                         _______ _______ _______ _____ _____    ______ ____
ROOT
ATOM      1  C   UNL     1       2.067   5.818  -0.226  0.00  0.00    -0.036 C 
ENDROOT
BRANCH   1   2
ATOM      2  N   UNL     1       1.489   5.954   1.118  0.00  0.00    +0.386 N 
ATOM      3  H   UNL     1       2.184   5.492   1.834  0.00  0.00    -0.081 HD
BRANCH   2   4
ATOM      4  C   UNL     1       0.206   5.245   1.213  0.00  0.00    -0.068 C 
ATOM      5  C   UNL     1      -0.033   4.379   2.452  0.00  0.00    -0.017 C 
ATOM      6  C   UNL     1       0.231   3.720   1.096  0.00  0.00    -0.017 C 
ENDBRANCH   2   4
BRANCH   2   7
ATOM      7  C   UNL     1       1.337   7.368   1.485  0.00  0.00    -0.040 C 
BRANCH   7  12
ATOM      8  C   UNL     1      -0.667   7.772   4.659  0.00  0.00    +0.000 A 
ATOM      9  C   UNL     1       0.317   7.663   5.624  0.00  0.00    +0.003 A 
ATOM     10  C   UNL     1       1.631   7.459   5.252  0.00  0.00    +0.038 A 
ATOM     11  C   UNL     1       1.963   7.363   3.911  0.00  0.00    +0.125 A 
ATOM     12  C   UNL     1       0.978   7.472   2.945  0.00  0.00    -0.029 A 
ATOM     13  C   UNL     1      -0.336   7.682   3.320  0.00  0.00    +0.004 A 
ATOM     14  F   UNL     1       3.249   7.163   3.545  0.00  0.00    -0.205 F 
ENDBRANCH   7  12
ENDBRANCH   2   7
ENDBRANCH   1   2
BRANCH   1  15
ATOM     15  C   UNL     1       3.565   6.124  -0.170  0.00  0.00    +0.210 C 
BRANCH  15  16
ATOM     16  O   UNL     1       4.221   5.148   0.642  0.00  0.00    -0.494 OA
BRANCH  16  17
ATOM     17  C   UNL     1       5.564   5.279   0.800  0.00  0.00    +0.121 A 
ATOM     18  C   UNL     1       6.265   4.366   1.575  0.00  0.00    +0.047 A 
ATOM     19  C   UNL     1       7.630   4.501   1.734  0.00  0.00    +0.032 A 
ATOM     20  C   UNL     1       8.299   5.545   1.122  0.00  0.00    +0.105 A 
ATOM     21  C   UNL     1       7.603   6.456   0.350  0.00  0.00    +0.032 A 
ATOM     22  C   UNL     1       6.237   6.326   0.188  0.00  0.00    +0.047 A 
BRANCH  20  23
ATOM     23  S   UNL     1      10.040   5.715   1.328  0.00  0.00    +0.056 S 
ATOM     24  O   UNL     1      10.345   7.084   1.100  0.00  0.00    -0.153 OA
ATOM     25  O   UNL     1      10.373   5.052   2.540  0.00  0.00    -0.153 OA
BRANCH  23  26
ATOM     26  N   UNL     1      10.763   4.860   0.107  0.00  0.00    -0.204 NA
ATOM     27  H   UNL     1      11.856   4.941   0.200  0.00  0.00    +0.144 HD
ATOM     28  H   UNL     1      10.447   5.269  -0.864  0.00  0.00    +0.144 HD
ENDBRANCH  23  26
ENDBRANCH  20  23
ENDBRANCH  16  17
ENDBRANCH  15  16
ENDBRANCH   1  15
TORSDOF 9
