REMARK  Name = ZINC05343180
REMARK  9 active torsions:
REMARK  status: ('A' for Active; 'I' for Inactive)
REMARK    1  A    between atoms: C_1  and  C_2
REMARK    2  A    between atoms: C_5  and  C_9
REMARK    3  A    between atoms: C_6  and  O_8
REMARK    4  A    between atoms: C_11  and  C_15
REMARK    5  A    between atoms: N_17  and  C_18
REMARK    6  A    between atoms: C_18  and  C_19
REMARK    7  A    between atoms: C_19  and  C_20
REMARK    8  A    between atoms: C_23  and  S_26
REMARK    9  A    between atoms: S_26  and  N_29
REMARK                            x       y       z     vdW  Elec       q    Type
REMARK                         _______ _______ _______ _____ _____    ______ ____
ROOT
ATOM      1  C   UNL     1      -0.787  -7.635  -1.120  0.00  0.00    +0.264 C 
ATOM      2  O   UNL     1      -1.569  -7.584  -2.049  0.00  0.00    -0.268 OA
ATOM      3  N   UNL     1      -0.372  -8.830  -0.653  0.00  0.00    -0.310 N 
ATOM      4  H   UNL     1       0.252  -8.870   0.088  0.00  0.00    +0.149 HD
ENDROOT
BRANCH   1   7
ATOM      5  C   UNL     1       0.058  -4.255  -0.033  0.00  0.00    +0.070 A 
ATOM      6  C   UNL     1      -0.637  -5.072  -0.881  0.00  0.00    +0.062 A 
ATOM      7  C   UNL     1      -0.292  -6.388  -0.501  0.00  0.00    +0.147 A 
ATOM      8  N   UNL     1       0.552  -6.298   0.507  0.00  0.00    -0.169 NA
ATOM      9  N   UNL     1       0.777  -5.066   0.795  0.00  0.00    -0.276 N 
ATOM     10  H   UNL     1       1.369  -4.759   1.499  0.00  0.00    +0.189 HD
BRANCH   5  15
ATOM     11  C   UNL     1      -0.018   1.503   0.010  0.00  0.00    +0.044 C 
ATOM     12  C   UNL     1       0.002  -0.004   0.002  0.00  0.00    -0.047 A 
ATOM     13  C   UNL     1       0.006  -0.686  -1.202  0.00  0.00    +0.004 A 
ATOM     14  C   UNL     1       0.024  -2.066  -1.220  0.00  0.00    +0.014 A 
ATOM     15  C   UNL     1       0.039  -2.776  -0.020  0.00  0.00    +0.041 A 
ATOM     16  C   UNL     1       0.036  -2.083   1.195  0.00  0.00    +0.126 A 
ATOM     17  C   UNL     1       0.023  -0.698   1.197  0.00  0.00    +0.049 A 
BRANCH  16  18
ATOM     18  O   UNL     1       0.051  -2.767   2.369  0.00  0.00    -0.506 OA
ATOM     19  H   UNL     1       0.938  -2.953   2.705  0.00  0.00    +0.292 HD
ENDBRANCH  16  18
ENDBRANCH   5  15
ENDBRANCH   1   7
BRANCH   3  20
ATOM     20  C   UNL     1      -0.863 -10.066  -1.266  0.00  0.00    +0.109 C 
BRANCH  20  21
ATOM     21  C   UNL     1      -0.241 -11.270  -0.555  0.00  0.00    +0.054 C 
BRANCH  21  22
ATOM     22  C   UNL     1      -0.746 -12.542  -1.186  0.00  0.00    -0.046 A 
ATOM     23  C   UNL     1      -1.897 -13.140  -0.709  0.00  0.00    +0.005 A 
ATOM     24  C   UNL     1      -2.360 -14.307  -1.287  0.00  0.00    +0.029 A 
ATOM     25  C   UNL     1      -1.673 -14.876  -2.343  0.00  0.00    +0.105 A 
ATOM     26  C   UNL     1      -0.522 -14.277  -2.821  0.00  0.00    +0.029 A 
ATOM     27  C   UNL     1      -0.061 -13.107  -2.245  0.00  0.00    +0.005 A 
BRANCH  25  28
ATOM     28  S   UNL     1      -2.262 -16.364  -3.079  0.00  0.00    +0.056 S 
ATOM     29  O   UNL     1      -1.141 -16.985  -3.692  0.00  0.00    -0.153 OA
ATOM     30  O   UNL     1      -3.053 -17.018  -2.097  0.00  0.00    -0.153 OA
BRANCH  28  31
ATOM     31  N   UNL     1      -3.291 -15.930  -4.303  0.00  0.00    -0.204 NA
ATOM     32  H   UNL     1      -3.459 -14.993  -4.486  0.00  0.00    +0.144 HD
ATOM     33  H   UNL     1      -3.725 -16.614  -4.837  0.00  0.00    +0.144 HD
ENDBRANCH  28  31
ENDBRANCH  25  28
ENDBRANCH  21  22
ENDBRANCH  20  21
ENDBRANCH   3  20
TORSDOF 8
