REMARK  Name = ZINC24622088
REMARK  8 active torsions:
REMARK  status: ('A' for Active; 'I' for Inactive)
REMARK    1  A    between atoms: C_1  and  C_2
REMARK    2  A    between atoms: C_2  and  C_4
REMARK    3  A    between atoms: C_2  and  N_13
REMARK    4  A    between atoms: N_9  and  C_10
REMARK    5  A    between atoms: C_10  and  C_11
REMARK    6  A    between atoms: N_16  and  C_19
REMARK    7  A    between atoms: C_19  and  C_20
REMARK    8  A    between atoms: N_22  and  C_23
REMARK                            x       y       z     vdW  Elec       q    Type
REMARK                         _______ _______ _______ _____ _____    ______ ____
ROOT
ATOM      1  N   UNL     1       7.272   1.570  -1.598  0.00  0.00    -0.295 NA
ATOM      2  C   UNL     1       7.832   0.984  -0.372  0.00  0.00    +0.066 C 
ATOM      3  C   UNL     1       6.856  -0.054   0.186  0.00  0.00    -0.063 C 
ATOM      4  N   UNL     1       5.563   0.590   0.457  0.00  0.00    +0.387 N 
ATOM      5  C   UNL     1       5.003   1.176  -0.769  0.00  0.00    -0.063 C 
ATOM      6  C   UNL     1       5.979   2.214  -1.327  0.00  0.00    +0.066 C 
ATOM      7  H   UNL     1       5.733   1.405   1.176  0.00  0.00    -0.081 HD
ENDROOT
BRANCH   1   9
ATOM      8  C   UNL     1       7.525   3.256  -3.357  0.00  0.00    +0.034 C 
ATOM      9  C   UNL     1       8.214   2.518  -2.207  0.00  0.00    +0.140 C 
BRANCH   9  10
ATOM     10  C   UNL     1       8.665   3.514  -1.170  0.00  0.00    +0.237 C 
ATOM     11  O   UNL     1       7.928   3.812  -0.255  0.00  0.00    -0.274 OA
ATOM     12  N   UNL     1       9.888   4.074  -1.260  0.00  0.00    -0.239 N 
ATOM     13  C   UNL     1      10.291   4.965  -0.332  0.00  0.00    +0.306 C 
ATOM     14  O   UNL     1       9.552   5.264   0.585  0.00  0.00    -0.252 OA
ATOM     15  N   UNL     1      11.514   5.525  -0.422  0.00  0.00    -0.296 N 
ATOM     16  H   UNL     1      10.557   3.804  -2.090  0.00  0.00    +0.159 HD
ATOM     17  H   UNL     1      12.183   5.255  -1.253  0.00  0.00    +0.151 HD
BRANCH  15  18
ATOM     18  C   UNL     1      11.952   6.493   0.586  0.00  0.00    +0.132 C 
BRANCH  18  19
ATOM     19  C   UNL     1      13.345   6.965   0.257  0.00  0.00    -0.016 C 
ATOM     20  C   UNL     1      13.591   8.245   0.130  0.00  0.00    +0.005 C 
ENDBRANCH  18  19
ENDBRANCH  15  18
ENDBRANCH   9  10
ENDBRANCH   1   9
BRANCH   4  21
ATOM     21  C   UNL     1       4.620  -0.358   1.066  0.00  0.00    +0.019 C 
BRANCH  21  22
ATOM     22  C   UNL     1       3.403   0.386   1.552  0.00  0.00    +0.201 C 
ATOM     23  O   UNL     1       3.328   1.587   1.405  0.00  0.00    -0.278 OA
ATOM     24  N   UNL     1       2.398  -0.284   2.149  0.00  0.00    -0.287 N 
ATOM     25  H   UNL     1       2.428  -1.383   2.209  0.00  0.00    +0.155 HD
BRANCH  24  26
ATOM     26  C   UNL     1       1.315   0.417   2.694  0.00  0.00    +0.033 A 
ATOM     27  C   UNL     1       1.510   1.674   3.251  0.00  0.00    +0.026 A 
ATOM     28  C   UNL     1       0.441   2.366   3.783  0.00  0.00    +0.040 A 
ATOM     29  C   UNL     1      -0.825   1.803   3.771  0.00  0.00    +0.124 A 
ATOM     30  C   UNL     1      -1.021   0.548   3.220  0.00  0.00    +0.040 A 
ATOM     31  C   UNL     1       0.046  -0.145   2.682  0.00  0.00    +0.026 A 
ATOM     32  F   UNL     1      -1.869   2.480   4.296  0.00  0.00    -0.205 F 
ENDBRANCH  24  26
ENDBRANCH  21  22
ENDBRANCH   4  21
TORSDOF 7
