REMARK  Name = ZINC20294927
REMARK  11 active torsions:
REMARK  status: ('A' for Active; 'I' for Inactive)
REMARK    1  A    between atoms: C_1  and  C_2
REMARK    2  A    between atoms: C_3  and  C_28
REMARK    3  A    between atoms: C_4  and  N_10
REMARK    4  A    between atoms: C_6  and  C_7
REMARK    5  A    between atoms: C_11  and  C_13
REMARK    6  A    between atoms: C_13  and  N_14
REMARK    7  A    between atoms: C_20  and  C_22
REMARK    8  A    between atoms: C_28  and  O_30
REMARK    9  A    between atoms: O_30  and  C_31
REMARK   10  A    between atoms: C_31  and  C_32
REMARK   11  A    between atoms: C_31  and  C_33
REMARK                            x       y       z     vdW  Elec       q    Type
REMARK                         _______ _______ _______ _____ _____    ______ ____
ROOT
ATOM      1  N   UNL     1      -3.994   2.531   2.700  0.00  0.00    -0.281 N 
ATOM      2  C   UNL     1      -4.368   2.958   3.923  0.00  0.00    +0.201 C 
ATOM      3  O   UNL     1      -3.539   3.090   4.799  0.00  0.00    -0.278 OA
ATOM      4  H   UNL     1      -4.746   2.412   1.906  0.00  0.00    +0.155 HD
ENDROOT
BRANCH   1   8
ATOM      5  C   UNL     1      -0.013   1.086   0.008  0.00  0.00    +0.046 C 
ATOM      6  C   UNL     1      -0.718   1.572   1.248  0.00  0.00    -0.015 A 
ATOM      7  C   UNL     1      -2.087   1.797   1.253  0.00  0.00    +0.091 A 
ATOM      8  C   UNL     1      -2.668   2.243   2.445  0.00  0.00    +0.087 A 
ATOM      9  S   UNL     1      -1.313   2.351   3.520  0.00  0.00    -0.068 S 
ATOM     10  C   UNL     1      -0.030   1.811   2.406  0.00  0.00    +0.079 A 
BRANCH  10  11
ATOM     11  C   UNL     1       1.403   1.662   2.665  0.00  0.00    +0.248 C 
ATOM     12  O   UNL     1       2.146   1.278   1.780  0.00  0.00    -0.270 OA
ATOM     13  N   UNL     1       1.901   1.950   3.884  0.00  0.00    -0.325 N 
ATOM     14  H   UNL     1       2.978   1.838   4.079  0.00  0.00    +0.145 HD
ATOM     15  H   UNL     1       1.231   2.297   4.684  0.00  0.00    +0.145 HD
ENDBRANCH  10  11
BRANCH   7  16
ATOM     16  C   UNL     1      -2.897   1.571   0.052  0.00  0.00    +0.342 C 
ATOM     17  O   UNL     1      -3.397   0.481  -0.148  0.00  0.00    -0.245 OA
BRANCH  16  18
ATOM     18  O   UNL     1      -3.089   2.573  -0.831  0.00  0.00    -0.458 OA
BRANCH  18  19
ATOM     19  C   UNL     1      -3.902   2.277  -1.997  0.00  0.00    +0.171 C 
ATOM     20  C   UNL     1      -5.369   2.582  -1.686  0.00  0.00    +0.052 C 
ATOM     21  C   UNL     1      -3.440   3.140  -3.173  0.00  0.00    +0.052 C 
ENDBRANCH  18  19
ENDBRANCH  16  18
ENDBRANCH   7  16
ENDBRANCH   1   8
BRANCH   2  22
ATOM     22  C   UNL     1      -5.815   3.273   4.202  0.00  0.00    +0.019 C 
BRANCH  22  23
ATOM     23  N   UNL     1      -5.960   3.715   5.595  0.00  0.00    +0.387 N 
ATOM     24  C   UNL     1      -5.646   2.626   6.529  0.00  0.00    -0.059 C 
ATOM     25  C   UNL     1      -5.632   3.172   7.960  0.00  0.00    +0.089 C 
ATOM     26  N   UNL     1      -6.910   3.857   8.211  0.00  0.00    -0.303 N 
ATOM     27  C   UNL     1      -7.359   4.868   7.242  0.00  0.00    +0.089 C 
ATOM     28  C   UNL     1      -7.305   4.254   5.838  0.00  0.00    -0.059 C 
ATOM     29  C   UNL     1      -7.648   3.566   9.300  0.00  0.00    +0.244 C 
ATOM     30  O   UNL     1      -8.699   4.140   9.491  0.00  0.00    -0.273 OA
ATOM     31  H   UNL     1      -5.238   4.526   5.771  0.00  0.00    -0.081 HD
BRANCH  29  32
ATOM     32  C   UNL     1      -7.168   2.527  10.281  0.00  0.00    +0.204 C 
ATOM     33  C   UNL     1      -5.874   3.009  10.963  0.00  0.00    +0.043 C 
ATOM     34  C   UNL     1      -6.220   3.018  12.472  0.00  0.00    +0.031 C 
ATOM     35  C   UNL     1      -7.432   2.053  12.532  0.00  0.00    +0.161 C 
ATOM     36  O   UNL     1      -8.152   2.336  11.311  0.00  0.00    -0.367 OA
ENDBRANCH  29  32
ENDBRANCH  22  23
ENDBRANCH   2  22
TORSDOF 8
