REMARK  Name = ZINC42360273
REMARK  8 active torsions:
REMARK  status: ('A' for Active; 'I' for Inactive)
REMARK    1  A    between atoms: C_1  and  N_2
REMARK    2  A    between atoms: N_2  and  C_3
REMARK    3  A    between atoms: N_2  and  C_15
REMARK    4  A    between atoms: C_3  and  C_4
REMARK    5  A    between atoms: C_4  and  C_5
REMARK    6  A    between atoms: N_7  and  C_8
REMARK    7  A    between atoms: C_12  and  N_14
REMARK    8  A    between atoms: C_15  and  C_16
REMARK                            x       y       z     vdW  Elec       q    Type
REMARK                         _______ _______ _______ _____ _____    ______ ____
ROOT
ATOM      1  C   UNL     1      -3.491  -0.633  -1.276  0.00  0.00    +0.215 C 
ATOM      2  O   UNL     1      -3.894  -1.272  -0.328  0.00  0.00    -0.276 OA
ATOM      3  N   UNL     1      -4.305  -0.397  -2.324  0.00  0.00    -0.285 N 
ATOM      4  H   UNL     1      -4.005   0.170  -3.053  0.00  0.00    +0.155 HD
ENDROOT
BRANCH   3   5
ATOM      5  C   UNL     1      -5.581  -0.968  -2.362  0.00  0.00    +0.035 A 
ATOM      6  C   UNL     1      -6.124  -1.379  -3.573  0.00  0.00    +0.023 A 
ATOM      7  C   UNL     1      -7.384  -1.943  -3.612  0.00  0.00    +0.004 A 
ATOM      8  C   UNL     1      -8.110  -2.101  -2.446  0.00  0.00    +0.023 A 
ATOM      9  C   UNL     1      -7.573  -1.692  -1.232  0.00  0.00    +0.026 A 
ATOM     10  C   UNL     1      -6.304  -1.130  -1.189  0.00  0.00    +0.046 A 
BRANCH   9  11
ATOM     11  N   UNL     1      -8.306  -1.852  -0.054  0.00  0.00    -0.358 N 
ATOM     12  H   UNL     1      -9.191  -2.248  -0.084  0.00  0.00    +0.142 HD
ATOM     13  H   UNL     1      -7.931  -1.567   0.794  0.00  0.00    +0.142 HD
ENDBRANCH   9  11
ENDBRANCH   3   5
BRANCH   1  14
ATOM     14  C   UNL     1      -2.080  -0.104  -1.283  0.00  0.00    +0.077 C 
BRANCH  14  15
ATOM     15  C   UNL     1      -1.377  -0.510   0.013  0.00  0.00    -0.070 C 
BRANCH  15  17
ATOM     16  C   UNL     1      -0.029   1.474   0.022  0.00  0.00    -0.096 C 
ATOM     17  N   UNL     1      -0.001   0.005   0.006  0.00  0.00    +0.381 N 
ATOM     18  H   UNL     1       0.473  -0.313  -0.825  0.00  0.00    -0.082 HD
BRANCH  17  19
ATOM     19  C   UNL     1       0.711  -0.484   1.194  0.00  0.00    -0.043 C 
BRANCH  19  20
ATOM     20  C   UNL     1       2.155  -0.057   1.125  0.00  0.00    -0.056 A 
ATOM     21  C   UNL     1       3.096  -0.863   0.512  0.00  0.00    +0.024 A 
ATOM     22  C   UNL     1       4.387  -0.449   0.467  0.00  0.00    +0.055 A 
ATOM     23  S   UNL     1       4.300   1.123   1.310  0.00  0.00    -0.090 S 
ATOM     24  C   UNL     1       2.549   1.125   1.659  0.00  0.00    +0.048 A 
ATOM     25 BR   UNL     1       5.889  -1.313  -0.290  0.00  0.00    -0.043 Br
ENDBRANCH  19  20
ENDBRANCH  17  19
ENDBRANCH  15  17
ENDBRANCH  14  15
ENDBRANCH   1  14
TORSDOF 7
