REMARK  Name = ZINC43021783
REMARK  9 active torsions:
REMARK  status: ('A' for Active; 'I' for Inactive)
REMARK    1  A    between atoms: C_1  and  C_2
REMARK    2  A    between atoms: C_2  and  C_4
REMARK    3  A    between atoms: C_2  and  N_23
REMARK    4  A    between atoms: C_4  and  C_6
REMARK    5  A    between atoms: C_4  and  N_13
REMARK    6  A    between atoms: N_13  and  C_14
REMARK    7  A    between atoms: N_13  and  C_17
REMARK    8  A    between atoms: C_14  and  C_15
REMARK    9  A    between atoms: C_15  and  O_16
REMARK                            x       y       z     vdW  Elec       q    Type
REMARK                         _______ _______ _______ _____ _____    ______ ____
ROOT
ATOM      1  C   UNL     1       1.242   0.182   0.135  0.00  0.00    -0.052 C 
ENDROOT
BRANCH   1   2
ATOM      2  C   UNL     1       1.021  -1.254  -0.267  0.00  0.00    -0.061 A 
ATOM      3  C   UNL     1       2.099  -2.051  -0.606  0.00  0.00    +0.002 A 
ATOM      4  C   UNL     1       1.896  -3.367  -0.974  0.00  0.00    +0.001 A 
ATOM      5  C   UNL     1       0.616  -3.888  -1.005  0.00  0.00    +0.015 A 
ATOM      6  C   UNL     1      -0.463  -3.091  -0.666  0.00  0.00    +0.018 A 
ATOM      7  C   UNL     1      -0.259  -1.775  -0.292  0.00  0.00    +0.017 A 
ATOM      8 BR   UNL     1      -2.214  -3.803  -0.708  0.00  0.00    -0.050 Br
ENDBRANCH   1   2
BRANCH   1  10
ATOM      9  C   UNL     1       2.138   2.393  -0.608  0.00  0.00    -0.016 C 
ATOM     10  C   UNL     1       1.938   0.929  -1.005  0.00  0.00    -0.088 C 
BRANCH  10  11
ATOM     11  N   UNL     1       3.244   0.311  -1.270  0.00  0.00    +0.379 N 
ATOM     12  H   UNL     1       3.814   0.359  -0.438  0.00  0.00    -0.090 HD
ATOM     13  H   UNL     1       3.112  -0.655  -1.532  0.00  0.00    -0.090 HD
ATOM     14  H   UNL     1       3.703   0.803  -2.021  0.00  0.00    -0.090 HD
ENDBRANCH  10  11
ENDBRANCH   1  10
BRANCH   1  15
ATOM     15  N   UNL     1       2.083   0.230   1.338  0.00  0.00    +0.387 N 
ATOM     16  H   UNL     1       3.027  -0.035   1.098  0.00  0.00    -0.081 HD
BRANCH  15  17
ATOM     17  C   UNL     1       1.554  -0.702   2.343  0.00  0.00    -0.068 C 
ATOM     18  C   UNL     1       2.015  -2.123   2.015  0.00  0.00    -0.015 C 
ATOM     19  C   UNL     1       1.464  -3.093   3.062  0.00  0.00    -0.002 C 
ATOM     20  C   UNL     1      -0.065  -3.038   3.052  0.00  0.00    -0.000 C 
ATOM     21  C   UNL     1      -0.527  -1.617   3.380  0.00  0.00    -0.002 C 
ATOM     22  C   UNL     1       0.025  -0.647   2.333  0.00  0.00    -0.015 C 
ENDBRANCH  15  17
BRANCH  15  23
ATOM     23  C   UNL     1       2.080   1.593   1.884  0.00  0.00    -0.049 C 
BRANCH  23  24
ATOM     24  C   UNL     1       3.510   2.001   2.246  0.00  0.00    +0.137 C 
BRANCH  24  25
ATOM     25  O   UNL     1       4.359   1.821   1.111  0.00  0.00    -0.397 OA
ATOM     26  H   UNL     1       5.282   2.060   1.269  0.00  0.00    +0.209 HD
ENDBRANCH  24  25
ENDBRANCH  23  24
ENDBRANCH  15  23
ENDBRANCH   1  15
TORSDOF 8
