REMARK  Name = ZINC48274438
REMARK  3 active torsions:
REMARK  status: ('A' for Active; 'I' for Inactive)
REMARK    1  A    between atoms: C_6  and  S_11
REMARK    2  A    between atoms: S_11  and  N_14
REMARK    3  A    between atoms: C_17  and  C_20
REMARK                            x       y       z     vdW  Elec       q    Type
REMARK                         _______ _______ _______ _____ _____    ______ ____
ROOT
ATOM      1  N   UNL     1       6.093  -2.600   1.597  0.00  0.00    -0.177 NA
ATOM      2  C   UNL     1       7.099  -2.197   2.589  0.00  0.00    +0.110 C 
ATOM      3  C   UNL     1       6.384  -1.809   3.887  0.00  0.00    +0.030 C 
ATOM      4  C   UNL     1       5.488  -2.965   4.335  0.00  0.00    +0.078 C 
ATOM      5  C   UNL     1       4.429  -3.238   3.264  0.00  0.00    +0.030 C 
ATOM      6  C   UNL     1       5.119  -3.637   1.961  0.00  0.00    +0.110 C 
ENDROOT
BRANCH   4   7
ATOM      7  C   UNL     1       4.809  -2.601   5.630  0.00  0.00    +0.219 C 
ATOM      8  O   UNL     1       4.652  -1.435   5.926  0.00  0.00    -0.275 OA
ATOM      9  N   UNL     1       4.375  -3.570   6.460  0.00  0.00    -0.294 N 
ATOM     10  C   UNL     1       4.646  -4.993   6.186  0.00  0.00    +0.136 C 
ATOM     11  C   UNL     1       3.334  -5.777   6.291  0.00  0.00    +0.179 C 
ATOM     12  O   UNL     1       2.684  -5.472   7.530  0.00  0.00    -0.373 OA
ATOM     13  C   UNL     1       2.333  -4.097   7.665  0.00  0.00    +0.139 C 
ATOM     14  C   UNL     1       3.618  -3.252   7.677  0.00  0.00    +0.105 C 
ATOM     15  C   UNL     1       3.240  -1.773   7.714  0.00  0.00    +0.025 C 
ATOM     16  C   UNL     1       2.455  -1.493   8.999  0.00  0.00    +0.002 C 
ATOM     17  C   UNL     1       1.193  -2.355   9.038  0.00  0.00    +0.003 C 
ATOM     18  C   UNL     1       1.574  -3.840   8.965  0.00  0.00    +0.033 C 
ENDBRANCH   4   7
BRANCH   1  19
ATOM     19  S   UNL     1       6.055  -1.893   0.100  0.00  0.00    +0.061 S 
ATOM     20  O   UNL     1       5.409  -2.815  -0.768  0.00  0.00    -0.153 OA
ATOM     21  O   UNL     1       7.364  -1.401  -0.151  0.00  0.00    -0.153 OA
BRANCH  19  27
ATOM     22  C   UNL     1       2.996   4.035   0.812  0.00  0.00    +0.001 A 
ATOM     23  C   UNL     1       4.358   4.176   1.069  0.00  0.00    +0.001 A 
ATOM     24  C   UNL     1       5.200   3.110   0.989  0.00  0.00    +0.008 A 
ATOM     25  C   UNL     1       4.691   1.846   0.643  0.00  0.00    -0.016 A 
ATOM     26  C   UNL     1       5.529   0.722   0.551  0.00  0.00    +0.037 A 
ATOM     27  C   UNL     1       5.000  -0.486   0.214  0.00  0.00    +0.106 A 
ATOM     28  C   UNL     1       3.638  -0.627  -0.042  0.00  0.00    +0.029 A 
ATOM     29  C   UNL     1       2.796   0.439   0.038  0.00  0.00    +0.010 A 
ATOM     30  C   UNL     1       3.305   1.703   0.383  0.00  0.00    -0.018 A 
ATOM     31  C   UNL     1       2.467   2.827   0.475  0.00  0.00    +0.008 A 
ENDBRANCH  19  27
ENDBRANCH   1  19
TORSDOF 3
