REMARK  Name = ZINC15229247
REMARK  2 active torsions:
REMARK  status: ('A' for Active; 'I' for Inactive)
REMARK    1  A    between atoms: C_1  and  C_2
REMARK    2  A    between atoms: C_2  and  C_4
REMARK                            x       y       z     vdW  Elec       q    Type
REMARK                         _______ _______ _______ _____ _____    ______ ____
ROOT
ATOM      1  C   UNL     1      -2.466  -0.271  -0.189  0.00  0.00    +0.146 C 
ATOM      2  C   UNL     1      -3.230  -1.603  -0.283  0.00  0.00    +0.060 C 
ATOM      3  C   UNL     1      -4.628  -1.614  -0.872  0.00  0.00    +0.153 C 
ATOM      4  C   UNL     1      -5.435  -2.549   0.147  0.00  0.00    +0.195 C 
ATOM      5  O   UNL     1      -5.037  -3.881  -0.229  0.00  0.00    -0.342 OA
ATOM      6  C   UNL     1      -4.334  -3.815  -1.470  0.00  0.00    +0.319 C 
ATOM      7  O   UNL     1      -4.616  -2.503  -2.031  0.00  0.00    -0.339 OA
ATOM      8  C   UNL     1      -2.811  -3.801  -1.253  0.00  0.00    +0.194 C 
ATOM      9  O   UNL     1      -2.127  -4.788  -1.124  0.00  0.00    -0.292 OA
ATOM     10  C   UNL     1      -2.298  -2.415  -1.223  0.00  0.00    +0.092 C 
ATOM     11  C   UNL     1      -0.943  -1.916  -0.967  0.00  0.00    +0.108 C 
ATOM     12  N   UNL     1      -1.100  -0.790   0.000  0.00  0.00    -0.311 N 
ATOM     13  C   UNL     1       0.002  -0.004   0.002  0.00  0.00    +0.046 A 
ATOM     14  C   UNL     1       1.239  -0.676  -0.011  0.00  0.00    -0.004 A 
ATOM     15  C   UNL     1       2.435   0.051  -0.025  0.00  0.00    +0.010 A 
ATOM     16  C   UNL     1       2.427   1.409  -0.019  0.00  0.00    +0.009 A 
ATOM     17  C   UNL     1       1.209   2.113   0.002  0.00  0.00    -0.016 A 
ATOM     18  C   UNL     1      -0.017   1.400   0.010  0.00  0.00    +0.004 A 
ATOM     19  C   UNL     1      -1.227   2.114   0.019  0.00  0.00    +0.010 A 
ATOM     20  C   UNL     1      -1.209   3.475   0.035  0.00  0.00    +0.001 A 
ATOM     21  C   UNL     1      -0.005   4.175   0.031  0.00  0.00    +0.001 A 
ATOM     22  C   UNL     1       1.187   3.518   0.014  0.00  0.00    +0.008 A 
ATOM     23  C   UNL     1       1.244  -2.159  -0.005  0.00  0.00    +0.007 C 
ATOM     24  C   UNL     1       0.155  -2.796  -0.486  0.00  0.00    -0.003 C 
ENDROOT
BRANCH   1  26
ATOM     25  C   UNL     1      -3.732   1.476  -1.657  0.00  0.00    +0.088 C 
ATOM     26  C   UNL     1      -2.582   0.521  -1.465  0.00  0.00    +0.151 C 
ATOM     27  O   UNL     1      -1.754   0.391  -2.334  0.00  0.00    -0.296 OA
ENDBRANCH   1  26
TORSDOF 1
