REMARK  Name = ZINC08798804
REMARK  14 active torsions:
REMARK  status: ('A' for Active; 'I' for Inactive)
REMARK    1  A    between atoms: C_1  and  C_2
REMARK    2  A    between atoms: C_3  and  C_31
REMARK    3  A    between atoms: C_4  and  C_30
REMARK    4  A    between atoms: C_5  and  S_10
REMARK    5  A    between atoms: C_6  and  C_9
REMARK    6  A    between atoms: C_7  and  C_8
REMARK    7  A    between atoms: S_10  and  N_13
REMARK    8  A    between atoms: N_13  and  C_14
REMARK    9  A    between atoms: C_14  and  C_15
REMARK   10  A    between atoms: C_15  and  C_17
REMARK   11  A    between atoms: C_15  and  N_68
REMARK   12  A    between atoms: N_26  and  C_27
REMARK   13  A    between atoms: C_28  and  N_68
REMARK   14  A    between atoms: C_29  and  N_68
REMARK                            x       y       z     vdW  Elec       q    Type
REMARK                         _______ _______ _______ _____ _____    ______ ____
ROOT
ATOM      1  C   UNL     1      -3.701   4.599  -2.615  0.00  0.00    +0.095 C 
ENDROOT
BRANCH   1   2
ATOM      2  N   UNL     1      -4.168   5.406  -1.486  0.00  0.00    -0.191 NA
ATOM      3  H   UNL     1      -4.478   6.314  -1.634  0.00  0.00    +0.148 HD
BRANCH   2   4
ATOM      4  S   UNL     1      -4.170   4.770   0.043  0.00  0.00    +0.059 S 
ATOM      5  O   UNL     1      -4.793   3.497  -0.047  0.00  0.00    -0.153 OA
ATOM      6  O   UNL     1      -4.646   5.792   0.908  0.00  0.00    -0.153 OA
BRANCH   4  11
ATOM      7  C   UNL     1       1.583   3.770   1.563  0.00  0.00    +0.044 C 
ATOM      8  C   UNL     1       0.146   4.020   1.183  0.00  0.00    -0.044 A 
ATOM      9  C   UNL     1      -0.418   5.264   1.395  0.00  0.00    -0.043 A 
ATOM     10  C   UNL     1      -1.738   5.491   1.051  0.00  0.00    -0.021 A 
ATOM     11  C   UNL     1      -2.490   4.478   0.487  0.00  0.00    +0.112 A 
ATOM     12  C   UNL     1      -1.925   3.234   0.275  0.00  0.00    -0.021 A 
ATOM     13  C   UNL     1      -0.607   3.005   0.623  0.00  0.00    -0.043 A 
ATOM     14  C   UNL     1       0.009   1.649   0.392  0.00  0.00    +0.044 C 
ATOM     15  C   UNL     1      -2.746   2.128  -0.336  0.00  0.00    +0.046 C 
ATOM     16  C   UNL     1      -2.355   6.846   1.288  0.00  0.00    +0.046 C 
ATOM     17  C   UNL     1       0.403   6.370   2.005  0.00  0.00    +0.044 C 
ENDBRANCH   4  11
ENDBRANCH   2   4
ENDBRANCH   1   2
BRANCH   1  18
ATOM     18  C   UNL     1      -4.141   5.252  -3.926  0.00  0.00    -0.023 C 
BRANCH  18  19
ATOM     19  C   UNL     1      -3.767   4.360  -5.082  0.00  0.00    -0.059 A 
ATOM     20  C   UNL     1      -4.152   3.032  -5.085  0.00  0.00    +0.004 A 
ATOM     21  C   UNL     1      -3.812   2.219  -6.144  0.00  0.00    +0.023 A 
ATOM     22  C   UNL     1      -3.069   2.724  -7.213  0.00  0.00    +0.033 A 
ATOM     23  C   UNL     1      -2.684   4.053  -7.204  0.00  0.00    -0.026 A 
ATOM     24  C   UNL     1      -3.035   4.866  -6.138  0.00  0.00    +0.007 A 
ATOM     25  C   UNL     1      -1.890   4.663  -8.332  0.00  0.00    +0.038 C 
ATOM     26  C   UNL     1      -1.287   3.553  -9.196  0.00  0.00    +0.024 C 
ATOM     27  C   UNL     1      -2.392   2.532  -9.492  0.00  0.00    +0.105 C 
ATOM     28  N   UNL     1      -2.744   1.847  -8.247  0.00  0.00    -0.333 N 
ATOM     29  C   UNL     1      -3.820   0.872  -8.468  0.00  0.00    +0.129 C 
ENDBRANCH  18  19
BRANCH  18  32
ATOM     30  C   UNL     1      -6.059   6.053  -5.168  0.00  0.00    -0.096 C 
ATOM     31  C   UNL     1      -6.296   4.186  -3.644  0.00  0.00    -0.096 C 
ATOM     32  N   UNL     1      -5.603   5.468  -3.890  0.00  0.00    +0.381 N 
ATOM     33  H   UNL     1      -5.824   6.118  -3.127  0.00  0.00    -0.082 HD
ENDBRANCH  18  32
ENDBRANCH   1  18
TORSDOF 6
