REMARK  Name = ZINC08854533
REMARK  6 active torsions:
REMARK  status: ('A' for Active; 'I' for Inactive)
REMARK    1  A    between atoms: C_4  and  S_7
REMARK    2  A    between atoms: S_7  and  O_10
REMARK    3  A    between atoms: O_10  and  C_11
REMARK    4  A    between atoms: C_14  and  C_17
REMARK    5  A    between atoms: N_18  and  N_19
REMARK    6  A    between atoms: C_22  and  C_25
REMARK                            x       y       z     vdW  Elec       q    Type
REMARK                         _______ _______ _______ _____ _____    ______ ____
ROOT
ATOM      1  C   UNL     1       4.765   0.077  -2.123  0.00  0.00    +0.157 A 
ATOM      2  C   UNL     1       3.872   0.917  -2.775  0.00  0.00    +0.049 A 
ATOM      3  C   UNL     1       4.327   2.057  -3.401  0.00  0.00    +0.013 A 
ATOM      4  C   UNL     1       5.691   2.361  -3.389  0.00  0.00    -0.005 A 
ATOM      5  C   UNL     1       6.587   1.510  -2.736  0.00  0.00    +0.013 A 
ATOM      6  C   UNL     1       6.122   0.375  -2.108  0.00  0.00    +0.049 A 
ENDROOT
BRANCH   4   7
ATOM      7  C   UNL     1       6.183   3.577  -4.062  0.00  0.00    +0.138 C 
ATOM      8  N   UNL     1       5.349   4.367  -4.668  0.00  0.00    -0.188 NA
BRANCH   8   9
ATOM      9  N   UNL     1       5.817   5.522  -5.308  0.00  0.00    -0.215 N 
ATOM     10  C   UNL     1       4.927   6.364  -5.954  0.00  0.00    +0.178 A 
ATOM     11  N   UNL     1       5.164   7.487  -6.608  0.00  0.00    -0.224 NA
ATOM     12  C   UNL     1       4.182   8.174  -7.172  0.00  0.00    +0.080 A 
ATOM     13  C   UNL     1       2.899   7.712  -7.077  0.00  0.00    +0.077 A 
ATOM     14  S   UNL     1       3.155   6.215  -6.131  0.00  0.00    -0.059 S 
ATOM     15  H   UNL     1       6.764   5.732  -5.298  0.00  0.00    +0.176 HD
BRANCH  12  16
ATOM     16  C   UNL     1       4.471   9.432  -7.902  0.00  0.00    +0.001 A 
ATOM     17  C   UNL     1       3.436  10.148  -8.500  0.00  0.00    +0.011 A 
ATOM     18  C   UNL     1       3.710  11.320  -9.174  0.00  0.00    +0.016 A 
ATOM     19  C   UNL     1       5.012  11.781  -9.265  0.00  0.00    +0.018 A 
ATOM     20  C   UNL     1       6.045  11.071  -8.677  0.00  0.00    +0.016 A 
ATOM     21  C   UNL     1       5.781   9.900  -7.997  0.00  0.00    +0.011 A 
ATOM     22 BR   UNL     1       5.381  13.385 -10.196  0.00  0.00    -0.050 Br
ENDBRANCH  12  16
ENDBRANCH   8   9
ENDBRANCH   4   7
BRANCH   1  23
ATOM     23  O   UNL     1       4.312  -1.043  -1.501  0.00  0.00    -0.342 OA
BRANCH  23  24
ATOM     24  S   UNL     1       3.934  -0.832  -0.042  0.00  0.00    +0.151 S 
ATOM     25  O   UNL     1       4.902   0.054   0.504  0.00  0.00    -0.131 OA
ATOM     26  O   UNL     1       3.686  -2.120   0.504  0.00  0.00    -0.131 OA
BRANCH  24  30
ATOM     27  C   UNL     1      -0.017   1.378   0.010  0.00  0.00    +0.000 A 
ATOM     28  C   UNL     1       1.171   2.086   0.002  0.00  0.00    +0.002 A 
ATOM     29  C   UNL     1       2.377   1.411  -0.014  0.00  0.00    +0.030 A 
ATOM     30  C   UNL     1       2.396   0.029  -0.022  0.00  0.00    +0.128 A 
ATOM     31  C   UNL     1       1.208  -0.679  -0.014  0.00  0.00    +0.030 A 
ATOM     32  C   UNL     1       0.002  -0.004   0.002  0.00  0.00    +0.002 A 
ENDBRANCH  24  30
ENDBRANCH  23  24
ENDBRANCH   1  23
TORSDOF 6
