REMARK  Name = ZINC43259895
REMARK  10 active torsions:
REMARK  status: ('A' for Active; 'I' for Inactive)
REMARK    1  A    between atoms: C_1  and  C_2
REMARK    2  A    between atoms: C_2  and  C_3
REMARK    3  A    between atoms: C_3  and  C_5
REMARK    4  A    between atoms: C_3  and  N_22
REMARK    5  A    between atoms: C_5  and  C_7
REMARK    6  A    between atoms: C_5  and  N_13
REMARK    7  A    between atoms: N_13  and  C_14
REMARK    8  A    between atoms: N_13  and  C_15
REMARK    9  A    between atoms: C_15  and  C_16
REMARK   10  A    between atoms: C_19  and  C_21
REMARK                            x       y       z     vdW  Elec       q    Type
REMARK                         _______ _______ _______ _____ _____    ______ ____
ROOT
ATOM      1  C   UNL     1       0.849  -2.021  -1.205  0.00  0.00    +0.079 C 
ENDROOT
BRANCH   1   2
ATOM      2  C   UNL     1      -0.521  -2.645  -1.256  0.00  0.00    +0.006 A 
ATOM      3  C   UNL     1      -1.168  -3.200  -2.309  0.00  0.00    +0.014 A 
ATOM      4  C   UNL     1      -2.436  -3.718  -2.121  0.00  0.00    +0.023 A 
ATOM      5  C   UNL     1      -2.995  -3.655  -0.887  0.00  0.00    +0.055 A 
ATOM      6  S   UNL     1      -1.712  -2.852   0.059  0.00  0.00    -0.085 S 
ATOM      7 BR   UNL     1      -4.691  -4.266  -0.316  0.00  0.00    -0.043 Br
ENDBRANCH   1   2
BRANCH   1   8
ATOM      8  N   UNL     1       1.520  -2.413   0.042  0.00  0.00    -0.292 NA
ATOM      9  C   UNL     1       1.580  -3.875   0.171  0.00  0.00    +0.105 C 
BRANCH   8  10
ATOM     10  C   UNL     1       2.862  -1.821   0.126  0.00  0.00    +0.159 C 
BRANCH  10  11
ATOM     11  C   UNL     1       3.420  -2.037   1.509  0.00  0.00    +0.119 A 
ATOM     12  C   UNL     1       4.153  -3.093   1.906  0.00  0.00    +0.046 A 
ATOM     13  C   UNL     1       4.462  -2.887   3.270  0.00  0.00    +0.044 A 
ATOM     14  C   UNL     1       3.900  -1.718   3.626  0.00  0.00    +0.102 A 
ATOM     15  O   UNL     1       3.275  -1.204   2.553  0.00  0.00    -0.464 OA
ATOM     16  C   UNL     1       3.965  -1.088   4.993  0.00  0.00    +0.086 C 
ENDBRANCH  10  11
ENDBRANCH   8  10
ENDBRANCH   1   8
BRANCH   1  17
ATOM     17  C   UNL     1       0.718  -0.497  -1.257  0.00  0.00    -0.053 C 
BRANCH  17  18
ATOM     18  N   UNL     1      -0.057  -0.113  -2.444  0.00  0.00    +0.381 N 
ATOM     19  H   UNL     1       0.415  -0.438  -3.274  0.00  0.00    -0.090 HD
ATOM     20  H   UNL     1      -0.975  -0.528  -2.395  0.00  0.00    -0.090 HD
ATOM     21  H   UNL     1      -0.143   0.892  -2.478  0.00  0.00    -0.090 HD
ENDBRANCH  17  18
BRANCH  17  23
ATOM     22  C   UNL     1      -0.019   1.526   0.010  0.00  0.00    +0.002 C 
ATOM     23  C   UNL     1       0.002  -0.004   0.002  0.00  0.00    -0.018 C 
ENDBRANCH  17  23
ENDBRANCH   1  17
TORSDOF 7
