REMARK  Name = ZINC43619433
REMARK  8 active torsions:
REMARK  status: ('A' for Active; 'I' for Inactive)
REMARK    1  A    between atoms: C_1  and  O_2
REMARK    2  A    between atoms: O_2  and  C_3
REMARK    3  A    between atoms: C_6  and  C_10
REMARK    4  A    between atoms: C_11  and  C_16
REMARK    5  A    between atoms: C_16  and  N_17
REMARK    6  A    between atoms: N_17  and  C_18
REMARK    7  A    between atoms: C_18  and  C_19
REMARK    8  A    between atoms: C_19  and  C_20
REMARK                            x       y       z     vdW  Elec       q    Type
REMARK                         _______ _______ _______ _____ _____    ______ ____
ROOT
ATOM      1  C   UNL     1       2.735  -2.557   4.211  0.00  0.00    +0.097 A 
ATOM      2  C   UNL     1       2.637  -3.926   4.529  0.00  0.00    -0.019 A 
ATOM      3  C   UNL     1       3.197  -4.109   5.744  0.00  0.00    +0.107 A 
ATOM      4  N   UNL     1       3.637  -2.912   6.186  0.00  0.00    -0.284 N 
ATOM      5  H   UNL     1       4.082  -2.745   7.032  0.00  0.00    +0.188 HD
ATOM      6  N   UNL     1       3.343  -1.952   5.209  0.00  0.00    -0.174 NA
ENDROOT
BRANCH   1  10
ATOM      7  C   UNL     1       1.331  -0.708   0.644  0.00  0.00    +0.123 A 
ATOM      8  C   UNL     1       0.504  -1.572   1.350  0.00  0.00    +0.046 A 
ATOM      9  C   UNL     1       0.957  -2.172   2.506  0.00  0.00    +0.016 A 
ATOM     10  C   UNL     1       2.246  -1.913   2.967  0.00  0.00    +0.038 A 
ATOM     11  C   UNL     1       3.076  -1.045   2.256  0.00  0.00    +0.136 A 
ATOM     12  C   UNL     1       2.618  -0.450   1.096  0.00  0.00    +0.084 A 
ATOM     13  F   UNL     1       4.327  -0.790   2.699  0.00  0.00    -0.205 F 
BRANCH   7  15
ATOM     14  C   UNL     1      -0.453  -0.428  -0.902  0.00  0.00    +0.277 C 
ATOM     15  O   UNL     1       0.882  -0.118  -0.494  0.00  0.00    -0.495 OA
ENDBRANCH   7  15
ENDBRANCH   1  10
BRANCH   2  16
ATOM     16  C   UNL     1       2.016  -4.995   3.668  0.00  0.00    -0.043 C 
BRANCH  16  17
ATOM     17  N   UNL     1       2.932  -5.333   2.571  0.00  0.00    +0.382 N 
ATOM     18  H   UNL     1       3.107  -4.511   2.013  0.00  0.00    -0.085 HD
ATOM     19  H   UNL     1       3.803  -5.672   2.952  0.00  0.00    -0.085 HD
BRANCH  17  20
ATOM     20  C   UNL     1       2.327  -6.375   1.731  0.00  0.00    -0.082 C 
BRANCH  20  21
ATOM     21  C   UNL     1       3.281  -6.728   0.588  0.00  0.00    -0.015 C 
BRANCH  21  22
ATOM     22  C   UNL     1       2.651  -7.813  -0.287  0.00  0.00    -0.005 C 
ATOM     23  C   UNL     1       2.566  -9.153   0.485  0.00  0.00    +0.011 C 
ATOM     24  C   UNL     1       3.450 -10.124  -0.363  0.00  0.00    +0.012 C 
ATOM     25  C   UNL     1       4.586  -9.141  -0.827  0.00  0.00    +0.015 C 
ATOM     26  C   UNL     1       3.572  -8.141  -1.504  0.00  0.00    +0.015 C 
ATOM     27  C   UNL     1       2.750  -9.130  -2.339  0.00  0.00    -0.027 C 
ATOM     28  C   UNL     1       2.669 -10.291  -1.672  0.00  0.00    -0.027 C 
ENDBRANCH  21  22
ENDBRANCH  20  21
ENDBRANCH  17  20
ENDBRANCH  16  17
ENDBRANCH   2  16
TORSDOF 7
