REMARK  Name = ZINC36629398
REMARK  11 active torsions:
REMARK  status: ('A' for Active; 'I' for Inactive)
REMARK    1  A    between atoms: C_1  and  C_2
REMARK    2  A    between atoms: C_2  and  O_3
REMARK    3  A    between atoms: O_3  and  C_4
REMARK    4  A    between atoms: C_7  and  O_10
REMARK    5  A    between atoms: O_10  and  C_11
REMARK    6  A    between atoms: C_11  and  C_12
REMARK    7  A    between atoms: N_14  and  C_15
REMARK    8  A    between atoms: C_16  and  C_27
REMARK    9  A    between atoms: N_21  and  C_24
REMARK   10  A    between atoms: C_24  and  C_25
REMARK   11  A    between atoms: C_24  and  C_26
REMARK                            x       y       z     vdW  Elec       q    Type
REMARK                         _______ _______ _______ _____ _____    ______ ____
ROOT
ATOM      1  C   UNL     1       2.290  -9.907  -4.045  0.00  0.00    +0.084 A 
ATOM      2  C   UNL     1       2.860 -10.739  -4.997  0.00  0.00    +0.068 A 
ATOM      3  C   UNL     1       2.769 -12.167  -4.767  0.00  0.00    -0.027 A 
ATOM      4  C   UNL     1       2.124 -12.506  -3.628  0.00  0.00    -0.021 A 
ATOM      5  S   UNL     1       1.670 -10.964  -2.896  0.00  0.00    -0.079 S 
ATOM      6  C   UNL     1       1.876 -13.897  -3.135  0.00  0.00    -0.035 C 
ATOM      7  N   UNL     1       2.099 -14.832  -4.254  0.00  0.00    +0.384 N 
ATOM      8  C   UNL     1       3.398 -14.552  -4.879  0.00  0.00    -0.073 C 
ATOM      9  C   UNL     1       3.329 -13.248  -5.681  0.00  0.00    +0.018 C 
ATOM     10  H   UNL     1       1.366 -14.718  -4.938  0.00  0.00    -0.081 HD
ENDROOT
BRANCH   2  11
ATOM     11  C   UNL     1       3.526 -10.196  -6.186  0.00  0.00    +0.244 C 
ATOM     12  O   UNL     1       4.716  -9.945  -6.156  0.00  0.00    -0.270 OA
ATOM     13  N   UNL     1       2.819  -9.976  -7.312  0.00  0.00    -0.325 N 
ATOM     14  H   UNL     1       1.870 -10.176  -7.337  0.00  0.00    +0.145 HD
ATOM     15  H   UNL     1       3.259  -9.617  -8.099  0.00  0.00    +0.145 HD
ENDBRANCH   2  11
BRANCH   1  18
ATOM     16  C   UNL     1       1.652  -7.870  -3.020  0.00  0.00    +0.255 C 
ATOM     17  O   UNL     1       1.153  -8.496  -2.109  0.00  0.00    -0.272 OA
ATOM     18  N   UNL     1       2.247  -8.521  -4.039  0.00  0.00    -0.277 N 
ATOM     19  H   UNL     1       2.646  -8.021  -4.768  0.00  0.00    +0.155 HD
BRANCH  16  20
ATOM     20  C   UNL     1       1.605  -6.363  -3.014  0.00  0.00    +0.324 C 
BRANCH  20  21
ATOM     21  O   UNL     1       0.927  -5.913  -1.839  0.00  0.00    -0.483 OA
BRANCH  21  25
ATOM     22  C   UNL     1       0.536  -1.832  -1.351  0.00  0.00    +0.121 A 
ATOM     23  C   UNL     1       0.020  -2.698  -0.398  0.00  0.00    +0.049 A 
ATOM     24  C   UNL     1       0.150  -4.063  -0.561  0.00  0.00    +0.049 A 
ATOM     25  C   UNL     1       0.798  -4.569  -1.679  0.00  0.00    +0.121 A 
ATOM     26  C   UNL     1       1.314  -3.703  -2.632  0.00  0.00    +0.049 A 
ATOM     27  C   UNL     1       1.179  -2.338  -2.470  0.00  0.00    +0.049 A 
BRANCH  22  28
ATOM     28  O   UNL     1       0.408  -0.488  -1.189  0.00  0.00    -0.492 OA
BRANCH  28  30
ATOM     29  C   UNL     1      -0.312   1.492  -0.006  0.00  0.00    +0.048 C 
ATOM     30  C   UNL     1      -0.265  -0.037  -0.012  0.00  0.00    +0.225 C 
ENDBRANCH  28  30
ENDBRANCH  22  28
ENDBRANCH  21  25
ENDBRANCH  20  21
ENDBRANCH  16  20
ENDBRANCH   1  18
BRANCH   7  31
ATOM     31  C   UNL     1       2.086 -16.211  -3.749  0.00  0.00    -0.074 C 
ATOM     32  C   UNL     1       0.786 -16.461  -2.982  0.00  0.00    -0.014 C 
ATOM     33  C   UNL     1       2.179 -17.185  -4.925  0.00  0.00    -0.014 C 
ENDBRANCH   7  31
TORSDOF 8
