REMARK  Name = ZINC63262612
REMARK  6 active torsions:
REMARK  status: ('A' for Active; 'I' for Inactive)
REMARK    1  A    between atoms: C_1  and  C_2
REMARK    2  A    between atoms: C_5  and  C_18
REMARK    3  A    between atoms: N_9  and  C_11
REMARK    4  A    between atoms: N_20  and  C_21
REMARK    5  A    between atoms: C_21  and  C_22
REMARK    6  A    between atoms: C_22  and  C_23
REMARK                            x       y       z     vdW  Elec       q    Type
REMARK                         _______ _______ _______ _____ _____    ______ ____
ROOT
ATOM      1  C   UNL     1      -0.018   1.503   0.010  0.00  0.00    +0.062 C 
ATOM      2  C   UNL     1       0.002  -0.004   0.002  0.00  0.00    +0.025 C 
ATOM      3  C   UNL     1      -1.103  -0.781   0.003  0.00  0.00    +0.004 C 
ATOM      4  C   UNL     1      -2.478  -0.817   0.255  0.00  0.00    +0.027 C 
ATOM      5  C   UNL     1      -3.047  -1.949   0.774  0.00  0.00    +0.072 C 
ATOM      6  S   UNL     1      -1.690  -3.117   0.851  0.00  0.00    -0.091 S 
ATOM      7  C   UNL     1      -0.560  -2.197  -0.264  0.00  0.00    +0.188 C 
ATOM      8  N   UNL     1       0.801  -2.109   0.264  0.00  0.00    -0.236 N 
ATOM      9  N   UNL     1       1.146  -0.762  -0.013  0.00  0.00    -0.267 N 
ATOM     10  H   UNL     1       2.041  -0.431  -0.184  0.00  0.00    +0.170 HD
ENDROOT
BRANCH   8  11
ATOM     11  C   UNL     1       1.568  -3.102   0.880  0.00  0.00    +0.049 A 
ATOM     12  C   UNL     1       1.046  -4.377   1.052  0.00  0.00    +0.026 A 
ATOM     13  C   UNL     1       1.806  -5.357   1.661  0.00  0.00    +0.022 A 
ATOM     14  C   UNL     1       3.086  -5.067   2.101  0.00  0.00    +0.041 A 
ATOM     15  C   UNL     1       3.608  -3.797   1.932  0.00  0.00    +0.022 A 
ATOM     16  C   UNL     1       2.855  -2.816   1.318  0.00  0.00    +0.026 A 
ATOM     17 CL   UNL     1       4.038  -6.301   2.866  0.00  0.00    -0.084 Cl
ENDBRANCH   8  11
BRANCH   5  18
ATOM     18  C   UNL     1      -4.397  -2.151   1.161  0.00  0.00    +0.250 C 
ATOM     19  O   UNL     1      -5.205  -1.247   1.045  0.00  0.00    -0.270 OA
ATOM     20  N   UNL     1      -4.785  -3.342   1.657  0.00  0.00    -0.311 N 
ATOM     21  H   UNL     1      -4.141  -4.062   1.750  0.00  0.00    +0.149 HD
BRANCH  20  22
ATOM     22  C   UNL     1      -6.179  -3.550   2.057  0.00  0.00    +0.109 C 
BRANCH  22  23
ATOM     23  C   UNL     1      -6.351  -4.977   2.582  0.00  0.00    +0.052 C 
BRANCH  23  24
ATOM     24  C   UNL     1      -7.785  -5.191   2.993  0.00  0.00    -0.040 C 
ATOM     25  C   UNL     1      -8.772  -5.738   2.247  0.00  0.00    -0.001 A 
ATOM     26  C   UNL     1      -8.805  -6.276   0.882  0.00  0.00    +0.010 A 
ATOM     27  C   UNL     1      -9.968  -6.766   0.398  0.00  0.00    +0.001 A 
ATOM     28  C   UNL     1     -11.141  -6.774   1.165  0.00  0.00    +0.002 A 
ATOM     29  C   UNL     1     -11.190  -6.298   2.427  0.00  0.00    +0.026 A 
ATOM     30  C   UNL     1     -10.024  -5.758   3.037  0.00  0.00    +0.043 A 
ATOM     31  N   UNL     1      -9.819  -5.244   4.226  0.00  0.00    -0.380 N 
ATOM     32  C   UNL     1      -8.411  -4.844   4.326  0.00  0.00    +0.144 C 
ATOM     33  H   UNL     1     -10.486  -5.147   4.923  0.00  0.00    +0.160 HD
ENDBRANCH  23  24
ENDBRANCH  22  23
ENDBRANCH  20  22
ENDBRANCH   5  18
TORSDOF 5
