REMARK  Name = ZINC30750470
REMARK  8 active torsions:
REMARK  status: ('A' for Active; 'I' for Inactive)
REMARK    1  A    between atoms: C_1  and  C_2
REMARK    2  A    between atoms: C_5  and  S_8
REMARK    3  A    between atoms: S_8  and  N_11
REMARK    4  A    between atoms: N_14  and  C_17
REMARK    5  A    between atoms: C_17  and  C_18
REMARK    6  A    between atoms: N_20  and  N_21
REMARK    7  A    between atoms: C_22  and  C_23
REMARK    8  A    between atoms: C_27  and  O_29
REMARK                            x       y       z     vdW  Elec       q    Type
REMARK                         _______ _______ _______ _____ _____    ______ ____
ROOT
ATOM      1  N   UNL     1      -8.428   7.339  -0.071  0.00  0.00    -0.180 NA
ATOM      2  C   UNL     1      -8.345   6.282  -1.091  0.00  0.00    +0.091 C 
ATOM      3  C   UNL     1      -7.245   5.297  -0.683  0.00  0.00    -0.061 C 
ATOM      4  N   UNL     1      -5.995   6.033  -0.450  0.00  0.00    +0.387 N 
ATOM      5  C   UNL     1      -6.133   6.976   0.668  0.00  0.00    -0.061 C 
ATOM      6  C   UNL     1      -7.189   8.030   0.316  0.00  0.00    +0.091 C 
ATOM      7  H   UNL     1      -5.777   6.618  -1.355  0.00  0.00    -0.081 HD
ENDROOT
BRANCH   1   8
ATOM      8  S   UNL     1      -9.877   7.739   0.622  0.00  0.00    +0.061 S 
ATOM      9  O   UNL     1      -9.748   9.075   1.091  0.00  0.00    -0.153 OA
ATOM     10  O   UNL     1     -10.889   7.350  -0.297  0.00  0.00    -0.153 OA
BRANCH   8  15
ATOM     11  C   UNL     1     -10.545   4.254   5.502  0.00  0.00    +0.044 C 
ATOM     12  C   UNL     1     -10.379   5.125   4.283  0.00  0.00    -0.050 A 
ATOM     13  C   UNL     1      -9.753   6.353   4.391  0.00  0.00    +0.005 A 
ATOM     14  C   UNL     1      -9.600   7.151   3.273  0.00  0.00    +0.029 A 
ATOM     15  C   UNL     1     -10.072   6.721   2.047  0.00  0.00    +0.105 A 
ATOM     16  C   UNL     1     -10.702   5.496   1.940  0.00  0.00    +0.029 A 
ATOM     17  C   UNL     1     -10.851   4.695   3.057  0.00  0.00    +0.005 A 
ENDBRANCH   8  15
ENDBRANCH   1   8
BRANCH   4  18
ATOM     18  C   UNL     1      -4.874   5.111  -0.225  0.00  0.00    +0.020 C 
BRANCH  18  19
ATOM     19  C   UNL     1      -3.579   5.881  -0.234  0.00  0.00    +0.216 C 
ATOM     20  O   UNL     1      -3.589   7.081  -0.410  0.00  0.00    -0.276 OA
ATOM     21  N   UNL     1      -2.411   5.237  -0.045  0.00  0.00    -0.209 N 
ATOM     22  H   UNL     1      -2.402   4.149   0.115  0.00  0.00    +0.177 HD
BRANCH  21  23
ATOM     23  N   UNL     1      -1.207   5.954  -0.054  0.00  0.00    -0.188 NA
ATOM     24  C   UNL     1      -0.075   5.322   0.000  0.00  0.00    +0.138 C 
BRANCH  24  25
ATOM     25  C   UNL     1       0.017   3.931  -0.484  0.00  0.00    -0.002 A 
ATOM     26  C   UNL     1      -1.004   3.394  -1.273  0.00  0.00    +0.010 A 
ATOM     27  C   UNL     1      -0.911   2.096  -1.729  0.00  0.00    +0.004 A 
ATOM     28  C   UNL     1       0.184   1.319  -1.399  0.00  0.00    +0.045 A 
ATOM     29  C   UNL     1       1.203   1.843  -0.615  0.00  0.00    +0.117 A 
ATOM     30  C   UNL     1       1.124   3.147  -0.156  0.00  0.00    +0.054 A 
BRANCH  29  31
ATOM     31  O   UNL     1       2.280   1.076  -0.298  0.00  0.00    -0.507 OA
ATOM     32  H   UNL     1       3.087   1.491   0.323  0.00  0.00    +0.292 HD
ENDBRANCH  29  31
ENDBRANCH  24  25
ENDBRANCH  21  23
ENDBRANCH  18  19
ENDBRANCH   4  18
TORSDOF 7
