REMARK  Name = ZINC27360538
REMARK  10 active torsions:
REMARK  status: ('A' for Active; 'I' for Inactive)
REMARK    1  A    between atoms: C_1  and  C_2
REMARK    2  A    between atoms: C_2  and  C_4
REMARK    3  A    between atoms: C_2  and  N_13
REMARK    4  A    between atoms: N_9  and  C_10
REMARK    5  A    between atoms: N_16  and  C_19
REMARK    6  A    between atoms: C_19  and  C_20
REMARK    7  A    between atoms: N_22  and  C_23
REMARK    8  A    between atoms: C_23  and  C_24
REMARK    9  A    between atoms: C_23  and  C_25
REMARK   10  A    between atoms: C_23  and  C_26
REMARK                            x       y       z     vdW  Elec       q    Type
REMARK                         _______ _______ _______ _____ _____    ______ ____
ROOT
ATOM      1  N   UNL     1      -6.046   1.968  -0.646  0.00  0.00    -0.295 NA
ATOM      2  C   UNL     1      -5.755   2.725   0.580  0.00  0.00    +0.066 C 
ATOM      3  C   UNL     1      -6.779   3.851   0.737  0.00  0.00    -0.063 C 
ATOM      4  N   UNL     1      -8.131   3.277   0.784  0.00  0.00    +0.387 N 
ATOM      5  C   UNL     1      -8.423   2.520  -0.442  0.00  0.00    -0.063 C 
ATOM      6  C   UNL     1      -7.398   1.394  -0.598  0.00  0.00    +0.066 C 
ATOM      7  H   UNL     1      -8.174   2.578   1.633  0.00  0.00    -0.081 HD
ENDROOT
BRANCH   1   9
ATOM      8  C   UNL     1      -5.289  -0.243   0.086  0.00  0.00    +0.034 C 
ATOM      9  C   UNL     1      -5.038   0.923  -0.872  0.00  0.00    +0.140 C 
BRANCH   9  10
ATOM     10  C   UNL     1      -5.132   0.434  -2.294  0.00  0.00    +0.237 C 
ATOM     11  O   UNL     1      -6.095   0.721  -2.971  0.00  0.00    -0.274 OA
ATOM     12  N   UNL     1      -4.144  -0.321  -2.813  0.00  0.00    -0.239 N 
ATOM     13  C   UNL     1      -4.227  -0.759  -4.085  0.00  0.00    +0.306 C 
ATOM     14  O   UNL     1      -5.193  -0.472  -4.764  0.00  0.00    -0.252 OA
ATOM     15  N   UNL     1      -3.239  -1.514  -4.604  0.00  0.00    -0.296 N 
ATOM     16  H   UNL     1      -3.269  -0.581  -2.198  0.00  0.00    +0.159 HD
ATOM     17  H   UNL     1      -2.363  -1.770  -3.991  0.00  0.00    +0.151 HD
BRANCH  15  18
ATOM     18  C   UNL     1      -3.333  -1.995  -5.985  0.00  0.00    +0.075 C 
ATOM     19  C   UNL     1      -2.954  -3.453  -6.253  0.00  0.00    +0.024 C 
ATOM     20  C   UNL     1      -2.026  -2.324  -6.708  0.00  0.00    +0.024 C 
ENDBRANCH  15  18
ENDBRANCH   9  10
ENDBRANCH   1   9
BRANCH   4  21
ATOM     21  C   UNL     1      -9.139   4.321   1.010  0.00  0.00    +0.019 C 
BRANCH  21  22
ATOM     22  C   UNL     1     -10.473   3.679   1.296  0.00  0.00    +0.197 C 
ATOM     23  O   UNL     1     -10.553   2.475   1.414  0.00  0.00    -0.278 OA
ATOM     24  N   UNL     1     -11.575   4.444   1.421  0.00  0.00    -0.312 N 
ATOM     25  H   UNL     1     -11.503   5.536   1.314  0.00  0.00    +0.149 HD
BRANCH  24  26
ATOM     26  C   UNL     1     -12.871   3.820   1.700  0.00  0.00    +0.026 C 
ATOM     27  C   UNL     1     -12.797   3.059   3.025  0.00  0.00    +0.031 C 
ATOM     28  C   UNL     1     -13.949   4.902   1.793  0.00  0.00    +0.031 C 
ATOM     29  C   UNL     1     -13.222   2.847   0.572  0.00  0.00    +0.031 C 
ENDBRANCH  24  26
ENDBRANCH  21  22
ENDBRANCH   4  21
TORSDOF 6
