REMARK  Name = ZINC03342431
REMARK  10 active torsions:
REMARK  status: ('A' for Active; 'I' for Inactive)
REMARK    1  A    between atoms: C_1  and  C_2
REMARK    2  A    between atoms: C_2  and  C_4
REMARK    3  A    between atoms: C_2  and  N_17
REMARK    4  A    between atoms: N_6  and  C_7
REMARK    5  A    between atoms: C_10  and  S_13
REMARK    6  A    between atoms: S_13  and  N_16
REMARK    7  A    between atoms: N_17  and  C_18
REMARK    8  A    between atoms: C_18  and  C_19
REMARK    9  A    between atoms: C_19  and  O_20
REMARK   10  A    between atoms: O_20  and  C_21
REMARK                            x       y       z     vdW  Elec       q    Type
REMARK                         _______ _______ _______ _____ _____    ______ ____
ROOT
ATOM      1  C   UNL     1       0.730  -0.505   1.223  0.00  0.00    +0.203 C 
ATOM      2  O   UNL     1       1.719  -1.195   1.098  0.00  0.00    -0.277 OA
ATOM      3  N   UNL     1       0.278  -0.191   2.453  0.00  0.00    -0.287 N 
ATOM      4  H   UNL     1      -0.473   0.415   2.554  0.00  0.00    +0.155 HD
ENDROOT
BRANCH   3   5
ATOM      5  C   UNL     1       0.891  -0.739   3.585  0.00  0.00    +0.033 A 
ATOM      6  C   UNL     1       0.130  -1.065   4.700  0.00  0.00    +0.025 A 
ATOM      7  C   UNL     1       0.739  -1.606   5.815  0.00  0.00    +0.030 A 
ATOM      8  C   UNL     1       2.104  -1.823   5.823  0.00  0.00    +0.105 A 
ATOM      9  C   UNL     1       2.865  -1.498   4.715  0.00  0.00    +0.030 A 
ATOM     10  C   UNL     1       2.262  -0.963   3.594  0.00  0.00    +0.025 A 
BRANCH   8  11
ATOM     11  S   UNL     1       2.877  -2.513   7.248  0.00  0.00    +0.056 S 
ATOM     12  O   UNL     1       4.239  -2.110   7.207  0.00  0.00    -0.153 OA
ATOM     13  O   UNL     1       2.029  -2.222   8.351  0.00  0.00    -0.153 OA
BRANCH  11  14
ATOM     14  N   UNL     1       2.864  -4.159   7.063  0.00  0.00    -0.204 NA
ATOM     15  H   UNL     1       3.569  -4.696   7.458  0.00  0.00    +0.144 HD
ATOM     16  H   UNL     1       2.152  -4.585   6.561  0.00  0.00    +0.144 HD
ENDBRANCH  11  14
ENDBRANCH   8  11
ENDBRANCH   3   5
BRANCH   1  18
ATOM     17  C   UNL     1      -0.004   1.532   0.013  0.00  0.00    -0.004 C 
ATOM     18  C   UNL     1       0.006   0.002   0.002  0.00  0.00    +0.013 C 
BRANCH  18  19
ATOM     19  N   UNL     1       0.691  -0.475  -1.207  0.00  0.00    +0.389 N 
ATOM     20  H   UNL     1       1.613  -0.067  -1.254  0.00  0.00    -0.085 HD
ATOM     21  H   UNL     1       0.770  -1.480  -1.174  0.00  0.00    -0.085 HD
BRANCH  19  22
ATOM     22  C   UNL     1      -0.080  -0.083  -2.394  0.00  0.00    -0.040 C 
BRANCH  22  23
ATOM     23  C   UNL     1       0.634  -0.579  -3.653  0.00  0.00    +0.210 C 
BRANCH  23  24
ATOM     24  O   UNL     1       0.642  -2.008  -3.663  0.00  0.00    -0.491 OA
BRANCH  24  25
ATOM     25  C   UNL     1       1.243  -2.614  -4.721  0.00  0.00    +0.155 A 
ATOM     26  C   UNL     1       1.817  -1.850  -5.726  0.00  0.00    +0.048 A 
ATOM     27  C   UNL     1       2.426  -2.468  -6.801  0.00  0.00    +0.004 A 
ATOM     28  C   UNL     1       2.465  -3.848  -6.877  0.00  0.00    +0.003 A 
ATOM     29  C   UNL     1       1.894  -4.614  -5.878  0.00  0.00    +0.042 A 
ATOM     30  C   UNL     1       1.288  -4.001  -4.796  0.00  0.00    +0.165 A 
ATOM     31  F   UNL     1       0.735  -4.749  -3.816  0.00  0.00    -0.202 F 
ENDBRANCH  24  25
ENDBRANCH  23  24
ENDBRANCH  22  23
ENDBRANCH  19  22
ENDBRANCH  18  19
ENDBRANCH   1  18
TORSDOF 9
