REMARK  Name = ZINC06512500
REMARK  8 active torsions:
REMARK  status: ('A' for Active; 'I' for Inactive)
REMARK    1  A    between atoms: C_1  and  C_2
REMARK    2  A    between atoms: C_2  and  N_21
REMARK    3  A    between atoms: C_3  and  C_4
REMARK    4  A    between atoms: C_3  and  C_6
REMARK    5  A    between atoms: C_6  and  C_8
REMARK    6  A    between atoms: C_8  and  S_9
REMARK    7  A    between atoms: S_9  and  C_10
REMARK    8  A    between atoms: C_13  and  C_16
REMARK                            x       y       z     vdW  Elec       q    Type
REMARK                         _______ _______ _______ _____ _____    ______ ____
ROOT
ATOM      1  S   UNL     1       0.968  -2.670   1.493  0.00  0.00    -0.096 S 
ENDROOT
BRANCH   1   2
ATOM      2  C   UNL     1       1.034  -0.923   1.709  0.00  0.00    +0.116 A 
ATOM      3  C   UNL     1       2.209  -0.327   2.161  0.00  0.00    +0.073 A 
ATOM      4  C   UNL     1       2.247   1.046   2.325  0.00  0.00    +0.036 A 
ATOM      5  C   UNL     1       1.105   1.780   2.031  0.00  0.00    +0.074 A 
ATOM      6  C   UNL     1      -0.025   1.125   1.586  0.00  0.00    +0.124 A 
ATOM      7  N   UNL     1      -0.033  -0.187   1.439  0.00  0.00    -0.247 NA
ATOM      8 CL   UNL     1       3.607  -1.294   2.515  0.00  0.00    -0.081 Cl
BRANCH   5   9
ATOM      9  C   UNL     1       1.101   3.279   2.194  0.00  0.00    +0.419 C 
ATOM     10  F   UNL     1      -0.154   3.783   1.836  0.00  0.00    -0.166 F 
ATOM     11  F   UNL     1       1.371   3.603   3.528  0.00  0.00    -0.166 F 
ATOM     12  F   UNL     1       2.082   3.841   1.370  0.00  0.00    -0.166 F 
ENDBRANCH   5   9
ENDBRANCH   1   2
BRANCH   1  13
ATOM     13  C   UNL     1      -0.720  -2.976   0.903  0.00  0.00    +0.156 C 
BRANCH  13  14
ATOM     14  C   UNL     1      -0.913  -4.453   0.676  0.00  0.00    +0.185 C 
ATOM     15  O   UNL     1      -0.001  -5.225   0.891  0.00  0.00    -0.290 OA
BRANCH  14  18
ATOM     16  C   UNL     1      -1.092  -7.180  -0.133  0.00  0.00    +0.061 C 
ATOM     17  C   UNL     1      -2.299  -6.277  -0.117  0.00  0.00    +0.019 C 
ATOM     18  C   UNL     1      -2.159  -4.941   0.212  0.00  0.00    +0.111 C 
BRANCH  17  19
ATOM     19  N   UNL     1      -3.516  -6.773  -0.422  0.00  0.00    -0.360 N 
ATOM     20  H   UNL     1      -4.397  -6.114  -0.410  0.00  0.00    +0.142 HD
ATOM     21  H   UNL     1      -3.627  -7.836  -0.683  0.00  0.00    +0.142 HD
ENDBRANCH  17  19
BRANCH  18  22
ATOM     22  C   UNL     1      -3.273  -4.051   0.082  0.00  0.00    +0.104 C 
ATOM     23  N   UNL     1      -4.157  -3.345  -0.021  0.00  0.00    -0.191 NA
ENDBRANCH  18  22
ENDBRANCH  14  18
ENDBRANCH  13  14
ENDBRANCH   1  13
TORSDOF 7
