REMARK  Name = ZINC64556956
REMARK  3 active torsions:
REMARK  status: ('A' for Active; 'I' for Inactive)
REMARK    1  A    between atoms: C_1  and  C_2
REMARK    2  A    between atoms: C_6  and  C_7
REMARK    3  A    between atoms: C_10  and  C_12
REMARK                            x       y       z     vdW  Elec       q    Type
REMARK                         _______ _______ _______ _____ _____    ______ ____
ROOT
ATOM      1  C   UNL     1       0.030  -0.220   2.569  0.00  0.00    +0.255 A 
ATOM      2  N   UNL     1       0.011   1.041   2.945  0.00  0.00    -0.107 NA
ATOM      3  N   UNL     1       0.025   1.100   4.230  0.00  0.00    -0.109 NA
ATOM      4  C   UNL     1       0.052  -0.107   4.723  0.00  0.00    +0.246 A 
ATOM      5  O   UNL     1       0.051  -0.970   3.690  0.00  0.00    -0.417 OA
ENDROOT
BRANCH   1  11
ATOM      6  C   UNL     1      -0.018   1.503   0.010  0.00  0.00    +0.045 C 
ATOM      7  C   UNL     1       0.002  -0.004   0.002  0.00  0.00    -0.031 A 
ATOM      8  C   UNL     1       0.006  -0.702  -1.183  0.00  0.00    +0.012 A 
ATOM      9  C   UNL     1       0.025  -2.060  -1.155  0.00  0.00    +0.046 A 
ATOM     10  S   UNL     1       0.038  -2.403   0.596  0.00  0.00    -0.092 S 
ATOM     11  C   UNL     1       0.023  -0.718   1.186  0.00  0.00    +0.079 A 
ENDBRANCH   1  11
BRANCH   4  12
ATOM     12  C   UNL     1       0.076  -0.470   6.185  0.00  0.00    +0.205 C 
ATOM     13  C   UNL     1      -1.322  -0.253   6.801  0.00  0.00    +0.043 C 
ATOM     14  C   UNL     1      -0.980   0.334   8.198  0.00  0.00    +0.031 C 
ATOM     15  C   UNL     1       0.291   1.156   7.868  0.00  0.00    +0.161 C 
ATOM     16  O   UNL     1       0.995   0.380   6.882  0.00  0.00    -0.367 OA
ENDBRANCH   4  12
TORSDOF 2
