REMARK  Name = ZINC09646073
REMARK  7 active torsions:
REMARK  status: ('A' for Active; 'I' for Inactive)
REMARK    1  A    between atoms: C_1  and  C_2
REMARK    2  A    between atoms: C_2  and  C_4
REMARK    3  A    between atoms: C_2  and  N_57
REMARK    4  A    between atoms: N_6  and  C_7
REMARK    5  A    between atoms: C_8  and  C_15
REMARK    6  A    between atoms: N_20  and  S_23
REMARK    7  A    between atoms: S_23  and  C_26
REMARK                            x       y       z     vdW  Elec       q    Type
REMARK                         _______ _______ _______ _____ _____    ______ ____
ROOT
ATOM      1  C   UNL     1      -1.668   0.750  -5.154  0.00  0.00    -0.004 C 
ATOM      2  C   UNL     1      -1.803   2.255  -4.912  0.00  0.00    +0.017 C 
ENDROOT
BRANCH   2   8
ATOM      3  C   UNL     1      -4.101   2.176  -5.670  0.00  0.00    -0.060 C 
ATOM      4  C   UNL     1      -5.139   2.907  -6.528  0.00  0.00    +0.091 C 
ATOM      5  N   UNL     1      -4.650   2.954  -7.915  0.00  0.00    -0.180 NA
ATOM      6  C   UNL     1      -3.289   3.455  -8.156  0.00  0.00    +0.091 C 
ATOM      7  C   UNL     1      -2.323   2.703  -7.234  0.00  0.00    -0.060 C 
ATOM      8  N   UNL     1      -2.792   2.844  -5.838  0.00  0.00    +0.389 N 
ATOM      9  H   UNL     1      -2.897   3.842  -5.622  0.00  0.00    -0.081 HD
BRANCH   5  10
ATOM     10  S   UNL     1      -5.608   2.457  -9.171  0.00  0.00    +0.061 S 
ATOM     11  O   UNL     1      -6.953   2.576  -8.728  0.00  0.00    -0.153 OA
ATOM     12  O   UNL     1      -5.128   3.117 -10.334  0.00  0.00    -0.153 OA
BRANCH  10  13
ATOM     13  C   UNL     1      -5.306   0.737  -9.407  0.00  0.00    +0.105 A 
ATOM     14  C   UNL     1      -4.314   0.322 -10.276  0.00  0.00    +0.028 A 
ATOM     15  C   UNL     1      -4.074  -1.027 -10.457  0.00  0.00    +0.002 A 
ATOM     16  C   UNL     1      -4.832  -1.961  -9.778  0.00  0.00    +0.000 A 
ATOM     17  C   UNL     1      -5.828  -1.547  -8.914  0.00  0.00    +0.002 A 
ATOM     18  C   UNL     1      -6.065  -0.198  -8.728  0.00  0.00    +0.028 A 
ENDBRANCH  10  13
ENDBRANCH   5  10
ENDBRANCH   2   8
BRANCH   2  19
ATOM     19  C   UNL     1      -2.257   2.497  -3.496  0.00  0.00    +0.204 C 
ATOM     20  O   UNL     1      -3.300   3.079  -3.285  0.00  0.00    -0.277 OA
ATOM     21  N   UNL     1      -1.504   2.067  -2.463  0.00  0.00    -0.281 N 
ATOM     22  H   UNL     1      -0.670   1.602  -2.632  0.00  0.00    +0.155 HD
BRANCH  21  23
ATOM     23  C   UNL     1      -1.923   2.290  -1.160  0.00  0.00    +0.084 A 
ATOM     24  C   UNL     1      -1.294   1.929   0.019  0.00  0.00    +0.068 A 
ATOM     25  C   UNL     1      -1.949   2.292   1.275  0.00  0.00    -0.023 A 
ATOM     26  C   UNL     1      -3.116   2.947   1.141  0.00  0.00    -0.004 A 
ATOM     27  S   UNL     1      -3.359   3.086  -0.613  0.00  0.00    -0.077 S 
ATOM     28  C   UNL     1      -3.727   3.290   2.473  0.00  0.00    +0.043 C 
ATOM     29  C   UNL     1      -2.568   3.137   3.483  0.00  0.00    +0.010 C 
ATOM     30  C   UNL     1      -1.659   2.119   2.766  0.00  0.00    +0.037 C 
BRANCH  24  31
ATOM     31  C   UNL     1      -0.014   1.213   0.009  0.00  0.00    +0.244 C 
ATOM     32  O   UNL     1       0.002  -0.004   0.002  0.00  0.00    -0.270 OA
ATOM     33  N   UNL     1       1.143   1.903   0.001  0.00  0.00    -0.325 N 
ATOM     34  H   UNL     1       1.990   1.429  -0.009  0.00  0.00    +0.145 HD
ATOM     35  H   UNL     1       1.130   2.873   0.007  0.00  0.00    +0.145 HD
ENDBRANCH  24  31
ENDBRANCH  21  23
ENDBRANCH   2  19
TORSDOF 6
