REMARK  Name = ZINC43760902
REMARK  8 active torsions:
REMARK  status: ('A' for Active; 'I' for Inactive)
REMARK    1  A    between atoms: C_1  and  C_2
REMARK    2  A    between atoms: C_2  and  C_8
REMARK    3  A    between atoms: N_3  and  N_4
REMARK    4  A    between atoms: C_14  and  C_35
REMARK    5  A    between atoms: N_26  and  N_27
REMARK    6  A    between atoms: C_33  and  C_34
REMARK    7  A    between atoms: C_37  and  C_39
REMARK    8  A    between atoms: C_37  and  C_40
REMARK                            x       y       z     vdW  Elec       q    Type
REMARK                         _______ _______ _______ _____ _____    ______ ____
ROOT
ATOM      1  C   UNL     1       0.044  -0.657  -1.355  0.00  0.00    +0.143 C 
ATOM      2  C   UNL     1      -1.342  -0.453  -2.096  0.00  0.00    +0.160 C 
ATOM      3  C   UNL     1      -2.296  -1.317  -1.303  0.00  0.00    +0.039 C 
ATOM      4  C   UNL     1      -1.398  -2.354  -0.614  0.00  0.00    +0.004 C 
ATOM      5  C   UNL     1       0.022  -2.146  -1.208  0.00  0.00    +0.008 C 
ATOM      6  C   UNL     1       0.988  -2.825  -0.261  0.00  0.00    +0.010 C 
ATOM      7  C   UNL     1       0.675  -4.336  -0.289  0.00  0.00    +0.005 C 
ATOM      8  C   UNL     1      -0.761  -4.631   0.090  0.00  0.00    +0.002 C 
ATOM      9  C   UNL     1      -1.817  -3.801  -0.626  0.00  0.00    -0.003 C 
ATOM     10  C   UNL     1      -2.282  -4.288  -1.975  0.00  0.00    +0.008 C 
ATOM     11  C   UNL     1      -1.771  -5.684  -2.313  0.00  0.00    +0.031 C 
ATOM     12  C   UNL     1      -1.890  -6.522  -1.065  0.00  0.00    -0.062 C 
ATOM     13  C   UNL     1      -2.682  -7.584  -1.035  0.00  0.00    +0.024 C 
ATOM     14  C   UNL     1      -2.833  -8.379   0.187  0.00  0.00    +0.059 C 
ATOM     15  N   UNL     1      -3.501  -9.495   0.152  0.00  0.00    -0.184 NA
ATOM     16  C   UNL     1      -2.233  -7.905   1.485  0.00  0.00    +0.058 C 
ATOM     17  C   UNL     1      -1.910  -6.413   1.403  0.00  0.00    +0.017 C 
ATOM     18  C   UNL     1      -1.088  -6.115   0.144  0.00  0.00    -0.007 C 
ATOM     19  C   UNL     1       0.195  -6.951   0.182  0.00  0.00    +0.016 C 
ATOM     20  C   UNL     1       0.212  -2.746  -2.600  0.00  0.00    +0.015 C 
ATOM     21  O   UNL     1      -1.333   0.959  -2.123  0.00  0.00    -0.343 OA
ATOM     22  C   UNL     1       0.012   1.211  -2.640  0.00  0.00    +0.166 C 
ATOM     23  O   UNL     1       0.859   0.110  -2.202  0.00  0.00    -0.334 OA
ATOM     24  C   UNL     1       0.544   2.540  -2.101  0.00  0.00    +0.074 C 
ATOM     25  C   UNL     1      -0.019   1.265  -4.170  0.00  0.00    +0.074 C 
ENDROOT
BRANCH  15  26
ATOM     26  N   UNL     1      -4.073  -9.933  -1.050  0.00  0.00    -0.191 N 
ATOM     27  C   UNL     1      -4.765 -11.089  -1.085  0.00  0.00    +0.317 C 
ATOM     28  O   UNL     1      -5.261 -11.468  -2.129  0.00  0.00    -0.251 OA
ATOM     29  N   UNL     1      -4.907 -11.824   0.035  0.00  0.00    -0.312 N 
ATOM     30  H   UNL     1      -3.971  -9.403  -1.856  0.00  0.00    +0.179 HD
ATOM     31  H   UNL     1      -4.511 -11.521   0.867  0.00  0.00    +0.147 HD
ATOM     32  H   UNL     1      -5.405 -12.656   0.010  0.00  0.00    +0.147 HD
ENDBRANCH  15  26
BRANCH   1  34
ATOM     33  C   UNL     1       1.159  -0.169   0.954  0.00  0.00    +0.065 C 
ATOM     34  C   UNL     1       0.003  -0.004   0.002  0.00  0.00    +0.069 C 
ATOM     35  N   UNL     1      -1.016   0.691   0.347  0.00  0.00    -0.185 NA
BRANCH  35  36
ATOM     36  N   UNL     1      -1.054   1.298   1.609  0.00  0.00    -0.191 N 
ATOM     37  C   UNL     1      -2.126   2.030   1.972  0.00  0.00    +0.317 C 
ATOM     38  O   UNL     1      -2.160   2.557   3.067  0.00  0.00    -0.251 OA
ATOM     39  N   UNL     1      -3.161   2.178   1.121  0.00  0.00    -0.312 N 
ATOM     40  H   UNL     1      -0.310   1.192   2.221  0.00  0.00    +0.179 HD
ATOM     41  H   UNL     1      -3.134   1.757   0.247  0.00  0.00    +0.147 HD
ATOM     42  H   UNL     1      -3.933   2.704   1.382  0.00  0.00    +0.147 HD
ENDBRANCH  35  36
ENDBRANCH   1  34
TORSDOF 3
