REMARK  Name = ZINC38564259
REMARK  10 active torsions:
REMARK  status: ('A' for Active; 'I' for Inactive)
REMARK    1  A    between atoms: C_1  and  C_2
REMARK    2  A    between atoms: C_2  and  O_3
REMARK    3  A    between atoms: O_3  and  C_4
REMARK    4  A    between atoms: C_9  and  C_10
REMARK    5  A    between atoms: C_12  and  C_24
REMARK    6  A    between atoms: N_26  and  C_27
REMARK    7  A    between atoms: C_27  and  C_28
REMARK    8  A    between atoms: C_28  and  C_29
REMARK    9  A    between atoms: C_32  and  O_35
REMARK   10  A    between atoms: O_35  and  C_36
REMARK                            x       y       z     vdW  Elec       q    Type
REMARK                         _______ _______ _______ _____ _____    ______ ____
ROOT
ATOM      1  C   UNL     1      -3.969  -1.536   0.032  0.00  0.00    +0.079 C 
ATOM      2  N   UNL     1      -3.835  -0.232   0.131  0.00  0.00    -0.244 NA
ATOM      3  C   UNL     1      -4.844   0.643   0.012  0.00  0.00    +0.126 C 
ATOM      4  C   UNL     1      -6.079   0.259  -0.516  0.00  0.00    +0.039 C 
ATOM      5  C   UNL     1      -6.260  -1.102  -0.712  0.00  0.00    -0.008 C 
ATOM      6  C   UNL     1      -7.123  -1.856  -1.463  0.00  0.00    +0.004 A 
ATOM      7  C   UNL     1      -8.329  -1.535  -2.128  0.00  0.00    +0.010 A 
ATOM      8  C   UNL     1      -8.923  -2.533  -2.843  0.00  0.00    +0.001 A 
ATOM      9  C   UNL     1      -8.401  -3.823  -2.941  0.00  0.00    +0.002 A 
ATOM     10  C   UNL     1      -7.259  -4.220  -2.315  0.00  0.00    +0.026 A 
ATOM     11  C   UNL     1      -6.585  -3.244  -1.528  0.00  0.00    +0.044 A 
ATOM     12  N   UNL     1      -5.516  -3.362  -0.779  0.00  0.00    -0.372 N 
ATOM     13  C   UNL     1      -5.334  -2.119  -0.070  0.00  0.00    +0.160 C 
ATOM     14  H   UNL     1      -4.947  -4.145  -0.715  0.00  0.00    +0.161 HD
ENDROOT
BRANCH   1  20
ATOM     15  C   UNL     1      -2.557  -3.305   1.071  0.00  0.00    +0.129 A 
ATOM     16  C   UNL     1      -1.440  -4.125   1.041  0.00  0.00    +0.046 A 
ATOM     17  C   UNL     1      -0.556  -4.053  -0.018  0.00  0.00    +0.004 A 
ATOM     18  C   UNL     1      -0.775  -3.163  -1.058  0.00  0.00    +0.001 A 
ATOM     19  C   UNL     1      -1.879  -2.340  -1.048  0.00  0.00    +0.013 A 
ATOM     20  C   UNL     1      -2.788  -2.405   0.016  0.00  0.00    +0.040 A 
BRANCH  15  21
ATOM     21  O   UNL     1      -3.426  -3.375   2.111  0.00  0.00    -0.492 OA
BRANCH  21  23
ATOM     22  C   UNL     1      -4.209  -4.248   4.223  0.00  0.00    +0.048 C 
ATOM     23  C   UNL     1      -3.125  -4.313   3.146  0.00  0.00    +0.226 C 
ENDBRANCH  21  23
ENDBRANCH  15  21
ENDBRANCH   1  20
BRANCH   3  24
ATOM     24  C   UNL     1      -4.646   2.043   0.450  0.00  0.00    +0.262 C 
ATOM     25  O   UNL     1      -5.553   2.846   0.347  0.00  0.00    -0.269 OA
ATOM     26  N   UNL     1      -3.460   2.428   0.961  0.00  0.00    -0.310 N 
ATOM     27  H   UNL     1      -2.736   1.787   1.043  0.00  0.00    +0.149 HD
BRANCH  26  28
ATOM     28  C   UNL     1      -3.264   3.813   1.394  0.00  0.00    +0.109 C 
BRANCH  28  29
ATOM     29  C   UNL     1      -1.841   3.983   1.931  0.00  0.00    +0.054 C 
BRANCH  29  30
ATOM     30  C   UNL     1      -1.639   5.409   2.376  0.00  0.00    -0.046 A 
ATOM     31  C   UNL     1      -1.172   6.352   1.480  0.00  0.00    +0.007 A 
ATOM     32  C   UNL     1      -0.986   7.660   1.886  0.00  0.00    +0.046 A 
ATOM     33  C   UNL     1      -1.268   8.026   3.194  0.00  0.00    +0.120 A 
ATOM     34  C   UNL     1      -1.737   7.077   4.091  0.00  0.00    +0.046 A 
ATOM     35  C   UNL     1      -1.927   5.772   3.679  0.00  0.00    +0.007 A 
BRANCH  33  36
ATOM     36  O   UNL     1      -1.085   9.311   3.596  0.00  0.00    -0.495 OA
ATOM     37  C   UNL     1      -1.397   9.616   4.957  0.00  0.00    +0.277 C 
ENDBRANCH  33  36
ENDBRANCH  29  30
ENDBRANCH  28  29
ENDBRANCH  26  28
ENDBRANCH   3  24
TORSDOF 8
