REMARK  Name = ZINC42398829
REMARK  10 active torsions:
REMARK  status: ('A' for Active; 'I' for Inactive)
REMARK    1  A    between atoms: C_1  and  C_2
REMARK    2  A    between atoms: C_2  and  O_3
REMARK    3  A    between atoms: O_3  and  C_4
REMARK    4  A    between atoms: C_7  and  C_10
REMARK    5  A    between atoms: C_10  and  C_12
REMARK    6  A    between atoms: C_10  and  N_14
REMARK    7  A    between atoms: C_12  and  N_13
REMARK    8  A    between atoms: N_14  and  C_15
REMARK    9  A    between atoms: N_14  and  C_16
REMARK   10  A    between atoms: C_16  and  C_17
REMARK                            x       y       z     vdW  Elec       q    Type
REMARK                         _______ _______ _______ _____ _____    ______ ____
ROOT
ATOM      1  C   UNL     1       0.649  -5.780  -1.446  0.00  0.00    +0.069 C 
ENDROOT
BRANCH   1   5
ATOM      2  C   UNL     1      -0.847  -1.786  -1.721  0.00  0.00    +0.121 A 
ATOM      3  C   UNL     1      -1.050  -2.526  -0.565  0.00  0.00    +0.046 A 
ATOM      4  C   UNL     1      -0.566  -3.817  -0.479  0.00  0.00    +0.009 A 
ATOM      5  C   UNL     1       0.121  -4.372  -1.543  0.00  0.00    -0.032 A 
ATOM      6  C   UNL     1       0.325  -3.636  -2.696  0.00  0.00    +0.009 A 
ATOM      7  C   UNL     1      -0.162  -2.347  -2.789  0.00  0.00    +0.046 A 
BRANCH   2   8
ATOM      8  O   UNL     1      -1.323  -0.516  -1.808  0.00  0.00    -0.492 OA
BRANCH   8  10
ATOM      9  C   UNL     1      -2.475   1.428  -0.952  0.00  0.00    +0.048 C 
ATOM     10  C   UNL     1      -2.018  -0.004  -0.669  0.00  0.00    +0.225 C 
ENDBRANCH   8  10
ENDBRANCH   2   8
ENDBRANCH   1   5
BRANCH   1  11
ATOM     11  N   UNL     1       0.595  -6.415  -2.770  0.00  0.00    -0.296 NA
ATOM     12  C   UNL     1       1.833  -6.168  -3.522  0.00  0.00    +0.105 C 
BRANCH  11  13
ATOM     13  C   UNL     1       0.329  -7.855  -2.653  0.00  0.00    +0.127 C 
BRANCH  13  14
ATOM     14  C   UNL     1      -0.112  -8.394  -3.990  0.00  0.00    +0.005 A 
ATOM     15  C   UNL     1       0.641  -8.911  -4.991  0.00  0.00    +0.027 A 
ATOM     16  C   UNL     1       0.015  -9.350  -6.143  0.00  0.00    +0.025 A 
ATOM     17  C   UNL     1      -1.334  -9.251  -6.236  0.00  0.00    +0.060 A 
ATOM     18  S   UNL     1      -1.760  -8.526  -4.661  0.00  0.00    -0.099 S 
ATOM     19 BR   UNL     1       1.024 -10.077  -7.567  0.00  0.00    -0.050 Br
ENDBRANCH  13  14
ENDBRANCH  11  13
ENDBRANCH   1  11
BRANCH   1  20
ATOM     20  C   UNL     1       2.097  -5.749  -0.953  0.00  0.00    -0.063 C 
BRANCH  20  21
ATOM     21  N   UNL     1       2.601  -7.124  -0.830  0.00  0.00    +0.379 N 
ATOM     22  H   UNL     1       2.703  -7.528  -1.749  0.00  0.00    -0.090 HD
ATOM     23  H   UNL     1       3.497  -7.113  -0.366  0.00  0.00    -0.090 HD
ATOM     24  H   UNL     1       1.950  -7.674  -0.291  0.00  0.00    -0.090 HD
ENDBRANCH  20  21
ENDBRANCH   1  20
TORSDOF 8
