REMARK  Name = ZINC63350757
REMARK  8 active torsions:
REMARK  status: ('A' for Active; 'I' for Inactive)
REMARK    1  A    between atoms: C_1  and  C_2
REMARK    2  A    between atoms: C_2  and  C_3
REMARK    3  A    between atoms: C_12  and  O_14
REMARK    4  A    between atoms: O_14  and  C_15
REMARK    5  A    between atoms: C_15  and  C_16
REMARK    6  A    between atoms: C_31  and  C_33
REMARK    7  A    between atoms: C_33  and  O_35
REMARK    8  A    between atoms: O_35  and  C_36
REMARK                            x       y       z     vdW  Elec       q    Type
REMARK                         _______ _______ _______ _____ _____    ______ ____
ROOT
ATOM      1  C   UNL     1      -7.401  -0.194   6.833  0.00  0.00    +0.254 C 
ATOM      2  O   UNL     1      -6.703  -0.088   7.819  0.00  0.00    -0.272 OA
ATOM      3  N   UNL     1      -8.135  -1.309   6.644  0.00  0.00    -0.283 N 
ATOM      4  C   UNL     1      -9.075  -1.379   5.514  0.00  0.00    +0.137 C 
ATOM      5  C   UNL     1      -8.659  -2.558   4.628  0.00  0.00    +0.124 C 
ATOM      6  C   UNL     1      -8.464  -3.751   5.555  0.00  0.00    -0.035 C 
ATOM      7  C   UNL     1      -9.255  -4.714   5.098  0.00  0.00    -0.001 A 
ATOM      8  C   UNL     1      -9.449  -6.108   5.528  0.00  0.00    +0.010 A 
ATOM      9  C   UNL     1     -10.367  -6.829   4.830  0.00  0.00    +0.001 A 
ATOM     10  C   UNL     1     -11.101  -6.308   3.761  0.00  0.00    +0.002 A 
ATOM     11  C   UNL     1     -10.984  -5.038   3.295  0.00  0.00    +0.026 A 
ATOM     12  C   UNL     1     -10.046  -4.185   3.946  0.00  0.00    +0.043 A 
ATOM     13  N   UNL     1      -9.716  -2.932   3.687  0.00  0.00    -0.376 N 
ATOM     14  C   UNL     1      -7.574  -3.694   6.773  0.00  0.00    +0.067 C 
ATOM     15  C   UNL     1      -7.984  -2.442   7.562  0.00  0.00    +0.189 C 
ATOM     16  H   UNL     1     -10.100  -2.356   3.008  0.00  0.00    +0.160 HD
ENDROOT
BRANCH  15  17
ATOM     17  C   UNL     1      -6.922  -2.124   8.583  0.00  0.00    +0.328 C 
ATOM     18  O   UNL     1      -5.766  -2.029   8.243  0.00  0.00    -0.249 OA
BRANCH  17  19
ATOM     19  O   UNL     1      -7.260  -1.947   9.870  0.00  0.00    -0.467 OA
ATOM     20  C   UNL     1      -6.202  -1.648  10.783  0.00  0.00    +0.280 C 
ENDBRANCH  17  19
ENDBRANCH  15  17
BRANCH   1  21
ATOM     21  C   UNL     1      -7.447   0.920   5.818  0.00  0.00    +0.324 C 
BRANCH  21  22
ATOM     22  O   UNL     1      -6.591   1.983   6.239  0.00  0.00    -0.481 OA
BRANCH  22  32
ATOM     23  C   UNL     1      -6.281   6.466   2.917  0.00  0.00    -0.030 A 
ATOM     24  C   UNL     1      -7.019   6.457   1.777  0.00  0.00    +0.096 A 
ATOM     25  C   UNL     1      -7.828   5.342   1.474  0.00  0.00    +0.337 A 
ATOM     26  O   UNL     1      -8.484   5.346   0.448  0.00  0.00    -0.245 OA
ATOM     27  O   UNL     1      -7.892   4.276   2.287  0.00  0.00    -0.422 OA
ATOM     28  C   UNL     1      -7.185   4.222   3.436  0.00  0.00    +0.143 A 
ATOM     29  C   UNL     1      -6.353   5.298   3.798  0.00  0.00    +0.022 A 
ATOM     30  C   UNL     1      -5.614   5.245   4.985  0.00  0.00    +0.035 A 
ATOM     31  C   UNL     1      -5.699   4.143   5.787  0.00  0.00    +0.083 A 
ATOM     32  C   UNL     1      -6.517   3.072   5.432  0.00  0.00    +0.143 A 
ATOM     33  C   UNL     1      -7.263   3.114   4.265  0.00  0.00    +0.094 A 
ATOM     34 CL   UNL     1      -4.782   4.076   7.260  0.00  0.00    -0.080 Cl
BRANCH  23  36
ATOM     35  C   UNL     1      -6.171   8.588   4.197  0.00  0.00    +0.009 C 
ATOM     36  C   UNL     1      -5.408   7.645   3.264  0.00  0.00    +0.033 C 
ENDBRANCH  23  36
ENDBRANCH  22  32
ENDBRANCH  21  22
ENDBRANCH   1  21
TORSDOF 6
