REMARK  Name = ZINC21264384
REMARK  11 active torsions:
REMARK  status: ('A' for Active; 'I' for Inactive)
REMARK    1  A    between atoms: C_1  and  C_2
REMARK    2  A    between atoms: C_2  and  C_24
REMARK    3  A    between atoms: C_4  and  N_10
REMARK    4  A    between atoms: C_6  and  C_8
REMARK    5  A    between atoms: C_6  and  C_9
REMARK    6  A    between atoms: N_10  and  C_11
REMARK    7  A    between atoms: C_11  and  N_13
REMARK    8  A    between atoms: N_13  and  C_14
REMARK    9  A    between atoms: N_13  and  C_17
REMARK   10  A    between atoms: C_14  and  C_15
REMARK   11  A    between atoms: C_17  and  C_18
REMARK                            x       y       z     vdW  Elec       q    Type
REMARK                         _______ _______ _______ _____ _____    ______ ____
ROOT
ATOM      1  N   UNL     1       0.389   5.051  -1.207  0.00  0.00    -0.324 N 
ATOM      2  H   UNL     1       0.608   5.617  -0.290  0.00  0.00    +0.148 HD
ENDROOT
BRANCH   1   6
ATOM      3  C   UNL     1      -0.944   0.975  -2.269  0.00  0.00    -0.010 C 
ATOM      4  C   UNL     1      -1.042   1.551  -0.852  0.00  0.00    -0.072 C 
ATOM      5  C   UNL     1      -1.022   3.076  -0.918  0.00  0.00    +0.009 C 
ATOM      6  C   UNL     1       0.396   3.583  -1.181  0.00  0.00    +0.069 C 
ATOM      7  C   UNL     1       1.298   3.104  -0.042  0.00  0.00    +0.009 C 
ATOM      8  C   UNL     1       1.320   1.577  -0.002  0.00  0.00    -0.072 C 
ATOM      9  N   UNL     1      -0.012   1.005   0.008  0.00  0.00    +0.386 N 
ATOM     10  C   UNL     1       2.035   1.156   1.301  0.00  0.00    -0.010 C 
ATOM     11  C   UNL     1       2.151   1.041  -1.172  0.00  0.00    -0.010 C 
ATOM     12  C   UNL     1      -2.415   1.129  -0.282  0.00  0.00    -0.010 C 
ATOM     13  H   UNL     1      -0.328   1.088   1.058  0.00  0.00    -0.084 HD
ATOM     14  H   UNL     1       0.152  -0.053  -0.244  0.00  0.00    -0.084 HD
ENDBRANCH   1   6
BRANCH   1  15
ATOM     15  C   UNL     1       0.113   5.703  -2.353  0.00  0.00    +0.134 C 
ATOM     16  S   UNL     1      -0.229   4.821  -3.780  0.00  0.00    -0.019 S 
BRANCH  15  17
ATOM     17  N   UNL     1       0.106   7.051  -2.376  0.00  0.00    -0.305 N 
BRANCH  17  18
ATOM     18  C   UNL     1       0.398   7.806  -1.155  0.00  0.00    +0.134 C 
BRANCH  18  19
ATOM     19  C   UNL     1       1.880   8.066  -1.068  0.00  0.00    -0.016 C 
ATOM     20  C   UNL     1       2.323   9.292  -0.934  0.00  0.00    +0.005 C 
ENDBRANCH  18  19
ENDBRANCH  17  18
BRANCH  17  21
ATOM     21  C   UNL     1      -0.194   7.761  -3.622  0.00  0.00    +0.142 C 
BRANCH  21  22
ATOM     22  C   UNL     1      -1.678   8.002  -3.718  0.00  0.00    -0.030 A 
ATOM     23  C   UNL     1      -2.493   7.069  -4.331  0.00  0.00    +0.005 A 
ATOM     24  C   UNL     1      -3.855   7.288  -4.414  0.00  0.00    +0.000 A 
ATOM     25  C   UNL     1      -4.401   8.447  -3.894  0.00  0.00    +0.000 A 
ATOM     26  C   UNL     1      -3.586   9.383  -3.286  0.00  0.00    +0.000 A 
ATOM     27  C   UNL     1      -2.224   9.161  -3.198  0.00  0.00    +0.005 A 
ENDBRANCH  21  22
ENDBRANCH  17  21
ENDBRANCH  15  17
ENDBRANCH   1  15
TORSDOF 7
