REMARK  Name = ZINC49560148
REMARK  8 active torsions:
REMARK  status: ('A' for Active; 'I' for Inactive)
REMARK    1  A    between atoms: C_1  and  C_2
REMARK    2  A    between atoms: C_5  and  C_8
REMARK    3  A    between atoms: C_8  and  C_10
REMARK    4  A    between atoms: C_8  and  N_11
REMARK    5  A    between atoms: C_13  and  C_20
REMARK    6  A    between atoms: C_14  and  C_19
REMARK    7  A    between atoms: C_16  and  C_18
REMARK    8  A    between atoms: C_20  and  N_22
REMARK                            x       y       z     vdW  Elec       q    Type
REMARK                         _______ _______ _______ _____ _____    ______ ____
ROOT
ATOM      1  N   UNL     1       0.962  -4.760   1.069  0.00  0.00    -0.323 N 
ATOM      2  C   UNL     1       1.549  -6.005   0.936  0.00  0.00    +0.107 A 
ATOM      3  C   UNL     1       2.494  -6.437   1.883  0.00  0.00    +0.044 A 
ATOM      4  C   UNL     1       3.074  -7.702   1.728  0.00  0.00    -0.036 A 
ATOM      5  C   UNL     1       2.690  -8.473   0.645  0.00  0.00    +0.025 A 
ATOM      6  C   UNL     1       1.754  -7.978  -0.245  0.00  0.00    +0.015 A 
ATOM      7  N   UNL     1       1.215  -6.786  -0.079  0.00  0.00    -0.347 N 
ATOM      8  C   UNL     1       1.338  -8.820  -1.424  0.00  0.00    +0.063 C 
ATOM      9  C   UNL     1       4.092  -8.211   2.716  0.00  0.00    +0.044 C 
ATOM     10  H   UNL     1       1.146  -4.218   1.852  0.00  0.00    +0.148 HD
ATOM     11  H   UNL     1       0.558  -6.472  -0.720  0.00  0.00    +0.167 HD
ENDROOT
BRANCH   1  12
ATOM     12  C   UNL     1       0.062  -4.260   0.027  0.00  0.00    +0.099 C 
ATOM     13  C   UNL     1      -1.351  -4.790   0.276  0.00  0.00    +0.033 C 
BRANCH  12  18
ATOM     14  C   UNL     1      -0.004   1.518   0.146  0.00  0.00    +0.044 C 
ATOM     15  C   UNL     1       0.013   0.011   0.115  0.00  0.00    -0.050 A 
ATOM     16  C   UNL     1       0.014  -0.655  -1.096  0.00  0.00    +0.004 A 
ATOM     17  C   UNL     1       0.030  -2.037  -1.125  0.00  0.00    +0.006 A 
ATOM     18  C   UNL     1       0.046  -2.753   0.058  0.00  0.00    -0.028 A 
ATOM     19  C   UNL     1       0.045  -2.087   1.269  0.00  0.00    +0.006 A 
ATOM     20  C   UNL     1       0.034  -0.705   1.298  0.00  0.00    +0.004 A 
ENDBRANCH  12  18
ENDBRANCH   1  12
BRANCH   3  21
ATOM     21  C   UNL     1       2.867  -5.576   3.018  0.00  0.00    +0.080 C 
ATOM     22  S   UNL     1       2.080  -5.759   4.527  0.00  0.00    -0.035 S 
BRANCH  21  23
ATOM     23  N   UNL     1       3.828  -4.643   2.868  0.00  0.00    -0.352 N 
ATOM     24  H   UNL     1       4.324  -4.587   2.036  0.00  0.00    +0.143 HD
ATOM     25  H   UNL     1       4.023  -4.027   3.591  0.00  0.00    +0.143 HD
ENDBRANCH  21  23
ENDBRANCH   3  21
TORSDOF 4
