REMARK  Name = ZINC62099790
REMARK  4 active torsions:
REMARK  status: ('A' for Active; 'I' for Inactive)
REMARK    1  A    between atoms: C_5  and  C_6
REMARK    2  A    between atoms: C_6  and  C_8
REMARK    3  A    between atoms: C_6  and  N_10
REMARK    4  A    between atoms: C_8  and  N_9
REMARK                            x       y       z     vdW  Elec       q    Type
REMARK                         _______ _______ _______ _____ _____    ______ ____
ROOT
ATOM      1  C   UNL     1      -1.156  -0.969   0.008  0.00  0.00    +0.076 C 
ENDROOT
BRANCH   1   2
ATOM      2  N   UNL     1      -1.001  -2.146  -0.856  0.00  0.00    -0.295 NA
ATOM      3  C   UNL     1      -0.041  -3.084  -0.294  0.00  0.00    +0.094 C 
ATOM      4  C   UNL     1      -0.171  -4.457  -0.960  0.00  0.00    +0.111 C 
ATOM      5  C   UNL     1       0.639  -4.445  -2.240  0.00  0.00    +0.214 C 
ATOM      6  O   UNL     1       1.658  -5.098  -2.320  0.00  0.00    -0.276 OA
ATOM      7  N   UNL     1       0.228  -3.716  -3.281  0.00  0.00    -0.314 N 
ATOM      8  C   UNL     1      -1.013  -2.928  -3.188  0.00  0.00    +0.119 C 
ATOM      9  C   UNL     1      -0.773  -1.752  -2.239  0.00  0.00    +0.103 C 
ATOM     10  H   UNL     1       0.747  -3.705  -4.100  0.00  0.00    +0.149 HD
ENDBRANCH   1   2
BRANCH   1  15
ATOM     11  C   UNL     1       0.260   1.193  -0.053  0.00  0.00    +0.028 A 
ATOM     12  C   UNL     1       1.535   1.727  -0.076  0.00  0.00    +0.025 A 
ATOM     13  C   UNL     1       2.600   0.887  -0.065  0.00  0.00    +0.060 A 
ATOM     14  S   UNL     1       1.807  -0.713  -0.022  0.00  0.00    -0.099 S 
ATOM     15  C   UNL     1       0.112  -0.154  -0.021  0.00  0.00    +0.006 A 
ATOM     16 BR   UNL     1       1.791   3.600  -0.122  0.00  0.00    -0.050 Br
ENDBRANCH   1  15
BRANCH   1  17
ATOM     17  C   UNL     1      -1.437  -1.423   1.442  0.00  0.00    -0.062 C 
BRANCH  17  18
ATOM     18  N   UNL     1      -2.593  -2.329   1.451  0.00  0.00    +0.379 N 
ATOM     19  H   UNL     1      -3.401  -1.846   1.086  0.00  0.00    -0.090 HD
ATOM     20  H   UNL     1      -2.394  -3.134   0.876  0.00  0.00    -0.090 HD
ATOM     21  H   UNL     1      -2.779  -2.628   2.397  0.00  0.00    -0.090 HD
ENDBRANCH  17  18
ENDBRANCH   1  17
TORSDOF 4
