REMARK  Name = ZINC59304075
REMARK  9 active torsions:
REMARK  status: ('A' for Active; 'I' for Inactive)
REMARK    1  A    between atoms: C_1  and  C_2
REMARK    2  A    between atoms: C_5  and  C_29
REMARK    3  A    between atoms: N_6  and  C_7
REMARK    4  A    between atoms: C_10  and  C_13
REMARK    5  A    between atoms: N_15  and  N_16
REMARK    6  A    between atoms: C_17  and  C_18
REMARK    7  A    between atoms: C_23  and  O_24
REMARK    8  A    between atoms: O_24  and  C_25
REMARK    9  A    between atoms: C_25  and  C_26
REMARK                            x       y       z     vdW  Elec       q    Type
REMARK                         _______ _______ _______ _____ _____    ______ ____
ROOT
ATOM      1  C   UNL     1      -0.233  -0.295   2.394  0.00  0.00    +0.047 A 
ATOM      2  C   UNL     1       0.843  -0.362   3.273  0.00  0.00    +0.027 A 
ATOM      3  C   UNL     1       0.712   0.108   4.561  0.00  0.00    +0.015 A 
ATOM      4  C   UNL     1      -0.504   0.653   4.984  0.00  0.00    +0.038 A 
ATOM      5  C   UNL     1      -1.582   0.718   4.097  0.00  0.00    +0.015 A 
ATOM      6  C   UNL     1      -1.443   0.251   2.810  0.00  0.00    +0.027 A 
ENDROOT
BRANCH   1  12
ATOM      7  C   UNL     1      -0.260   1.487  -0.098  0.00  0.00    +0.064 C 
ATOM      8  C   UNL     1      -0.103  -0.011  -0.045  0.00  0.00    +0.021 A 
ATOM      9  C   UNL     1       0.059  -0.826  -1.110  0.00  0.00    +0.023 A 
ATOM     10  C   UNL     1       0.166  -2.142  -0.630  0.00  0.00    +0.028 A 
ATOM     11  C   UNL     1       0.064  -2.090   0.728  0.00  0.00    +0.054 A 
ATOM     12  N   UNL     1      -0.096  -0.773   1.088  0.00  0.00    -0.313 N 
BRANCH  11  13
ATOM     13  C   UNL     1       0.122  -3.244   1.650  0.00  0.00    -0.001 A 
ATOM     14  C   UNL     1      -0.389  -3.133   2.944  0.00  0.00    +0.010 A 
ATOM     15  C   UNL     1      -0.332  -4.214   3.799  0.00  0.00    +0.001 A 
ATOM     16  C   UNL     1       0.231  -5.405   3.377  0.00  0.00    +0.000 A 
ATOM     17  C   UNL     1       0.739  -5.521   2.096  0.00  0.00    +0.001 A 
ATOM     18  C   UNL     1       0.683  -4.450   1.228  0.00  0.00    +0.010 A 
ENDBRANCH  11  13
ENDBRANCH   1  12
BRANCH   4  19
ATOM     19  C   UNL     1      -0.648   1.157   6.363  0.00  0.00    +0.263 C 
ATOM     20  O   UNL     1       0.291   1.099   7.133  0.00  0.00    -0.268 OA
ATOM     21  N   UNL     1      -1.821   1.682   6.769  0.00  0.00    -0.203 N 
ATOM     22  H   UNL     1      -2.571   1.728   6.155  0.00  0.00    +0.178 HD
BRANCH  21  23
ATOM     23  N   UNL     1      -1.958   2.161   8.079  0.00  0.00    -0.187 NA
ATOM     24  C   UNL     1      -3.088   2.666   8.470  0.00  0.00    +0.142 C 
BRANCH  24  25
ATOM     25  C   UNL     1      -3.233   3.170   9.847  0.00  0.00    +0.037 A 
ATOM     26  C   UNL     1      -4.448   3.710  10.274  0.00  0.00    +0.028 A 
ATOM     27  C   UNL     1      -4.577   4.179  11.565  0.00  0.00    +0.019 A 
ATOM     28  C   UNL     1      -3.504   4.118  12.440  0.00  0.00    +0.019 A 
ATOM     29  C   UNL     1      -2.296   3.587  12.029  0.00  0.00    +0.047 A 
ATOM     30  C   UNL     1      -2.152   3.105  10.738  0.00  0.00    +0.131 A 
ATOM     31 BR   UNL     1      -6.222   4.910  12.142  0.00  0.00    -0.050 Br
BRANCH  30  32
ATOM     32  O   UNL     1      -0.968   2.577  10.336  0.00  0.00    -0.477 OA
BRANCH  32  33
ATOM     33  C   UNL     1       0.088   2.543  11.298  0.00  0.00    +0.346 C 
BRANCH  33  34
ATOM     34  C   UNL     1       1.287   1.943  10.691  0.00  0.00    +0.104 C 
ATOM     35  N   UNL     1       2.212   1.479  10.222  0.00  0.00    -0.193 NA
ENDBRANCH  33  34
ENDBRANCH  32  33
ENDBRANCH  30  32
ENDBRANCH  24  25
ENDBRANCH  21  23
ENDBRANCH   4  19
TORSDOF 8
