REMARK  Name = ZINC12309415
REMARK  10 active torsions:
REMARK  status: ('A' for Active; 'I' for Inactive)
REMARK    1  A    between atoms: C_1  and  C_2
REMARK    2  A    between atoms: C_8  and  N_9
REMARK    3  A    between atoms: N_9  and  O_10
REMARK    4  A    between atoms: O_10  and  C_11
REMARK    5  A    between atoms: C_11  and  C_12
REMARK    6  A    between atoms: N_14  and  C_15
REMARK    7  A    between atoms: C_15  and  C_16
REMARK    8  A    between atoms: C_15  and  C_17
REMARK    9  A    between atoms: N_20  and  C_25
REMARK   10  A    between atoms: N_23  and  C_24
REMARK                            x       y       z     vdW  Elec       q    Type
REMARK                         _______ _______ _______ _____ _____    ______ ____
ROOT
ATOM      1  C   UNL     1       1.271   0.271   4.878  0.00  0.00    +0.047 C 
ATOM      2  C   UNL     1      -0.054   0.987   4.827  0.00  0.00    -0.008 A 
ATOM      3  C   UNL     1      -0.772   1.184   5.944  0.00  0.00    +0.089 A 
ATOM      4  N   UNL     1      -1.981   1.827   5.923  0.00  0.00    -0.347 N 
ATOM      5  H   UNL     1      -2.648   1.772   6.795  0.00  0.00    +0.167 HD
ATOM      6  C   UNL     1      -2.398   2.545   4.846  0.00  0.00    +0.129 A 
ATOM      7  C   UNL     1      -1.737   2.415   3.627  0.00  0.00    +0.106 A 
ATOM      8  C   UNL     1      -0.592   1.488   3.546  0.00  0.00    +0.081 A 
ATOM      9  C   UNL     1      -2.185   3.155   2.510  0.00  0.00    +0.268 A 
ATOM     10  O   UNL     1      -1.626   3.051   1.433  0.00  0.00    -0.267 OA
ATOM     11  N   UNL     1      -3.240   3.985   2.661  0.00  0.00    -0.263 N 
ATOM     12  C   UNL     1      -3.858   4.103   3.849  0.00  0.00    +0.333 A 
ATOM     13  O   UNL     1      -4.803   4.860   3.950  0.00  0.00    -0.246 OA
ATOM     14  N   UNL     1      -3.461   3.407   4.931  0.00  0.00    -0.282 N 
ATOM     15  C   UNL     1      -4.168   3.571   6.203  0.00  0.00    +0.155 C 
ATOM     16  C   UNL     1      -3.717   4.766   1.517  0.00  0.00    +0.157 C 
ENDROOT
BRANCH   8  17
ATOM     17  N   UNL     1      -0.073   1.130   2.393  0.00  0.00    -0.264 N 
ATOM     18  H   UNL     1       0.966   0.773   2.344  0.00  0.00    +0.194 HD
BRANCH  17  19
ATOM     19  O   UNL     1      -0.852   1.205   1.213  0.00  0.00    -0.265 OA
BRANCH  19  20
ATOM     20  C   UNL     1      -0.163   0.786   0.034  0.00  0.00    +0.288 C 
BRANCH  20  21
ATOM     21  C   UNL     1      -1.081   0.907  -1.155  0.00  0.00    +0.242 C 
ATOM     22  O   UNL     1      -2.215   1.312  -1.007  0.00  0.00    -0.273 OA
ATOM     23  N   UNL     1      -0.643   0.565  -2.383  0.00  0.00    -0.311 N 
ATOM     24  H   UNL     1       0.385   0.197  -2.517  0.00  0.00    +0.149 HD
BRANCH  23  25
ATOM     25  C   UNL     1      -1.536   0.682  -3.538  0.00  0.00    +0.067 C 
ATOM     26  C   UNL     1      -1.484   2.112  -4.080  0.00  0.00    +0.027 C 
ATOM     27  C   UNL     1      -1.088  -0.293  -4.630  0.00  0.00    +0.027 C 
ENDBRANCH  23  25
ENDBRANCH  20  21
ENDBRANCH  19  20
ENDBRANCH  17  19
ENDBRANCH   8  17
TORSDOF 5
