REMARK  Name = ZINC03999554
REMARK  5 active torsions:
REMARK  status: ('A' for Active; 'I' for Inactive)
REMARK    1  A    between atoms: C_3  and  N_22
REMARK    2  A    between atoms: C_6  and  C_7
REMARK    3  A    between atoms: C_7  and  C_9
REMARK    4  A    between atoms: C_9  and  C_10
REMARK    5  A    between atoms: C_10  and  O_21
REMARK                            x       y       z     vdW  Elec       q    Type
REMARK                         _______ _______ _______ _____ _____    ______ ____
ROOT
ATOM      1  C   UNL     1       0.839   3.549   0.013  0.00  0.00    +0.175 C 
ATOM      2  C   UNL     1       1.189   2.079   0.002  0.00  0.00    +0.015 A 
ATOM      3  C   UNL     1       2.388   1.402  -0.013  0.00  0.00    +0.024 A 
ATOM      4  C   UNL     1       2.399   0.017  -0.021  0.00  0.00    +0.018 A 
ATOM      5  C   UNL     1       1.204  -0.680  -0.013  0.00  0.00    +0.017 A 
ATOM      6  C   UNL     1       0.002  -0.004   0.002  0.00  0.00    +0.025 A 
ATOM      7  C   UNL     1      -0.017   1.389   0.010  0.00  0.00    +0.040 A 
ATOM      8  N   UNL     1      -1.085   2.287   0.019  0.00  0.00    -0.282 N 
ATOM      9  C   UNL     1      -0.675   3.567   0.027  0.00  0.00    +0.254 C 
ATOM     10  O   UNL     1      -1.383   4.551   0.039  0.00  0.00    -0.272 OA
ATOM     11 BR   UNL     1       4.043  -0.918  -0.041  0.00  0.00    -0.050 Br
ATOM     12  H   UNL     1      -2.017   2.018   0.022  0.00  0.00    +0.155 HD
ENDROOT
BRANCH   1  13
ATOM     13  O   UNL     1       1.339   4.191  -1.162  0.00  0.00    -0.374 OA
ATOM     14  H   UNL     1       1.143   5.137  -1.207  0.00  0.00    +0.211 HD
ENDBRANCH   1  13
BRANCH   1  15
ATOM     15  C   UNL     1       1.395   4.223   1.268  0.00  0.00    +0.129 C 
BRANCH  15  16
ATOM     16  C   UNL     1       0.930   5.656   1.317  0.00  0.00    +0.167 C 
ATOM     17  O   UNL     1       0.223   6.094   0.434  0.00  0.00    -0.292 OA
BRANCH  16  23
ATOM     18  C   UNL     1       2.143   6.014   3.457  0.00  0.00    +0.013 A 
ATOM     19  C   UNL     1       2.519   6.823   4.490  0.00  0.00    +0.023 A 
ATOM     20  C   UNL     1       2.088   8.147   4.533  0.00  0.00    +0.025 A 
ATOM     21  C   UNL     1       1.277   8.653   3.520  0.00  0.00    +0.023 A 
ATOM     22  C   UNL     1       0.901   7.852   2.480  0.00  0.00    +0.013 A 
ATOM     23  C   UNL     1       1.332   6.520   2.433  0.00  0.00    +0.018 A 
BRANCH  20  24
ATOM     24  N   UNL     1       2.469   8.966   5.589  0.00  0.00    -0.358 N 
ATOM     25  H   UNL     1       2.170   9.888   5.620  0.00  0.00    +0.142 HD
ATOM     26  H   UNL     1       3.034   8.615   6.295  0.00  0.00    +0.142 HD
ENDBRANCH  20  24
ENDBRANCH  16  23
ENDBRANCH  15  16
ENDBRANCH   1  15
TORSDOF 5
