REMARK  Name = ZINC24990276
REMARK  10 active torsions:
REMARK  status: ('A' for Active; 'I' for Inactive)
REMARK    1  A    between atoms: C_1  and  C_2
REMARK    2  A    between atoms: C_6  and  C_8
REMARK    3  A    between atoms: N_10  and  N_11
REMARK    4  A    between atoms: C_12  and  C_14
REMARK    5  A    between atoms: C_14  and  C_16
REMARK    6  A    between atoms: C_14  and  N_17
REMARK    7  A    between atoms: N_17  and  C_18
REMARK    8  A    between atoms: N_17  and  C_19
REMARK    9  A    between atoms: C_19  and  C_20
REMARK   10  A    between atoms: N_22  and  C_23
REMARK                            x       y       z     vdW  Elec       q    Type
REMARK                         _______ _______ _______ _____ _____    ______ ____
ROOT
ATOM      1  C   UNL     1       2.198   9.617   0.039  0.00  0.00    +0.018 C 
ATOM      2  C   UNL     1       1.537  10.186  -1.218  0.00  0.00    -0.004 C 
ENDROOT
BRANCH   1   4
ATOM      3  N   UNL     1       1.069   7.417  -0.008  0.00  0.00    -0.235 N 
ATOM      4  C   UNL     1       2.223   8.113  -0.044  0.00  0.00    +0.215 C 
ATOM      5  O   UNL     1       3.281   7.528  -0.142  0.00  0.00    -0.276 OA
ATOM      6  H   UNL     1       0.110   7.947   0.081  0.00  0.00    +0.173 HD
BRANCH   3   9
ATOM      7  C   UNL     1      -0.061   5.322  -0.050  0.00  0.00    +0.260 C 
ATOM      8  O   UNL     1      -1.122   5.908   0.049  0.00  0.00    -0.269 OA
ATOM      9  N   UNL     1       1.092   6.018  -0.085  0.00  0.00    -0.230 N 
ATOM     10  H   UNL     1       2.052   5.488  -0.174  0.00  0.00    +0.173 HD
BRANCH   7  16
ATOM     11  C   UNL     1      -2.488   0.963  -0.144  0.00  0.00    +0.044 C 
ATOM     12  C   UNL     1      -1.201   1.746  -0.176  0.00  0.00    -0.050 A 
ATOM     13  C   UNL     1       0.009   1.081  -0.283  0.00  0.00    +0.003 A 
ATOM     14  C   UNL     1       1.194   1.793  -0.319  0.00  0.00    +0.001 A 
ATOM     15  C   UNL     1       1.179   3.170  -0.244  0.00  0.00    +0.013 A 
ATOM     16  C   UNL     1      -0.037   3.846  -0.131  0.00  0.00    +0.038 A 
ATOM     17  C   UNL     1      -1.230   3.122  -0.094  0.00  0.00    +0.016 A 
ENDBRANCH   7  16
ENDBRANCH   3   9
ENDBRANCH   1   4
BRANCH   1  18
ATOM     18  N   UNL     1       3.573  10.125   0.141  0.00  0.00    +0.391 N 
ATOM     19  C   UNL     1       3.586  11.527   0.580  0.00  0.00    -0.094 C 
ATOM     20  H   UNL     1       4.098   9.528   0.902  0.00  0.00    -0.080 HD
BRANCH  18  21
ATOM     21  C   UNL     1       4.289   9.965  -1.131  0.00  0.00    +0.020 C 
BRANCH  21  22
ATOM     22  C   UNL     1       5.752  10.263  -0.925  0.00  0.00    +0.201 C 
ATOM     23  O   UNL     1       6.158  10.578   0.173  0.00  0.00    -0.278 OA
ATOM     24  N   UNL     1       6.609  10.180  -1.962  0.00  0.00    -0.287 N 
ATOM     25  H   UNL     1       6.257   9.819  -2.940  0.00  0.00    +0.155 HD
BRANCH  24  26
ATOM     26  C   UNL     1       7.948  10.552  -1.795  0.00  0.00    +0.035 A 
ATOM     27  C   UNL     1       8.635  11.162  -2.837  0.00  0.00    +0.025 A 
ATOM     28  C   UNL     1       9.954  11.536  -2.667  0.00  0.00    +0.023 A 
ATOM     29  C   UNL     1      10.595  11.291  -1.466  0.00  0.00    +0.059 A 
ATOM     30  C   UNL     1       9.915  10.677  -0.428  0.00  0.00    +0.061 A 
ATOM     31  C   UNL     1       8.592  10.308  -0.590  0.00  0.00    +0.044 A 
ATOM     32 CL   UNL     1      10.722  10.372   1.079  0.00  0.00    -0.082 Cl
ATOM     33 CL   UNL     1      12.256  11.754  -1.260  0.00  0.00    -0.082 Cl
ENDBRANCH  24  26
ENDBRANCH  21  22
ENDBRANCH  18  21
ENDBRANCH   1  18
TORSDOF 7
