REMARK  Name = ZINC67407811
REMARK  12 active torsions:
REMARK  status: ('A' for Active; 'I' for Inactive)
REMARK    1  A    between atoms: C_1  and  C_2
REMARK    2  A    between atoms: C_2  and  C_3
REMARK    3  A    between atoms: C_2  and  C_4
REMARK    4  A    between atoms: C_4  and  C_5
REMARK    5  A    between atoms: C_5  and  C_6
REMARK    6  A    between atoms: N_8  and  N_9
REMARK    7  A    between atoms: N_12  and  C_13
REMARK    8  A    between atoms: C_13  and  C_14
REMARK    9  A    between atoms: C_14  and  C_16
REMARK   10  A    between atoms: C_14  and  N_24
REMARK   11  A    between atoms: C_21  and  O_22
REMARK   12  A    between atoms: O_22  and  C_23
REMARK                            x       y       z     vdW  Elec       q    Type
REMARK                         _______ _______ _______ _____ _____    ______ ____
ROOT
ATOM      1  C   UNL     1      -3.692  -7.867  -0.371  0.00  0.00    +0.095 C 
ENDROOT
BRANCH   1   5
ATOM      2  N   UNL     1      -6.154  -6.590  -2.785  0.00  0.00    -0.218 N 
ATOM      3  C   UNL     1      -5.506  -6.835  -1.629  0.00  0.00    +0.316 C 
ATOM      4  O   UNL     1      -5.921  -6.364  -0.588  0.00  0.00    -0.251 OA
ATOM      5  N   UNL     1      -4.397  -7.601  -1.628  0.00  0.00    -0.299 N 
ATOM      6  H   UNL     1      -6.952  -6.039  -2.787  0.00  0.00    +0.174 HD
ATOM      7  H   UNL     1      -4.066  -7.977  -2.458  0.00  0.00    +0.150 HD
BRANCH   2  10
ATOM      8  C   UNL     1      -6.324  -6.889  -5.141  0.00  0.00    +0.229 C 
ATOM      9  O   UNL     1      -7.322  -6.199  -5.143  0.00  0.00    -0.274 OA
ATOM     10  N   UNL     1      -5.676  -7.133  -3.985  0.00  0.00    -0.233 N 
ATOM     11  H   UNL     1      -4.878  -7.685  -3.984  0.00  0.00    +0.173 HD
BRANCH   8  12
ATOM     12  C   UNL     1      -5.810  -7.473  -6.432  0.00  0.00    +0.097 C 
BRANCH  12  13
ATOM     13  C   UNL     1      -6.722  -7.045  -7.584  0.00  0.00    +0.012 C 
BRANCH  13  15
ATOM     14  C   UNL     1      -7.178  -7.316 -10.025  0.00  0.00    +0.007 C 
ATOM     15  C   UNL     1      -6.199  -7.638  -8.894  0.00  0.00    -0.017 C 
ATOM     16  C   UNL     1      -4.830  -7.036  -9.216  0.00  0.00    +0.007 C 
ENDBRANCH  13  15
ENDBRANCH  12  13
ENDBRANCH   8  12
ENDBRANCH   2  10
ENDBRANCH   1   5
BRANCH   1  17
ATOM     17  C   UNL     1      -2.550  -8.853  -0.626  0.00  0.00    -0.017 C 
BRANCH  17  18
ATOM     18  N   UNL     1      -1.682  -8.332  -1.690  0.00  0.00    +0.385 N 
ATOM     19  C   UNL     1      -0.524  -9.219  -1.853  0.00  0.00    -0.078 C 
ATOM     20  C   UNL     1       0.342  -8.726  -3.014  0.00  0.00    -0.019 C 
ATOM     21  C   UNL     1       0.824  -7.303  -2.717  0.00  0.00    -0.004 C 
ATOM     22  C   UNL     1      -0.392  -6.403  -2.476  0.00  0.00    -0.019 C 
ATOM     23  C   UNL     1      -1.230  -6.982  -1.335  0.00  0.00    -0.078 C 
ATOM     24  H   UNL     1      -2.199  -8.296  -2.556  0.00  0.00    -0.081 HD
ENDBRANCH  17  18
BRANCH  17  25
ATOM     25  C   UNL     1      -3.119 -10.183  -1.047  0.00  0.00    -0.018 A 
ATOM     26  C   UNL     1      -3.142 -10.534  -2.383  0.00  0.00    +0.005 A 
ATOM     27  C   UNL     1      -3.664 -11.754  -2.771  0.00  0.00    +0.000 A 
ATOM     28  C   UNL     1      -4.165 -12.626  -1.822  0.00  0.00    +0.004 A 
ATOM     29  C   UNL     1      -4.145 -12.281  -0.485  0.00  0.00    +0.046 A 
ATOM     30  C   UNL     1      -3.616 -11.059  -0.093  0.00  0.00    +0.122 A 
BRANCH  30  31
ATOM     31  O   UNL     1      -3.590 -10.719   1.222  0.00  0.00    -0.495 OA
ATOM     32  C   UNL     1      -4.119 -11.670   2.149  0.00  0.00    +0.277 C 
ENDBRANCH  30  31
ENDBRANCH  17  25
ENDBRANCH   1  17
TORSDOF 9
