REMARK  Name = ZINC12860511
REMARK  18 active torsions:
REMARK  status: ('A' for Active; 'I' for Inactive)
REMARK    1  A    between atoms: C_1  and  C_2
REMARK    2  A    between atoms: C_2  and  C_3
REMARK    3  A    between atoms: C_2  and  C_4
REMARK    4  A    between atoms: C_4  and  C_5
REMARK    5  A    between atoms: C_5  and  C_7
REMARK    6  A    between atoms: C_5  and  N_33
REMARK    7  A    between atoms: C_12  and  C_15
REMARK    8  A    between atoms: N_17  and  C_18
REMARK    9  A    between atoms: C_18  and  C_20
REMARK   10  A    between atoms: C_18  and  C_23
REMARK   11  A    between atoms: C_20  and  C_21
REMARK   12  A    between atoms: C_20  and  C_22
REMARK   13  A    between atoms: N_25  and  C_26
REMARK   14  A    between atoms: C_34  and  O_36
REMARK   15  A    between atoms: O_36  and  C_37
REMARK   16  A    between atoms: C_37  and  C_38
REMARK   17  A    between atoms: C_37  and  C_39
REMARK   18  A    between atoms: C_37  and  C_40
REMARK                            x       y       z     vdW  Elec       q    Type
REMARK                         _______ _______ _______ _____ _____    ______ ____
ROOT
ATOM      1  C   UNL     1       1.261  -2.877  -1.288  0.00  0.00    +0.236 C 
ATOM      2  O   UNL     1       0.389  -3.432  -0.654  0.00  0.00    -0.274 OA
ATOM      3  N   UNL     1       2.025  -1.934  -0.702  0.00  0.00    -0.300 N 
ATOM      4  C   UNL     1       1.744  -1.490   0.670  0.00  0.00    +0.108 C 
ATOM      5  C   UNL     1       1.606   0.036   0.676  0.00  0.00    +0.032 C 
ATOM      6  C   UNL     1       2.859   0.660   0.058  0.00  0.00    +0.078 C 
ATOM      7  C   UNL     1       3.000   0.193  -1.393  0.00  0.00    +0.032 C 
ATOM      8  C   UNL     1       3.154  -1.331  -1.423  0.00  0.00    +0.108 C 
ENDROOT
BRANCH   6   9
ATOM      9  C   UNL     1       2.742   2.162   0.093  0.00  0.00    +0.217 C 
ATOM     10  O   UNL     1       1.751   2.682   0.561  0.00  0.00    -0.275 OA
ATOM     11  N   UNL     1       3.735   2.927  -0.402  0.00  0.00    -0.304 N 
ATOM     12  H   UNL     1       4.525   2.511  -0.780  0.00  0.00    +0.149 HD
BRANCH  11  13
ATOM     13  C   UNL     1       3.621   4.387  -0.367  0.00  0.00    +0.162 C 
BRANCH  13  14
ATOM     14  C   UNL     1       4.473   4.983  -1.458  0.00  0.00    +0.238 C 
ATOM     15  O   UNL     1       5.214   4.274  -2.105  0.00  0.00    -0.273 OA
ATOM     16  N   UNL     1       4.411   6.305  -1.715  0.00  0.00    -0.284 N 
ATOM     17  H   UNL     1       3.880   6.885  -1.147  0.00  0.00    +0.155 HD
BRANCH  16  18
ATOM     18  C   UNL     1       5.113   6.840  -2.802  0.00  0.00    +0.034 A 
ATOM     19  C   UNL     1       5.684   8.102  -2.707  0.00  0.00    +0.026 A 
ATOM     20  C   UNL     1       6.382   8.626  -3.778  0.00  0.00    +0.040 A 
ATOM     21  C   UNL     1       6.500   7.899  -4.950  0.00  0.00    +0.124 A 
ATOM     22  C   UNL     1       5.926   6.643  -5.049  0.00  0.00    +0.040 A 
ATOM     23  C   UNL     1       5.233   6.113  -3.978  0.00  0.00    +0.026 A 
ATOM     24  F   UNL     1       7.178   8.415  -5.999  0.00  0.00    -0.205 F 
ENDBRANCH  16  18
ENDBRANCH  13  14
BRANCH  13  25
ATOM     25  C   UNL     1       4.097   4.904   0.992  0.00  0.00    +0.012 C 
ATOM     26  C   UNL     1       3.133   4.433   2.083  0.00  0.00    +0.009 C 
ATOM     27  C   UNL     1       5.498   4.363   1.281  0.00  0.00    +0.009 C 
ENDBRANCH  13  25
ENDBRANCH  11  13
ENDBRANCH   6   9
BRANCH   1  28
ATOM     28  C   UNL     1       1.490  -3.242  -2.733  0.00  0.00    +0.162 C 
BRANCH  28  29
ATOM     29  N   UNL     1       0.649  -4.388  -3.087  0.00  0.00    -0.270 N 
ATOM     30  C   UNL     1       0.986  -5.175  -4.128  0.00  0.00    +0.401 C 
ATOM     31  O   UNL     1       2.032  -4.989  -4.716  0.00  0.00    -0.226 OA
ATOM     32  H   UNL     1      -0.150  -4.580  -2.571  0.00  0.00    +0.153 HD
BRANCH  30  33
ATOM     33  O   UNL     1       0.162  -6.166  -4.516  0.00  0.00    -0.445 OA
BRANCH  33  34
ATOM     34  C   UNL     1       0.588  -6.974  -5.644  0.00  0.00    +0.107 C 
ATOM     35  C   UNL     1       1.919  -7.651  -5.313  0.00  0.00    +0.055 C 
ATOM     36  C   UNL     1      -0.468  -8.041  -5.936  0.00  0.00    +0.055 C 
ATOM     37  C   UNL     1       0.763  -6.080  -6.874  0.00  0.00    +0.055 C 
ENDBRANCH  33  34
ENDBRANCH  30  33
ENDBRANCH  28  29
BRANCH  28  38
ATOM     38  C   UNL     1       1.130  -2.050  -3.623  0.00  0.00    +0.035 C 
BRANCH  38  40
ATOM     39  C   UNL     1      -0.530  -0.982  -2.092  0.00  0.00    +0.007 C 
ATOM     40  C   UNL     1      -0.346  -1.698  -3.431  0.00  0.00    -0.015 C 
ATOM     41  C   UNL     1      -0.804  -0.781  -4.567  0.00  0.00    +0.007 C 
ENDBRANCH  38  40
ENDBRANCH  28  38
ENDBRANCH   1  28
TORSDOF 11
