REMARK  Name = ZINC15958086
REMARK  8 active torsions:
REMARK  status: ('A' for Active; 'I' for Inactive)
REMARK    1  A    between atoms: C_1  and  C_2
REMARK    2  A    between atoms: C_16  and  C_19
REMARK    3  A    between atoms: C_19  and  C_20
REMARK    4  A    between atoms: C_20  and  C_21
REMARK    5  A    between atoms: N_26  and  C_29
REMARK    6  A    between atoms: C_29  and  C_30
REMARK    7  A    between atoms: C_33  and  O_36
REMARK    8  A    between atoms: O_36  and  C_37
REMARK                            x       y       z     vdW  Elec       q    Type
REMARK                         _______ _______ _______ _____ _____    ______ ____
ROOT
ATOM      1  C   UNL     1      -0.018   1.503   0.010  0.00  0.00    +0.046 C 
ATOM      2  C   UNL     1       0.002  -0.004   0.002  0.00  0.00    -0.028 A 
ATOM      3  C   UNL     1       0.006  -0.685  -1.198  0.00  0.00    +0.025 A 
ATOM      4  C   UNL     1       0.025  -2.068  -1.216  0.00  0.00    +0.042 A 
ATOM      5  C   UNL     1       0.041  -2.772  -0.023  0.00  0.00    +0.027 A 
ATOM      6  C   UNL     1       0.038  -2.096   1.176  0.00  0.00    +0.005 A 
ATOM      7  C   UNL     1       0.023  -0.704   1.205  0.00  0.00    +0.042 A 
ATOM      8  N   UNL     1       0.027  -0.249   2.526  0.00  0.00    -0.283 N 
ATOM      9  C   UNL     1       0.051  -1.262   3.413  0.00  0.00    +0.243 C 
ATOM     10  O   UNL     1       0.059  -1.167   4.622  0.00  0.00    -0.273 OA
ATOM     11  C   UNL     1       0.054  -2.536   2.612  0.00  0.00    +0.136 C 
ATOM     12  C   UNL     1      -1.152  -3.423   2.946  0.00  0.00    +0.122 C 
ATOM     13  C   UNL     1      -0.605  -4.457   3.970  0.00  0.00    +0.107 C 
ATOM     14  C   UNL     1       0.876  -4.072   4.169  0.00  0.00    +0.068 C 
ATOM     15  N   UNL     1       1.248  -3.347   2.918  0.00  0.00    -0.295 NA
ATOM     16  C   UNL     1      -0.700  -5.769   3.226  0.00  0.00    +0.227 C 
ATOM     17  O   UNL     1      -0.364  -6.848   3.664  0.00  0.00    -0.275 OA
ATOM     18  N   UNL     1      -1.212  -5.554   2.008  0.00  0.00    -0.237 N 
ATOM     19  C   UNL     1      -1.514  -4.262   1.741  0.00  0.00    +0.229 C 
ATOM     20  O   UNL     1      -1.994  -3.839   0.711  0.00  0.00    -0.275 OA
ATOM     21 CL   UNL     1       0.028  -2.920  -2.728  0.00  0.00    -0.084 Cl
ATOM     22  H   UNL     1       0.014   0.689   2.776  0.00  0.00    +0.155 HD
ATOM     23  H   UNL     1       1.453  -3.987   2.165  0.00  0.00    +0.123 HD
ENDROOT
BRANCH  14  24
ATOM     24  C   UNL     1       1.737  -5.328   4.316  0.00  0.00    +0.028 C 
BRANCH  24  25
ATOM     25  C   UNL     1       3.177  -4.925   4.637  0.00  0.00    +0.097 C 
BRANCH  25  26
ATOM     26  C   UNL     1       4.025  -6.162   4.782  0.00  0.00    +0.211 C 
ATOM     27  O   UNL     1       3.526  -7.259   4.643  0.00  0.00    -0.276 OA
ATOM     28  N   UNL     1       5.338  -6.050   5.066  0.00  0.00    -0.329 N 
ATOM     29  H   UNL     1       5.737  -5.173   5.178  0.00  0.00    +0.145 HD
ATOM     30  H   UNL     1       5.884  -6.846   5.160  0.00  0.00    +0.145 HD
ENDBRANCH  25  26
ENDBRANCH  24  25
ENDBRANCH  14  24
BRANCH  18  31
ATOM     31  C   UNL     1      -1.435  -6.631   1.041  0.00  0.00    +0.151 C 
BRANCH  31  32
ATOM     32  C   UNL     1      -2.821  -7.193   1.226  0.00  0.00    -0.029 A 
ATOM     33  C   UNL     1      -3.029  -8.242   2.102  0.00  0.00    +0.009 A 
ATOM     34  C   UNL     1      -4.298  -8.760   2.272  0.00  0.00    +0.046 A 
ATOM     35  C   UNL     1      -5.365  -8.226   1.564  0.00  0.00    +0.120 A 
ATOM     36  C   UNL     1      -5.154  -7.173   0.686  0.00  0.00    +0.046 A 
ATOM     37  C   UNL     1      -3.883  -6.655   0.523  0.00  0.00    +0.009 A 
BRANCH  35  38
ATOM     38  O   UNL     1      -6.615  -8.733   1.730  0.00  0.00    -0.495 OA
ATOM     39  C   UNL     1      -7.665  -8.134   0.969  0.00  0.00    +0.277 C 
ENDBRANCH  35  38
ENDBRANCH  31  32
ENDBRANCH  18  31
TORSDOF 6
