REMARK  Name = ZINC10021690
REMARK  13 active torsions:
REMARK  status: ('A' for Active; 'I' for Inactive)
REMARK    1  A    between atoms: C_1  and  C_2
REMARK    2  A    between atoms: C_2  and  C_3
REMARK    3  A    between atoms: C_2  and  C_4
REMARK    4  A    between atoms: C_4  and  N_5
REMARK    5  A    between atoms: C_6  and  N_36
REMARK    6  A    between atoms: C_7  and  N_14
REMARK    7  A    between atoms: N_14  and  C_15
REMARK    8  A    between atoms: C_15  and  C_16
REMARK    9  A    between atoms: C_16  and  C_17
REMARK   10  A    between atoms: C_16  and  C_18
REMARK   11  A    between atoms: C_19  and  C_21
REMARK   12  A    between atoms: C_21  and  S_22
REMARK   13  A    between atoms: S_22  and  C_23
REMARK                            x       y       z     vdW  Elec       q    Type
REMARK                         _______ _______ _______ _____ _____    ______ ____
ROOT
ATOM      1  N   UNL     1      -9.534   3.694   0.245  0.00  0.00    -0.263 N 
ATOM      2  C   UNL     1      -8.347   3.115   0.524  0.00  0.00    +0.230 C 
ATOM      3  O   UNL     1      -8.312   1.979   0.949  0.00  0.00    -0.274 OA
ENDROOT
BRANCH   1   6
ATOM      4  N   UNL     1     -12.099   1.121  -0.301  0.00  0.00    -0.280 N 
ATOM      5  C   UNL     1     -10.926   1.828  -0.429  0.00  0.00    +0.127 A 
ATOM      6  C   UNL     1     -10.726   2.947   0.353  0.00  0.00    +0.140 A 
ATOM      7  C   UNL     1     -11.729   3.328   1.264  0.00  0.00    +0.277 A 
ATOM      8  O   UNL     1     -11.576   4.310   1.971  0.00  0.00    -0.266 OA
ATOM      9  N   UNL     1     -12.862   2.603   1.346  0.00  0.00    -0.273 N 
ATOM     10  H   UNL     1     -13.579   2.877   1.987  0.00  0.00    +0.173 HD
ATOM     11  C   UNL     1     -13.040   1.515   0.576  0.00  0.00    +0.331 A 
ATOM     12  O   UNL     1     -14.070   0.876   0.674  0.00  0.00    -0.246 OA
BRANCH   5  13
ATOM     13  N   UNL     1      -9.966   1.425  -1.325  0.00  0.00    -0.343 N 
ATOM     14  H   UNL     1      -9.137   1.924  -1.405  0.00  0.00    +0.144 HD
ATOM     15  H   UNL     1     -10.116   0.642  -1.878  0.00  0.00    +0.144 HD
ENDBRANCH   5  13
BRANCH   4  16
ATOM     16  C   UNL     1     -12.325  -0.070  -1.124  0.00  0.00    +0.131 C 
BRANCH  16  18
ATOM     17  C   UNL     1     -12.144  -2.561  -1.193  0.00  0.00    +0.009 C 
ATOM     18  C   UNL     1     -11.797  -1.305  -0.391  0.00  0.00    +0.003 C 
ATOM     19  C   UNL     1     -10.278  -1.198  -0.241  0.00  0.00    +0.009 C 
ENDBRANCH  16  18
ENDBRANCH   4  16
ENDBRANCH   1   6
BRANCH   1  20
ATOM     20  C   UNL     1      -9.584   5.098  -0.170  0.00  0.00    +0.117 C 
BRANCH  20  21
ATOM     21  C   UNL     1      -9.372   5.191  -1.682  0.00  0.00    +0.001 C 
ATOM     22  C   UNL     1     -10.552   4.538  -2.404  0.00  0.00    +0.009 C 
ATOM     23  C   UNL     1      -9.273   6.662  -2.094  0.00  0.00    +0.009 C 
ENDBRANCH  20  21
ENDBRANCH   1  20
BRANCH   2  24
ATOM     24  C   UNL     1      -7.066   3.879   0.306  0.00  0.00    +0.173 C 
BRANCH  24  25
ATOM     25  S   UNL     1      -5.655   2.837   0.769  0.00  0.00    -0.076 S 
BRANCH  25  26
ATOM     26  C   UNL     1      -4.253   3.858   0.462  0.00  0.00    +0.198 A 
ATOM     27  N   UNL     1      -4.279   5.086   0.003  0.00  0.00    -0.120 NA
ATOM     28  N   UNL     1      -2.958   5.540  -0.096  0.00  0.00    -0.110 NA
ATOM     29  C   UNL     1      -2.164   4.574   0.306  0.00  0.00    +0.235 A 
ATOM     30  N   UNL     1      -2.944   3.509   0.661  0.00  0.00    -0.255 N 
ATOM     31  C   UNL     1      -2.107   2.477   1.091  0.00  0.00    +0.075 A 
ATOM     32  C   UNL     1      -2.359   1.192   1.550  0.00  0.00    +0.028 A 
ATOM     33  C   UNL     1      -1.310   0.373   1.917  0.00  0.00    +0.002 A 
ATOM     34  C   UNL     1      -0.005   0.825   1.819  0.00  0.00    +0.002 A 
ATOM     35  C   UNL     1       0.257   2.099   1.357  0.00  0.00    +0.028 A 
ATOM     36  C   UNL     1      -0.792   2.932   0.991  0.00  0.00    +0.066 A 
ATOM     37  N   UNL     1      -0.837   4.234   0.503  0.00  0.00    -0.322 N 
ATOM     38  H   UNL     1      -0.071   4.805   0.330  0.00  0.00    +0.169 HD
ENDBRANCH  25  26
ENDBRANCH  24  25
ENDBRANCH   2  24
TORSDOF 9
