REMARK  Name = ZINC33898210
REMARK  7 active torsions:
REMARK  status: ('A' for Active; 'I' for Inactive)
REMARK    1  A    between atoms: C_3  and  O_29
REMARK    2  A    between atoms: C_6  and  C_7
REMARK    3  A    between atoms: C_7  and  C_8
REMARK    4  A    between atoms: C_8  and  C_10
REMARK    5  A    between atoms: C_8  and  N_28
REMARK    6  A    between atoms: C_12  and  C_15
REMARK    7  A    between atoms: N_17  and  C_18
REMARK                            x       y       z     vdW  Elec       q    Type
REMARK                         _______ _______ _______ _____ _____    ______ ____
ROOT
ATOM      1  C   UNL     1      -2.974  -1.901  -1.423  0.00  0.00    +0.182 A 
ATOM      2  N   UNL     1      -3.000  -3.163  -1.729  0.00  0.00    -0.210 NA
ATOM      3  C   UNL     1      -4.280  -3.610  -1.608  0.00  0.00    +0.163 A 
ATOM      4  C   UNL     1      -5.037  -2.551  -1.211  0.00  0.00    +0.230 A 
ATOM      5  O   UNL     1      -4.210  -1.500  -1.096  0.00  0.00    -0.449 OA
ENDROOT
BRANCH   3   6
ATOM      6  C   UNL     1      -4.756  -4.982  -1.861  0.00  0.00    +0.266 C 
ATOM      7  O   UNL     1      -5.933  -5.253  -1.715  0.00  0.00    -0.268 OA
ATOM      8  N   UNL     1      -3.888  -5.935  -2.253  0.00  0.00    -0.304 N 
ATOM      9  H   UNL     1      -2.950  -5.718  -2.369  0.00  0.00    +0.150 HD
BRANCH   8  10
ATOM     10  C   UNL     1      -4.361  -7.298  -2.504  0.00  0.00    +0.036 C 
ATOM     11  C   UNL     1      -5.413  -7.277  -3.615  0.00  0.00    +0.029 C 
ATOM     12  C   UNL     1      -5.908  -8.701  -3.877  0.00  0.00    -0.008 C 
ATOM     13  C   UNL     1      -4.730  -9.579  -4.306  0.00  0.00    +0.007 C 
ATOM     14  C   UNL     1      -3.679  -9.600  -3.195  0.00  0.00    -0.008 C 
ATOM     15  C   UNL     1      -3.184  -8.176  -2.933  0.00  0.00    +0.029 C 
ATOM     16  C   UNL     1      -4.299 -10.168  -1.917  0.00  0.00    +0.007 C 
ATOM     17  C   UNL     1      -5.476  -9.290  -1.487  0.00  0.00    -0.008 C 
ATOM     18  C   UNL     1      -6.528  -9.269  -2.598  0.00  0.00    +0.007 C 
ATOM     19  C   UNL     1      -4.981  -7.866  -1.225  0.00  0.00    +0.029 C 
ENDBRANCH   8  10
ENDBRANCH   3   6
BRANCH   1  20
ATOM     20  C   UNL     1      -1.746  -1.027  -1.429  0.00  0.00    +0.017 C 
BRANCH  20  21
ATOM     21  N   UNL     1      -2.060   0.254  -2.076  0.00  0.00    +0.386 N 
ATOM     22  H   UNL     1      -1.238   0.839  -2.079  0.00  0.00    -0.089 HD
ATOM     23  H   UNL     1      -2.358   0.088  -3.025  0.00  0.00    -0.089 HD
ATOM     24  H   UNL     1      -2.799   0.716  -1.567  0.00  0.00    -0.089 HD
ENDBRANCH  20  21
BRANCH  20  25
ATOM     25  C   UNL     1      -1.293  -0.774   0.011  0.00  0.00    +0.028 C 
BRANCH  25  31
ATOM     26  C   UNL     1      -0.017   1.378   0.010  0.00  0.00    +0.007 A 
ATOM     27  C   UNL     1       1.169   2.087   0.002  0.00  0.00    +0.045 A 
ATOM     28  C   UNL     1       2.380   1.409  -0.013  0.00  0.00    +0.117 A 
ATOM     29  C   UNL     1       2.396   0.022  -0.021  0.00  0.00    +0.045 A 
ATOM     30  C   UNL     1       1.207  -0.681  -0.013  0.00  0.00    +0.007 A 
ATOM     31  C   UNL     1       0.002  -0.004   0.002  0.00  0.00    -0.048 A 
BRANCH  28  32
ATOM     32  O   UNL     1       3.548   2.104  -0.021  0.00  0.00    -0.507 OA
ATOM     33  H   UNL     1       3.895   2.300   0.860  0.00  0.00    +0.292 HD
ENDBRANCH  28  32
ENDBRANCH  25  31
ENDBRANCH  20  25
ENDBRANCH   1  20
TORSDOF 7
