REMARK  Name = ZINC04566427
REMARK  9 active torsions:
REMARK  status: ('A' for Active; 'I' for Inactive)
REMARK    1  A    between atoms: C_1  and  C_2
REMARK    2  A    between atoms: C_2  and  C_3
REMARK    3  A    between atoms: C_3  and  C_5
REMARK    4  A    between atoms: C_3  and  C_6
REMARK    5  A    between atoms: C_6  and  C_8
REMARK    6  A    between atoms: C_6  and  N_65
REMARK    7  A    between atoms: N_10  and  C_11
REMARK    8  A    between atoms: C_11  and  C_12
REMARK    9  A    between atoms: C_12  and  C_13
REMARK                            x       y       z     vdW  Elec       q    Type
REMARK                         _______ _______ _______ _____ _____    ______ ____
ROOT
ATOM      1  C   UNL     1      -1.772   1.513   1.618  0.00  0.00    +0.217 C 
ATOM      2  O   UNL     1      -2.447   2.482   1.893  0.00  0.00    -0.276 OA
ATOM      3  N   UNL     1      -2.262   0.561   0.800  0.00  0.00    -0.297 N 
ATOM      4  C   UNL     1      -1.389  -0.451   0.164  0.00  0.00    +0.136 C 
ATOM      5  C   UNL     1      -0.090   0.230  -0.275  0.00  0.00    +0.179 C 
ATOM      6  O   UNL     1      -0.250   1.648  -0.208  0.00  0.00    -0.376 OA
ATOM      7  C   UNL     1       0.969   2.378  -0.364  0.00  0.00    +0.188 C 
ATOM      8  C   UNL     1       0.672   3.879  -0.340  0.00  0.00    +0.188 C 
ATOM      9  O   UNL     1      -0.457   4.127   0.501  0.00  0.00    -0.375 OA
ATOM     10  C   UNL     1      -0.642   5.505   0.833  0.00  0.00    +0.188 C 
ATOM     11  C   UNL     1      -2.134   5.789   1.019  0.00  0.00    +0.188 C 
ATOM     12  O   UNL     1      -2.830   4.559   1.229  0.00  0.00    -0.375 OA
ATOM     13  C   UNL     1      -4.222   4.617   0.909  0.00  0.00    +0.188 C 
ATOM     14  C   UNL     1      -4.978   3.569   1.728  0.00  0.00    +0.188 C 
ATOM     15  O   UNL     1      -5.113   2.371   0.962  0.00  0.00    -0.376 OA
ATOM     16  C   UNL     1      -4.491   1.228   1.554  0.00  0.00    +0.179 C 
ATOM     17  C   UNL     1      -3.705   0.465   0.486  0.00  0.00    +0.136 C 
ENDROOT
BRANCH   1  18
ATOM     18  C   UNL     1      -0.385   1.374   2.191  0.00  0.00    +0.114 C 
BRANCH  18  19
ATOM     19  C   UNL     1      -0.142   2.485   3.214  0.00  0.00    +0.113 C 
BRANCH  19  22
ATOM     20  C   UNL     1       1.718   3.369   4.518  0.00  0.00    +0.199 C 
ATOM     21  O   UNL     1       0.996   4.273   4.880  0.00  0.00    -0.278 OA
ATOM     22  N   UNL     1       1.245   2.422   3.683  0.00  0.00    -0.316 N 
ATOM     23  H   UNL     1       1.823   1.698   3.393  0.00  0.00    +0.149 HD
BRANCH  20  24
ATOM     24  C   UNL     1       3.144   3.304   5.000  0.00  0.00    +0.016 C 
BRANCH  24  27
ATOM     25  H   UNL     1       3.562   5.300   4.720  0.00  0.00    -0.089 HD
ATOM     26  H   UNL     1       2.976   4.942   6.235  0.00  0.00    -0.089 HD
ATOM     27  N   UNL     1       3.585   4.625   5.482  0.00  0.00    +0.386 N 
ATOM     28  H   UNL     1       4.546   4.551   5.837  0.00  0.00    -0.089 HD
ENDBRANCH  24  27
BRANCH  24  29
ATOM     29  C   UNL     1       3.249   2.296   6.146  0.00  0.00    -0.020 C 
ATOM     30  C   UNL     1       2.341   2.734   7.296  0.00  0.00    +0.006 C 
BRANCH  29  32
ATOM     31  C   UNL     1       4.828   1.134   7.695  0.00  0.00    +0.004 C 
ATOM     32  C   UNL     1       4.697   2.230   6.636  0.00  0.00    -0.001 C 
ENDBRANCH  29  32
ENDBRANCH  24  29
ENDBRANCH  20  24
ENDBRANCH  19  22
ENDBRANCH  18  19
ENDBRANCH   1  18
TORSDOF 7
