REMARK  Name = ZINC34779510
REMARK  8 active torsions:
REMARK  status: ('A' for Active; 'I' for Inactive)
REMARK    1  A    between atoms: C_1  and  C_2
REMARK    2  A    between atoms: C_2  and  N_3
REMARK    3  A    between atoms: C_7  and  C_29
REMARK    4  A    between atoms: C_8  and  C_25
REMARK    5  A    between atoms: N_11  and  C_14
REMARK    6  A    between atoms: C_14  and  C_15
REMARK    7  A    between atoms: N_17  and  C_18
REMARK    8  A    between atoms: N_27  and  N_28
REMARK                            x       y       z     vdW  Elec       q    Type
REMARK                         _______ _______ _______ _____ _____    ______ ____
ROOT
ATOM      1  N   UNL     1       0.686  -0.469  -1.208  0.00  0.00    -0.261 N 
ATOM      2  C   UNL     1      -0.028  -0.694  -2.325  0.00  0.00    +0.265 A 
ATOM      3  O   UNL     1      -1.230  -0.500  -2.337  0.00  0.00    -0.267 OA
ATOM      4  C   UNL     1       0.666  -1.181  -3.542  0.00  0.00    +0.074 A 
ATOM      5  C   UNL     1       0.124  -1.476  -4.799  0.00  0.00    -0.017 A 
ATOM      6  C   UNL     1       0.987  -1.912  -5.762  0.00  0.00    +0.081 A 
ATOM      7  S   UNL     1       2.554  -1.910  -4.915  0.00  0.00    -0.065 S 
ATOM      8  C   UNL     1       2.050  -1.369  -3.416  0.00  0.00    +0.098 A 
ATOM      9  N   UNL     1       2.693  -1.114  -2.238  0.00  0.00    -0.278 N 
ATOM     10  C   UNL     1       2.013  -0.668  -1.165  0.00  0.00    +0.333 A 
ATOM     11  O   UNL     1       2.614  -0.446  -0.131  0.00  0.00    -0.246 OA
ATOM     12  C   UNL     1      -1.349  -1.319  -5.075  0.00  0.00    +0.046 C 
ENDROOT
BRANCH   6  13
ATOM     13  C   UNL     1       0.696  -2.288  -7.148  0.00  0.00    +0.264 C 
ATOM     14  O   UNL     1      -0.445  -2.230  -7.568  0.00  0.00    -0.268 OA
ATOM     15  N   UNL     1       1.693  -2.699  -7.957  0.00  0.00    -0.249 N 
ATOM     16  H   UNL     1       2.602  -2.745  -7.622  0.00  0.00    +0.169 HD
BRANCH  15  17
ATOM     17  N   UNL     1       1.422  -3.050  -9.249  0.00  0.00    -0.254 NA
ATOM     18  H   UNL     1       2.262  -3.335  -9.730  0.00  0.00    +0.140 HD
ATOM     19  H   UNL     1       0.720  -3.774  -9.288  0.00  0.00    +0.140 HD
ENDBRANCH  15  17
ENDBRANCH   6  13
BRANCH   1  21
ATOM     20  C   UNL     1      -0.023   1.542  -0.010  0.00  0.00    +0.027 C 
ATOM     21  C   UNL     1      -0.002   0.012  -0.007  0.00  0.00    +0.126 C 
ENDBRANCH   1  21
BRANCH   9  22
ATOM     22  C   UNL     1       4.140  -1.322  -2.143  0.00  0.00    +0.223 C 
BRANCH  22  23
ATOM     23  C   UNL     1       4.856  -0.051  -2.521  0.00  0.00    +0.237 C 
ATOM     24  O   UNL     1       4.220   0.932  -2.838  0.00  0.00    -0.274 OA
ATOM     25  N   UNL     1       6.203  -0.007  -2.506  0.00  0.00    -0.284 N 
ATOM     26  H   UNL     1       6.710  -0.771  -2.188  0.00  0.00    +0.155 HD
BRANCH  25  27
ATOM     27  C   UNL     1       6.870   1.141  -2.949  0.00  0.00    +0.034 A 
ATOM     28  C   UNL     1       8.079   1.026  -3.623  0.00  0.00    +0.024 A 
ATOM     29  C   UNL     1       8.735   2.160  -4.060  0.00  0.00    +0.017 A 
ATOM     30  C   UNL     1       8.189   3.410  -3.826  0.00  0.00    +0.018 A 
ATOM     31  C   UNL     1       6.985   3.527  -3.154  0.00  0.00    +0.017 A 
ATOM     32  C   UNL     1       6.322   2.396  -2.720  0.00  0.00    +0.024 A 
ATOM     33 BR   UNL     1       9.091   4.960  -4.425  0.00  0.00    -0.050 Br
ENDBRANCH  25  27
ENDBRANCH  22  23
ENDBRANCH   9  22
TORSDOF 6
