REMARK  Name = ZINC28048651
REMARK  6 active torsions:
REMARK  status: ('A' for Active; 'I' for Inactive)
REMARK    1  A    between atoms: C_1  and  C_2
REMARK    2  A    between atoms: C_2  and  C_4
REMARK    3  A    between atoms: C_8  and  N_10
REMARK    4  A    between atoms: N_13  and  C_14
REMARK    5  A    between atoms: C_23  and  O_24
REMARK    6  A    between atoms: N_25  and  C_26
REMARK                            x       y       z     vdW  Elec       q    Type
REMARK                         _______ _______ _______ _____ _____    ______ ____
ROOT
ATOM      1  C   UNL     1       3.752   3.874   0.120  0.00  0.00    +0.140 A 
ATOM      2  C   UNL     1       2.678   3.567   0.937  0.00  0.00    +0.075 A 
ATOM      3  C   UNL     1       2.515   4.340   2.179  0.00  0.00    +0.042 A 
ATOM      4  C   UNL     1       1.458   4.080   3.054  0.00  0.00    +0.013 A 
ATOM      5  C   UNL     1       1.337   4.816   4.212  0.00  0.00    +0.001 A 
ATOM      6  C   UNL     1       2.260   5.807   4.511  0.00  0.00    +0.004 A 
ATOM      7  C   UNL     1       3.311   6.070   3.658  0.00  0.00    +0.047 A 
ATOM      8  C   UNL     1       3.453   5.338   2.486  0.00  0.00    +0.141 A 
ATOM      9  O   UNL     1       4.478   5.585   1.641  0.00  0.00    -0.424 OA
ATOM     10  C   UNL     1       4.641   4.895   0.502  0.00  0.00    +0.309 A 
ATOM     11  N   UNL     1       1.784   2.570   0.596  0.00  0.00    -0.380 N 
ATOM     12  H   UNL     1       0.960   2.785  -0.101  0.00  0.00    +0.160 HD
ENDROOT
BRANCH   1  16
ATOM     13  N   UNL     1       5.335   1.894  -2.463  0.00  0.00    -0.269 N 
ATOM     14  C   UNL     1       5.169   2.670  -1.373  0.00  0.00    +0.308 C 
ATOM     15  O   UNL     1       6.117   2.917  -0.653  0.00  0.00    -0.252 OA
ATOM     16  N   UNL     1       3.953   3.171  -1.081  0.00  0.00    -0.262 N 
ATOM     17  H   UNL     1       4.496   1.733  -3.156  0.00  0.00    +0.156 HD
ATOM     18  H   UNL     1       3.117   3.030  -1.782  0.00  0.00    +0.157 HD
BRANCH  13  23
ATOM     19  C   UNL     1       8.604   0.277  -1.913  0.00  0.00    +0.019 A 
ATOM     20  C   UNL     1       9.031   0.105  -3.234  0.00  0.00    +0.011 A 
ATOM     21  C   UNL     1       8.232   0.526  -4.277  0.00  0.00    +0.002 A 
ATOM     22  C   UNL     1       7.006   1.113  -4.022  0.00  0.00    +0.023 A 
ATOM     23  C   UNL     1       6.574   1.294  -2.714  0.00  0.00    +0.035 A 
ATOM     24  C   UNL     1       7.367   0.876  -1.657  0.00  0.00    +0.034 A 
BRANCH  19  26
ATOM     25  C   UNL     1      10.785  -0.816  -1.077  0.00  0.00    +0.091 C 
ATOM     26  C   UNL     1       9.453  -0.171  -0.797  0.00  0.00    +0.160 C 
ATOM     27  O   UNL     1       9.079  -0.020   0.347  0.00  0.00    -0.292 OA
ENDBRANCH  19  26
ENDBRANCH  13  23
ENDBRANCH   1  16
BRANCH  11  28
ATOM     28  C   UNL     1       2.117   1.309   1.272  0.00  0.00    +0.079 C 
ATOM     29  C   UNL     1       0.840   0.497   1.496  0.00  0.00    +0.024 C 
ATOM     30  C   UNL     1       1.187  -0.816   2.200  0.00  0.00    +0.002 C 
ATOM     31  C   UNL     1       2.156  -1.620   1.331  0.00  0.00    +0.000 C 
ATOM     32  C   UNL     1       3.434  -0.808   1.107  0.00  0.00    +0.002 C 
ATOM     33  C   UNL     1       3.086   0.505   0.403  0.00  0.00    +0.024 C 
ENDBRANCH  11  28
BRANCH  10  34
ATOM     34  O   UNL     1       5.585   5.160  -0.223  0.00  0.00    -0.479 OA
ATOM     35  H   UNL     1       6.289   5.956   0.061  0.00  0.00    +0.295 HD
ENDBRANCH  10  34
TORSDOF 5
