REMARK  Name = ZINC67497491
REMARK  10 active torsions:
REMARK  status: ('A' for Active; 'I' for Inactive)
REMARK    1  A    between atoms: C_1  and  C_2
REMARK    2  A    between atoms: C_2  and  C_3
REMARK    3  A    between atoms: C_3  and  N_4
REMARK    4  A    between atoms: C_10  and  N_13
REMARK    5  A    between atoms: C_14  and  C_16
REMARK    6  A    between atoms: N_18  and  C_19
REMARK    7  A    between atoms: C_19  and  C_20
REMARK    8  A    between atoms: C_20  and  C_22
REMARK    9  A    between atoms: C_20  and  N_23
REMARK   10  A    between atoms: C_27  and  C_30
REMARK                            x       y       z     vdW  Elec       q    Type
REMARK                         _______ _______ _______ _____ _____    ______ ____
ROOT
ATOM      1  N   UNL     1      -4.856  -4.701   0.431  0.00  0.00    -0.278 N 
ATOM      2  C   UNL     1      -5.737  -5.708   0.268  0.00  0.00    +0.303 C 
ATOM      3  O   UNL     1      -5.538  -6.558  -0.575  0.00  0.00    -0.265 OA
ATOM      4  H   UNL     1      -4.973  -4.067   1.156  0.00  0.00    +0.155 HD
ENDROOT
BRANCH   1  11
ATOM      5  N   UNL     1      -0.781  -3.111   1.254  0.00  0.00    +0.385 N 
ATOM      6  C   UNL     1      -0.452  -3.033  -0.188  0.00  0.00    -0.042 C 
ATOM      7  C   UNL     1      -1.553  -3.786  -0.900  0.00  0.00    -0.061 A 
ATOM      8  C   UNL     1      -1.631  -4.315  -2.175  0.00  0.00    +0.002 A 
ATOM      9  C   UNL     1      -2.776  -4.971  -2.587  0.00  0.00    +0.002 A 
ATOM     10  C   UNL     1      -3.848  -5.101  -1.725  0.00  0.00    +0.023 A 
ATOM     11  C   UNL     1      -3.774  -4.572  -0.443  0.00  0.00    +0.035 A 
ATOM     12  C   UNL     1      -2.622  -3.913  -0.032  0.00  0.00    -0.041 A 
ATOM     13  C   UNL     1      -2.255  -3.247   1.274  0.00  0.00    -0.040 C 
ATOM     14  H   UNL     1      -0.345  -3.919   1.674  0.00  0.00    -0.081 HD
BRANCH   5  15
ATOM     15  C   UNL     1      -0.366  -1.883   1.945  0.00  0.00    -0.078 C 
BRANCH  15  17
ATOM     16  C   UNL     1       1.593  -0.551   2.738  0.00  0.00    +0.002 C 
ATOM     17  C   UNL     1       1.161  -1.830   2.018  0.00  0.00    -0.022 C 
ENDBRANCH  15  17
ENDBRANCH   5  15
ENDBRANCH   1  11
BRANCH   2  18
ATOM     18  C   UNL     1      -6.958  -5.777   1.125  0.00  0.00    +0.299 C 
ATOM     19  O   UNL     1      -7.158  -4.927   1.968  0.00  0.00    -0.265 OA
ATOM     20  N   UNL     1      -7.840  -6.784   0.961  0.00  0.00    -0.309 N 
ATOM     21  H   UNL     1      -7.680  -7.464   0.288  0.00  0.00    +0.149 HD
BRANCH  20  22
ATOM     22  C   UNL     1      -9.038  -6.852   1.802  0.00  0.00    +0.089 C 
BRANCH  22  23
ATOM     23  C   UNL     1      -9.796  -8.147   1.504  0.00  0.00    -0.054 C 
ATOM     24  C   UNL     1     -10.974  -8.282   2.471  0.00  0.00    -0.012 C 
BRANCH  23  25
ATOM     25  N   UNL     1      -8.893  -9.293   1.670  0.00  0.00    +0.383 N 
ATOM     26  C   UNL     1      -9.579 -10.521   1.249  0.00  0.00    -0.078 C 
ATOM     27  C   UNL     1      -8.616 -11.706   1.343  0.00  0.00    -0.018 C 
ATOM     28  C   UNL     1      -8.140 -11.856   2.791  0.00  0.00    -0.001 C 
ATOM     29  C   UNL     1      -7.492 -10.545   3.244  0.00  0.00    -0.031 C 
ATOM     30  C   UNL     1      -8.497  -9.402   3.079  0.00  0.00    -0.075 C 
ATOM     31  C   UNL     1      -7.082 -10.658   4.713  0.00  0.00    +0.005 C 
ATOM     32  H   UNL     1      -8.071  -9.158   1.100  0.00  0.00    -0.081 HD
ENDBRANCH  23  25
ENDBRANCH  22  23
ENDBRANCH  20  22
ENDBRANCH   2  18
TORSDOF 7
