REMARK  Name = ZINC04999697
REMARK  7 active torsions:
REMARK  status: ('A' for Active; 'I' for Inactive)
REMARK    1  A    between atoms: C_3  and  O_16
REMARK    2  A    between atoms: C_4  and  C_8
REMARK    3  A    between atoms: C_8  and  N_38
REMARK    4  A    between atoms: C_9  and  C_10
REMARK    5  A    between atoms: C_9  and  N_38
REMARK    6  A    between atoms: O_16  and  C_17
REMARK    7  A    between atoms: C_17  and  C_18
REMARK                            x       y       z     vdW  Elec       q    Type
REMARK                         _______ _______ _______ _____ _____    ______ ____
ROOT
ATOM      1  C   UNL     1      -1.435   8.329  -2.249  0.00  0.00    +0.019 A 
ATOM      2  C   UNL     1      -0.311   7.653  -2.682  0.00  0.00    +0.047 A 
ATOM      3  C   UNL     1      -0.313   6.267  -2.732  0.00  0.00    +0.123 A 
ATOM      4  C   UNL     1      -1.445   5.562  -2.345  0.00  0.00    -0.022 A 
ATOM      5  C   UNL     1      -2.568   6.243  -1.918  0.00  0.00    +0.020 A 
ATOM      6  C   UNL     1      -2.562   7.625  -1.865  0.00  0.00    +0.018 A 
ATOM      7 BR   UNL     1      -4.099   8.554  -1.271  0.00  0.00    -0.050 Br
ENDROOT
BRANCH   4   8
ATOM      8  C   UNL     1      -1.450   4.056  -2.398  0.00  0.00    -0.043 C 
BRANCH   8   9
ATOM      9  N   UNL     1      -0.755   3.529  -1.208  0.00  0.00    +0.383 N 
ATOM     10  H   UNL     1      -1.240   3.850  -0.362  0.00  0.00    -0.085 HD
ATOM     11  H   UNL     1       0.212   3.874  -1.200  0.00  0.00    -0.085 HD
BRANCH   9  12
ATOM     12  C   UNL     1      -0.745   2.054  -1.233  0.00  0.00    -0.050 C 
BRANCH  12  13
ATOM     13  C   UNL     1      -0.019   1.537   0.011  0.00  0.00    +0.101 C 
ATOM     14  C   UNL     1       0.002  -0.004   0.002  0.00  0.00    +0.032 C 
ATOM     15  C   UNL     1       1.508  -0.363   0.039  0.00  0.00    +0.030 C 
ATOM     16  C   UNL     1       2.138   0.935   0.603  0.00  0.00    +0.160 C 
ATOM     17  O   UNL     1       1.348   1.983  -0.000  0.00  0.00    -0.378 OA
ENDBRANCH  12  13
ENDBRANCH   9  12
ENDBRANCH   8   9
ENDBRANCH   4   8
BRANCH   3  18
ATOM     18  O   UNL     1       0.791   5.599  -3.157  0.00  0.00    -0.483 OA
BRANCH  18  19
ATOM     19  C   UNL     1       1.919   6.389  -3.539  0.00  0.00    +0.324 C 
BRANCH  19  20
ATOM     20  C   UNL     1       3.041   5.483  -3.979  0.00  0.00    +0.248 C 
ATOM     21  O   UNL     1       2.889   4.280  -3.967  0.00  0.00    -0.272 OA
ATOM     22  N   UNL     1       4.212   6.011  -4.386  0.00  0.00    -0.327 N 
ATOM     23  H   UNL     1       4.334   6.973  -4.396  0.00  0.00    +0.145 HD
ATOM     24  H   UNL     1       4.934   5.428  -4.670  0.00  0.00    +0.145 HD
ENDBRANCH  19  20
ENDBRANCH  18  19
ENDBRANCH   3  18
TORSDOF 7
