REMARK  Name = ZINC41097764
REMARK  6 active torsions:
REMARK  status: ('A' for Active; 'I' for Inactive)
REMARK    1  A    between atoms: C_1  and  O_2
REMARK    2  A    between atoms: O_2  and  C_3
REMARK    3  A    between atoms: C_6  and  N_21
REMARK    4  A    between atoms: C_7  and  C_9
REMARK    5  A    between atoms: C_9  and  O_11
REMARK    6  A    between atoms: O_11  and  C_12
REMARK                            x       y       z     vdW  Elec       q    Type
REMARK                         _______ _______ _______ _____ _____    ______ ____
ROOT
ATOM      1  C   UNL     1       1.588  -4.060   2.494  0.00  0.00    +0.342 C 
ATOM      2  O   UNL     1       2.099  -4.478   3.515  0.00  0.00    -0.245 OA
ENDROOT
BRANCH   1   7
ATOM      3  C   UNL     1       0.579  -0.769   0.997  0.00  0.00    +0.121 A 
ATOM      4  C   UNL     1       1.110   0.124   1.920  0.00  0.00    +0.047 A 
ATOM      5  C   UNL     1       1.793  -0.339   3.025  0.00  0.00    +0.027 A 
ATOM      6  C   UNL     1       1.956  -1.704   3.223  0.00  0.00    +0.039 A 
ATOM      7  C   UNL     1       1.421  -2.611   2.294  0.00  0.00    +0.083 A 
ATOM      8  C   UNL     1       0.726  -2.130   1.181  0.00  0.00    +0.062 A 
BRANCH   6   9
ATOM      9  N   UNL     1       2.646  -2.171   4.337  0.00  0.00    -0.357 N 
ATOM     10  H   UNL     1       3.084  -1.544   4.933  0.00  0.00    +0.142 HD
ATOM     11  H   UNL     1       2.688  -3.123   4.517  0.00  0.00    +0.142 HD
ENDBRANCH   6   9
BRANCH   3  13
ATOM     12  C   UNL     1      -0.208   1.118  -0.219  0.00  0.00    +0.277 C 
ATOM     13  O   UNL     1      -0.093  -0.300  -0.090  0.00  0.00    -0.495 OA
ENDBRANCH   3  13
ENDBRANCH   1   7
BRANCH   1  14
ATOM     14  O   UNL     1       1.175  -4.923   1.546  0.00  0.00    -0.448 OA
BRANCH  14  15
ATOM     15  C   UNL     1       1.367  -6.315   1.806  0.00  0.00    +0.262 C 
ATOM     16  C   UNL     1       1.560  -7.064   0.485  0.00  0.00    +0.054 C 
ATOM     17  C   UNL     1       0.714  -6.445  -0.612  0.00  0.00    +0.006 C 
ATOM     18  C   UNL     1      -0.780  -6.605  -0.398  0.00  0.00    +0.019 C 
ATOM     19  C   UNL     1      -1.247  -5.801   0.817  0.00  0.00    +0.104 C 
ATOM     20  N   UNL     1      -1.074  -6.628   2.023  0.00  0.00    -0.312 N 
ATOM     21  C   UNL     1       0.147  -6.875   2.507  0.00  0.00    +0.254 C 
ATOM     22  O   UNL     1       0.281  -7.553   3.504  0.00  0.00    -0.272 OA
ATOM     23  H   UNL     1      -1.852  -6.994   2.472  0.00  0.00    +0.149 HD
ENDBRANCH  14  15
ENDBRANCH   1  14
TORSDOF 5
