REMARK  Name = ZINC37049144
REMARK  8 active torsions:
REMARK  status: ('A' for Active; 'I' for Inactive)
REMARK    1  A    between atoms: C_1  and  C_2
REMARK    2  A    between atoms: C_2  and  C_4
REMARK    3  A    between atoms: C_2  and  C_6
REMARK    4  A    between atoms: C_4  and  N_5
REMARK    5  A    between atoms: C_6  and  N_7
REMARK    6  A    between atoms: N_10  and  C_13
REMARK    7  A    between atoms: C_13  and  C_14
REMARK    8  A    between atoms: N_19  and  C_22
REMARK                            x       y       z     vdW  Elec       q    Type
REMARK                         _______ _______ _______ _____ _____    ______ ____
ROOT
ATOM      1  N   UNL     1       2.151  -0.103   1.171  0.00  0.00    -0.306 NA
ATOM      2  C   UNL     1       2.840  -0.775   0.060  0.00  0.00    +0.066 C 
ATOM      3  C   UNL     1       4.286  -0.279  -0.015  0.00  0.00    -0.063 C 
ATOM      4  N   UNL     1       4.969  -0.567   1.253  0.00  0.00    +0.387 N 
ATOM      5  C   UNL     1       4.285   0.131   2.350  0.00  0.00    -0.063 C 
ATOM      6  C   UNL     1       2.839  -0.362   2.445  0.00  0.00    +0.066 C 
ATOM      7  H   UNL     1       4.953  -1.561   1.426  0.00  0.00    -0.081 HD
ENDROOT
BRANCH   1   8
ATOM      8  C   UNL     1       0.742  -0.511   1.242  0.00  0.00    +0.085 C 
BRANCH   8  10
ATOM      9  C   UNL     1      -0.019   1.526   0.010  0.00  0.00    +0.007 C 
ATOM     10  C   UNL     1       0.002  -0.004   0.002  0.00  0.00    -0.018 C 
BRANCH  10  11
ATOM     11  C   UNL     1      -1.433  -0.534   0.013  0.00  0.00    -0.082 C 
BRANCH  11  12
ATOM     12  N   UNL     1      -2.107  -0.147  -1.234  0.00  0.00    +0.378 N 
ATOM     13  H   UNL     1      -2.120   0.859  -1.311  0.00  0.00    -0.090 HD
ATOM     14  H   UNL     1      -1.610  -0.539  -2.020  0.00  0.00    -0.090 HD
ATOM     15  H   UNL     1      -3.054  -0.496  -1.227  0.00  0.00    -0.090 HD
ENDBRANCH  11  12
ENDBRANCH  10  11
ENDBRANCH   8  10
ENDBRANCH   1   8
BRANCH   4  16
ATOM     16  C   UNL     1       6.362  -0.107   1.174  0.00  0.00    +0.019 C 
BRANCH  16  17
ATOM     17  C   UNL     1       7.096  -0.511   2.426  0.00  0.00    +0.199 C 
ATOM     18  O   UNL     1       6.516  -1.123   3.299  0.00  0.00    -0.278 OA
ATOM     19  N   UNL     1       8.397  -0.194   2.577  0.00  0.00    -0.301 N 
ATOM     20  C   UNL     1       9.118   0.552   1.534  0.00  0.00    +0.123 C 
ATOM     21  C   UNL     1       9.819   1.748   2.187  0.00  0.00    +0.103 C 
ATOM     22  N   UNL     1      10.652   1.275   3.300  0.00  0.00    -0.302 NA
ATOM     23  C   UNL     1       9.835   0.656   4.353  0.00  0.00    +0.103 C 
ATOM     24  C   UNL     1       9.133  -0.579   3.791  0.00  0.00    +0.123 C 
ATOM     25  C   UNL     1      11.473   2.365   3.844  0.00  0.00    +0.105 C 
ENDBRANCH  16  17
ENDBRANCH   4  16
TORSDOF 6
