REMARK  Name = ZINC03423523
REMARK  7 active torsions:
REMARK  status: ('A' for Active; 'I' for Inactive)
REMARK    1  A    between atoms: C_1  and  O_2
REMARK    2  A    between atoms: O_2  and  C_3
REMARK    3  A    between atoms: C_8  and  N_9
REMARK    4  A    between atoms: N_9  and  S_10
REMARK    5  A    between atoms: S_10  and  C_13
REMARK    6  A    between atoms: N_22  and  C_23
REMARK    7  A    between atoms: C_27  and  C_29
REMARK                            x       y       z     vdW  Elec       q    Type
REMARK                         _______ _______ _______ _____ _____    ______ ____
ROOT
ATOM      1  C   UNL     1       7.667   1.527   0.563  0.00  0.00    +0.111 A 
ATOM      2  C   UNL     1       7.138   0.249   0.474  0.00  0.00    +0.032 A 
ATOM      3  C   UNL     1       5.771   0.057   0.462  0.00  0.00    +0.050 A 
ATOM      4  C   UNL     1       4.920   1.147   0.540  0.00  0.00    +0.157 A 
ATOM      5  C   UNL     1       5.451   2.442   0.631  0.00  0.00    +0.113 A 
ATOM      6  C   UNL     1       6.835   2.622   0.642  0.00  0.00    +0.060 A 
ATOM      7  N   UNL     1       4.392   3.295   0.687  0.00  0.00    -0.195 NA
ATOM      8  C   UNL     1       3.287   2.595   0.645  0.00  0.00    +0.293 A 
ATOM      9  O   UNL     1       3.574   1.285   0.552  0.00  0.00    -0.424 OA
ATOM     10  N   UNL     1       2.015   3.124   0.684  0.00  0.00    -0.269 N 
ATOM     11  H   UNL     1       1.889   4.086   0.653  0.00  0.00    +0.157 HD
ENDROOT
BRANCH  10  12
ATOM     12  C   UNL     1       0.907   2.275   0.769  0.00  0.00    +0.036 A 
ATOM     13  C   UNL     1       1.017   1.049   1.412  0.00  0.00    +0.025 A 
ATOM     14  C   UNL     1      -0.079   0.213   1.494  0.00  0.00    +0.022 A 
ATOM     15  C   UNL     1      -1.284   0.593   0.930  0.00  0.00    +0.053 A 
ATOM     16  C   UNL     1      -1.398   1.816   0.293  0.00  0.00    +0.075 A 
ATOM     17  C   UNL     1      -0.305   2.656   0.209  0.00  0.00    +0.037 A 
ATOM     18 CL   UNL     1      -2.658  -0.464   1.029  0.00  0.00    -0.083 Cl
BRANCH  16  19
ATOM     19  C   UNL     1      -2.714   2.229  -0.314  0.00  0.00    +0.419 C 
ATOM     20  F   UNL     1      -2.581   3.492  -0.901  0.00  0.00    -0.166 F 
ATOM     21  F   UNL     1      -3.090   1.299  -1.289  0.00  0.00    -0.166 F 
ATOM     22  F   UNL     1      -3.693   2.280   0.684  0.00  0.00    -0.166 F 
ENDBRANCH  16  19
ENDBRANCH  10  12
BRANCH   1  23
ATOM     23  S   UNL     1       9.415   1.752   0.576  0.00  0.00    +0.073 S 
ATOM     24  O   UNL     1       9.976   0.611  -0.058  0.00  0.00    -0.150 OA
ATOM     25  O   UNL     1       9.657   3.075   0.117  0.00  0.00    -0.150 OA
BRANCH  23  26
ATOM     26  N   UNL     1       9.903   1.703   2.157  0.00  0.00    -0.213 N 
ATOM     27  H   UNL     1      10.348   2.470   2.551  0.00  0.00    +0.174 HD
BRANCH  26  33
ATOM     28  C   UNL     1       9.363   0.671   4.278  0.00  0.00    +0.142 A 
ATOM     29  C   UNL     1       9.138  -0.469   5.033  0.00  0.00    +0.047 A 
ATOM     30  C   UNL     1       9.222  -1.717   4.443  0.00  0.00    +0.004 A 
ATOM     31  C   UNL     1       9.530  -1.832   3.100  0.00  0.00    +0.002 A 
ATOM     32  C   UNL     1       9.751  -0.700   2.339  0.00  0.00    +0.028 A 
ATOM     33  C   UNL     1       9.674   0.555   2.925  0.00  0.00    +0.090 A 
BRANCH  28  35
ATOM     34  C   UNL     1       8.957   1.941   6.248  0.00  0.00    +0.277 C 
ATOM     35  O   UNL     1       9.281   1.899   4.856  0.00  0.00    -0.493 OA
ENDBRANCH  28  35
ENDBRANCH  26  33
ENDBRANCH  23  26
ENDBRANCH   1  23
TORSDOF 6
