REMARK  Name = ZINC09260860
REMARK  9 active torsions:
REMARK  status: ('A' for Active; 'I' for Inactive)
REMARK    1  A    between atoms: C_1  and  C_2
REMARK    2  A    between atoms: C_6  and  N_8
REMARK    3  A    between atoms: C_9  and  C_11
REMARK    4  A    between atoms: C_11  and  N_12
REMARK    5  A    between atoms: C_16  and  C_17
REMARK    6  A    between atoms: C_22  and  O_23
REMARK    7  A    between atoms: O_23  and  C_24
REMARK    8  A    between atoms: C_24  and  C_25
REMARK    9  A    between atoms: C_28  and  C_31
REMARK                            x       y       z     vdW  Elec       q    Type
REMARK                         _______ _______ _______ _____ _____    ______ ____
ROOT
ATOM      1  N   UNL     1      -2.983   7.092  -0.119  0.00  0.00    -0.219 N 
ATOM      2  C   UNL     1      -3.564   7.578   0.965  0.00  0.00    +0.261 C 
ATOM      3  O   UNL     1      -3.114   7.373   2.078  0.00  0.00    -0.269 OA
ATOM      4  C   UNL     1      -4.785   8.380   0.758  0.00  0.00    +0.080 C 
ATOM      5  C   UNL     1      -5.581   8.995   1.670  0.00  0.00    +0.032 C 
ATOM      6  S   UNL     1      -4.928   8.319  -1.023  0.00  0.00    -0.026 S 
ATOM      7  C   UNL     1      -3.482   7.325  -1.350  0.00  0.00    +0.286 C 
ATOM      8  O   UNL     1      -3.052   6.947  -2.423  0.00  0.00    -0.262 OA
ENDROOT
BRANCH   5   9
ATOM      9  C   UNL     1      -5.174   9.054   3.079  0.00  0.00    +0.018 A 
ATOM     10  C   UNL     1      -3.831   9.258   3.416  0.00  0.00    +0.011 A 
ATOM     11  C   UNL     1      -3.458   9.317   4.741  0.00  0.00    +0.001 A 
ATOM     12  C   UNL     1      -4.404   9.165   5.742  0.00  0.00    +0.004 A 
ATOM     13  C   UNL     1      -5.732   8.957   5.424  0.00  0.00    +0.046 A 
ATOM     14  C   UNL     1      -6.129   8.900   4.097  0.00  0.00    +0.128 A 
BRANCH  14  15
ATOM     15  O   UNL     1      -7.434   8.696   3.784  0.00  0.00    -0.487 OA
BRANCH  15  16
ATOM     16  C   UNL     1      -8.347   8.548   4.873  0.00  0.00    +0.264 C 
BRANCH  16  17
ATOM     17  C   UNL     1      -9.739   8.332   4.335  0.00  0.00    -0.010 A 
ATOM     18  C   UNL     1     -10.562   9.419   4.100  0.00  0.00    +0.008 A 
ATOM     19  C   UNL     1     -11.835   9.229   3.604  0.00  0.00    +0.015 A 
ATOM     20  C   UNL     1     -12.296   7.935   3.349  0.00  0.00    +0.063 A 
ATOM     21  C   UNL     1     -11.461   6.843   3.593  0.00  0.00    +0.015 A 
ATOM     22  C   UNL     1     -10.188   7.048   4.085  0.00  0.00    +0.008 A 
BRANCH  20  23
ATOM     23  C   UNL     1     -13.659   7.724   2.822  0.00  0.00    +0.387 C 
ATOM     24  O   UNL     1     -14.057   6.597   2.601  0.00  0.00    -0.241 OA
ATOM     25  O   UNL     1     -14.462   8.780   2.587  0.00  0.00    -0.241 OA
ENDBRANCH  20  23
ENDBRANCH  16  17
ENDBRANCH  15  16
ENDBRANCH  14  15
ENDBRANCH   5   9
BRANCH   1  26
ATOM     26  C   UNL     1      -1.767   6.287   0.020  0.00  0.00    +0.213 C 
BRANCH  26  28
ATOM     27  N   UNL     1      -1.177   3.903   0.316  0.00  0.00    -0.284 N 
ATOM     28  C   UNL     1      -2.140   4.835   0.172  0.00  0.00    +0.235 C 
ATOM     29  O   UNL     1      -3.307   4.505   0.165  0.00  0.00    -0.274 OA
ATOM     30  H   UNL     1      -0.248   4.173   0.396  0.00  0.00    +0.155 HD
BRANCH  27  36
ATOM     31  C   UNL     1      -4.100   0.233  -1.153  0.00  0.00    +0.044 C 
ATOM     32  C   UNL     1      -2.928   0.740  -0.353  0.00  0.00    -0.049 A 
ATOM     33  C   UNL     1      -2.186  -0.138   0.416  0.00  0.00    +0.003 A 
ATOM     34  C   UNL     1      -1.113   0.324   1.156  0.00  0.00    +0.002 A 
ATOM     35  C   UNL     1      -0.772   1.662   1.120  0.00  0.00    +0.023 A 
ATOM     36  C   UNL     1      -1.516   2.546   0.349  0.00  0.00    +0.034 A 
ATOM     37  C   UNL     1      -2.596   2.080  -0.388  0.00  0.00    +0.026 A 
ENDBRANCH  27  36
ENDBRANCH  26  28
ENDBRANCH   1  26
TORSDOF 8
