REMARK  Name = ZINC14959715
REMARK  6 active torsions:
REMARK  status: ('A' for Active; 'I' for Inactive)
REMARK    1  A    between atoms: C_8  and  C_22
REMARK    2  A    between atoms: N_9  and  C_10
REMARK    3  A    between atoms: C_10  and  C_11
REMARK    4  A    between atoms: C_13  and  C_16
REMARK    5  A    between atoms: C_27  and  N_30
REMARK    6  A    between atoms: N_30  and  C_31
REMARK                            x       y       z     vdW  Elec       q    Type
REMARK                         _______ _______ _______ _____ _____    ______ ____
ROOT
ATOM      1  C   UNL     1       2.192   1.744   0.708  0.00  0.00    +0.001 A 
ATOM      2  C   UNL     1       1.042   2.318   0.179  0.00  0.00    +0.002 A 
ATOM      3  C   UNL     1      -0.030   1.534  -0.182  0.00  0.00    +0.026 A 
ATOM      4  C   UNL     1       0.035   0.153  -0.017  0.00  0.00    +0.050 A 
ATOM      5  C   UNL     1       1.202  -0.426   0.519  0.00  0.00    +0.001 A 
ATOM      6  C   UNL     1       2.280   0.394   0.879  0.00  0.00    +0.010 A 
ATOM      7  C   UNL     1       0.983  -1.824   0.570  0.00  0.00    +0.041 A 
ATOM      8  C   UNL     1      -0.262  -2.066   0.084  0.00  0.00    +0.106 A 
ATOM      9  N   UNL     1      -0.849  -0.868  -0.276  0.00  0.00    -0.330 N 
ENDROOT
BRANCH   8  10
ATOM     10  C   UNL     1      -0.886  -3.392  -0.039  0.00  0.00    +0.263 C 
ATOM     11  O   UNL     1      -2.098  -3.497  -0.021  0.00  0.00    -0.268 OA
ATOM     12  N   UNL     1      -0.116  -4.490  -0.171  0.00  0.00    -0.296 N 
ATOM     13  C   UNL     1       1.348  -4.375  -0.221  0.00  0.00    +0.110 C 
ATOM     14  C   UNL     1       1.859  -5.083  -1.475  0.00  0.00    +0.041 C 
ATOM     15  C   UNL     1       1.340  -6.522  -1.493  0.00  0.00    +0.073 C 
ATOM     16  C   UNL     1      -0.190  -6.514  -1.531  0.00  0.00    +0.041 C 
ATOM     17  C   UNL     1      -0.725  -5.823  -0.273  0.00  0.00    +0.110 C 
BRANCH  15  18
ATOM     18  N   UNL     1       1.853  -7.211  -2.680  0.00  0.00    -0.341 N 
ATOM     19  H   UNL     1       1.317  -7.253  -3.487  0.00  0.00    +0.146 HD
BRANCH  18  20
ATOM     20  C   UNL     1       3.111  -7.805  -2.649  0.00  0.00    +0.030 A 
ATOM     21  C   UNL     1       3.901  -7.751  -1.500  0.00  0.00    +0.040 A 
ATOM     22  C   UNL     1       5.139  -8.357  -1.509  0.00  0.00    +0.084 A 
ATOM     23  C   UNL     1       4.869  -9.041  -3.697  0.00  0.00    +0.084 A 
ATOM     24  C   UNL     1       3.618  -8.466  -3.768  0.00  0.00    +0.040 A 
ATOM     25  N   UNL     1       5.657  -9.007  -2.587  0.00  0.00    -0.367 N 
ATOM     26  H   UNL     1       6.585  -9.446  -2.565  0.00  0.00    +0.165 HD
ENDBRANCH  18  20
ENDBRANCH  15  18
ENDBRANCH   8  10
BRANCH   9  27
ATOM     27  C   UNL     1      -2.191  -0.712  -0.842  0.00  0.00    +0.181 C 
BRANCH  27  28
ATOM     28  C   UNL     1      -2.135  -0.921  -2.333  0.00  0.00    +0.104 A 
ATOM     29  C   UNL     1      -2.894  -1.839  -3.082  0.00  0.00    +0.078 A 
ATOM     30  C   UNL     1      -2.474  -1.637  -4.374  0.00  0.00    +0.174 A 
ATOM     31  O   UNL     1      -1.544  -0.665  -4.315  0.00  0.00    -0.354 OA
ATOM     32  N   UNL     1      -1.378  -0.282  -3.181  0.00  0.00    -0.081 NA
BRANCH  30  33
ATOM     33  C   UNL     1      -2.944  -2.339  -5.576  0.00  0.00    +0.058 A 
ATOM     34  C   UNL     1      -2.558  -2.167  -6.893  0.00  0.00    +0.021 A 
ATOM     35  C   UNL     1      -3.144  -2.955  -7.855  0.00  0.00    +0.028 A 
ATOM     36  C   UNL     1      -4.087  -3.864  -7.487  0.00  0.00    +0.079 A 
ATOM     37  S   UNL     1      -4.168  -3.631  -5.719  0.00  0.00    -0.074 S 
ATOM     38 CL   UNL     1      -4.983  -4.969  -8.482  0.00  0.00    -0.076 Cl
ENDBRANCH  30  33
ENDBRANCH  27  28
ENDBRANCH   9  27
TORSDOF 6
