REMARK  Name = ZINC04555304
REMARK  5 active torsions:
REMARK  status: ('A' for Active; 'I' for Inactive)
REMARK    1  A    between atoms: C_1  and  C_2
REMARK    2  A    between atoms: C_2  and  C_3
REMARK    3  A    between atoms: C_2  and  N_42
REMARK    4  A    between atoms: C_11  and  O_22
REMARK    5  A    between atoms: C_13  and  C_16
REMARK                            x       y       z     vdW  Elec       q    Type
REMARK                         _______ _______ _______ _____ _____    ______ ____
ROOT
ATOM      1  C   UNL     1      -1.951   4.934  -0.106  0.00  0.00    -0.073 C 
ATOM      2  C   UNL     1      -1.131   3.675  -0.404  0.00  0.00    +0.018 C 
ATOM      3  C   UNL     1       0.341   4.001  -0.174  0.00  0.00    -0.027 A 
ATOM      4  C   UNL     1       0.748   5.292  -0.125  0.00  0.00    -0.021 A 
ATOM      5  S   UNL     1       2.493   5.208   0.167  0.00  0.00    -0.080 S 
ATOM      6  C   UNL     1       2.672   3.507   0.224  0.00  0.00    +0.080 A 
ATOM      7  C   UNL     1       1.381   3.006   0.005  0.00  0.00    +0.067 A 
ATOM      8  C   UNL     1       1.217   1.530  -0.001  0.00  0.00    +0.220 C 
ATOM      9  N   UNL     1       2.297   0.798  -0.010  0.00  0.00    -0.221 NA
ATOM     10  C   UNL     1       3.654   1.321  -0.120  0.00  0.00    +0.240 C 
ATOM     11  N   UNL     1       3.754   2.686   0.430  0.00  0.00    -0.312 N 
ATOM     12  C   UNL     1      -0.115   6.504  -0.285  0.00  0.00    -0.035 C 
ATOM     13  H   UNL     1       4.541   2.987   0.910  0.00  0.00    +0.149 HD
ATOM     14  N   UNL     1      -1.404   6.069  -0.877  0.00  0.00    +0.384 N 
ATOM     15  H   UNL     1      -1.243   5.769  -1.845  0.00  0.00    -0.081 HD
ENDROOT
BRANCH  10  16
ATOM     16  C   UNL     1       4.059   1.345  -1.571  0.00  0.00    +0.059 A 
ATOM     17  C   UNL     1       4.942   2.196  -2.132  0.00  0.00    +0.026 A 
ATOM     18  C   UNL     1       5.031   1.872  -3.500  0.00  0.00    +0.019 A 
ATOM     19  C   UNL     1       4.192   0.841  -3.725  0.00  0.00    +0.083 A 
ATOM     20  N   UNL     1       3.593   0.513  -2.545  0.00  0.00    -0.361 N 
ATOM     21  H   UNL     1       2.942  -0.196  -2.420  0.00  0.00    +0.165 HD
ENDBRANCH  10  16
BRANCH  14  23
ATOM     22  C   UNL     1      -1.720   8.404  -1.550  0.00  0.00    -0.014 C 
ATOM     23  C   UNL     1      -2.366   7.192  -0.876  0.00  0.00    -0.074 C 
ATOM     24  C   UNL     1      -3.613   6.777  -1.658  0.00  0.00    -0.014 C 
ENDBRANCH  14  23
BRANCH   8  25
ATOM     25  O   UNL     1      -0.011   0.963   0.007  0.00  0.00    -0.492 OA
ATOM     26  H   UNL     1       0.002  -0.004   0.002  0.00  0.00    +0.294 HD
ENDBRANCH   8  25
TORSDOF 3
