REMARK  Name = ZINC38661686
REMARK  10 active torsions:
REMARK  status: ('A' for Active; 'I' for Inactive)
REMARK    1  A    between atoms: C_1  and  C_2
REMARK    2  A    between atoms: C_2  and  C_3
REMARK    3  A    between atoms: C_3  and  C_5
REMARK    4  A    between atoms: C_3  and  C_6
REMARK    5  A    between atoms: C_6  and  C_8
REMARK    6  A    between atoms: C_6  and  N_26
REMARK    7  A    between atoms: C_12  and  S_14
REMARK    8  A    between atoms: S_14  and  C_15
REMARK    9  A    between atoms: C_15  and  C_16
REMARK   10  A    between atoms: C_18  and  C_25
REMARK                            x       y       z     vdW  Elec       q    Type
REMARK                         _______ _______ _______ _____ _____    ______ ____
ROOT
ATOM      1  C   UNL     1       1.565  -2.514  -2.464  0.00  0.00    +0.263 C 
ATOM      2  N   UNL     1       1.637  -3.986  -2.473  0.00  0.00    -0.229 N 
ATOM      3  N   UNL     1       3.007  -4.291  -2.471  0.00  0.00    -0.140 NA
ATOM      4  C   UNL     1       3.707  -3.208  -2.463  0.00  0.00    +0.269 C 
ATOM      5  O   UNL     1       2.937  -2.093  -2.459  0.00  0.00    -0.449 OA
ATOM      6  H   UNL     1       0.896  -4.611  -2.478  0.00  0.00    +0.172 HD
ENDROOT
BRANCH   1   7
ATOM      7  C   UNL     1       0.849  -2.021  -1.205  0.00  0.00    -0.010 C 
BRANCH   7   8
ATOM      8  N   UNL     1       1.625  -2.406  -0.018  0.00  0.00    +0.384 N 
ATOM      9  H   UNL     1       1.711  -3.410   0.016  0.00  0.00    -0.089 HD
ATOM     10  H   UNL     1       2.543  -1.991  -0.067  0.00  0.00    -0.089 HD
ATOM     11  H   UNL     1       1.152  -2.080   0.812  0.00  0.00    -0.089 HD
ENDBRANCH   7   8
BRANCH   7  12
ATOM     12  C   UNL     1       0.718  -0.497  -1.257  0.00  0.00    -0.024 C 
ATOM     13  C   UNL     1      -0.089  -0.097  -2.493  0.00  0.00    +0.006 C 
BRANCH  12  15
ATOM     14  C   UNL     1      -0.019   1.526   0.010  0.00  0.00    +0.004 C 
ATOM     15  C   UNL     1       0.002  -0.004   0.002  0.00  0.00    -0.002 C 
ENDBRANCH  12  15
ENDBRANCH   7  12
ENDBRANCH   1   7
BRANCH   4  16
ATOM     16  S   UNL     1       5.469  -3.181  -2.458  0.00  0.00    -0.061 S 
BRANCH  16  17
ATOM     17  C   UNL     1       5.935  -4.934  -2.468  0.00  0.00    +0.121 C 
BRANCH  17  18
ATOM     18  C   UNL     1       7.437  -5.055  -2.465  0.00  0.00    +0.046 A 
ATOM     19  H   UNL     1       9.925  -5.793  -0.551  0.00  0.00    +0.170 HD
ATOM     20  C   UNL     1       8.091  -5.423  -1.343  0.00  0.00    +0.026 A 
ATOM     21  N   UNL     1       9.455  -5.528  -1.357  0.00  0.00    -0.311 N 
ATOM     22  C   UNL     1      10.151  -5.267  -2.479  0.00  0.00    +0.327 A 
ATOM     23  O   UNL     1      11.363  -5.366  -2.470  0.00  0.00    -0.247 OA
ATOM     24  N   UNL     1       9.524  -4.899  -3.612  0.00  0.00    -0.275 N 
ATOM     25  C   UNL     1       8.180  -4.790  -3.640  0.00  0.00    +0.258 A 
ATOM     26  O   UNL     1       7.612  -4.462  -4.666  0.00  0.00    -0.267 OA
ATOM     27  C   UNL     1       7.323  -5.717  -0.080  0.00  0.00    +0.064 C 
ATOM     28  H   UNL     1      10.040  -4.715  -4.412  0.00  0.00    +0.173 HD
ENDBRANCH  17  18
ENDBRANCH  16  17
ENDBRANCH   4  16
TORSDOF 7
