REMARK  Name = ZINC31815375
REMARK  12 active torsions:
REMARK  status: ('A' for Active; 'I' for Inactive)
REMARK    1  A    between atoms: C_1  and  N_2
REMARK    2  A    between atoms: N_2  and  C_3
REMARK    3  A    between atoms: N_2  and  C_4
REMARK    4  A    between atoms: C_4  and  C_5
REMARK    5  A    between atoms: C_5  and  N_6
REMARK    6  A    between atoms: C_7  and  C_9
REMARK    7  A    between atoms: C_9  and  N_10
REMARK    8  A    between atoms: N_13  and  C_16
REMARK    9  A    between atoms: C_16  and  C_18
REMARK   10  A    between atoms: C_16  and  C_30
REMARK   11  A    between atoms: C_25  and  C_28
REMARK   12  A    between atoms: C_28  and  O_29
REMARK                            x       y       z     vdW  Elec       q    Type
REMARK                         _______ _______ _______ _____ _____    ______ ____
ROOT
ATOM      1  N   UNL     1      -6.341  -2.344   6.921  0.00  0.00    -0.298 NA
ATOM      2  C   UNL     1      -7.060  -2.014   5.683  0.00  0.00    +0.066 C 
ATOM      3  C   UNL     1      -6.052  -1.826   4.546  0.00  0.00    -0.062 C 
ATOM      4  N   UNL     1      -5.107  -0.759   4.903  0.00  0.00    +0.393 N 
ATOM      5  C   UNL     1      -4.388  -1.089   6.142  0.00  0.00    -0.062 C 
ATOM      6  C   UNL     1      -5.396  -1.277   7.279  0.00  0.00    +0.066 C 
ATOM      7  H   UNL     1      -5.684   0.161   5.080  0.00  0.00    -0.080 HD
ENDROOT
BRANCH   1   8
ATOM      8  C   UNL     1      -7.279  -2.607   8.020  0.00  0.00    +0.180 C 
BRANCH   8  10
ATOM      9  N   UNL     1      -9.102  -4.203   8.518  0.00  0.00    -0.316 N 
ATOM     10  C   UNL     1      -8.095  -3.833   7.702  0.00  0.00    +0.227 C 
ATOM     11  O   UNL     1      -7.846  -4.487   6.712  0.00  0.00    -0.274 OA
ATOM     12  H   UNL     1      -9.328  -3.610   9.417  0.00  0.00    +0.149 HD
BRANCH   9  13
ATOM     13  C   UNL     1      -9.896  -5.394   8.209  0.00  0.00    +0.085 C 
BRANCH  13  14
ATOM     14  C   UNL     1     -10.965  -5.589   9.286  0.00  0.00    -0.061 C 
BRANCH  14  16
ATOM     15  C   UNL     1     -12.637  -7.139  10.100  0.00  0.00    -0.097 C 
ATOM     16  N   UNL     1     -11.761  -6.784   8.975  0.00  0.00    +0.377 N 
ATOM     17  C   UNL     1     -12.537  -6.594   7.743  0.00  0.00    -0.097 C 
ATOM     18  H   UNL     1     -11.065  -7.620   8.812  0.00  0.00    -0.083 HD
ENDBRANCH  14  16
ENDBRANCH  13  14
ENDBRANCH   9  13
ENDBRANCH   8  10
ENDBRANCH   1   8
BRANCH   4  19
ATOM     19  C   UNL     1      -4.169  -0.496   3.804  0.00  0.00    +0.080 C 
BRANCH  19  20
ATOM     20  C   UNL     1      -4.934  -0.032   2.591  0.00  0.00    -0.025 A 
ATOM     21  C   UNL     1      -6.146   0.545   2.584  0.00  0.00    +0.086 A 
ATOM     22  N   UNL     1      -6.520   0.828   1.298  0.00  0.00    -0.360 N 
ATOM     23  H   UNL     1      -7.490   1.306   1.101  0.00  0.00    +0.165 HD
ATOM     24  C   UNL     1      -5.532   0.431   0.425  0.00  0.00    +0.047 A 
ATOM     25  C   UNL     1      -4.495  -0.126   1.196  0.00  0.00    +0.002 A 
ATOM     26  C   UNL     1      -3.349  -0.619   0.570  0.00  0.00    +0.016 A 
ATOM     27  C   UNL     1      -3.240  -0.559  -0.791  0.00  0.00    -0.021 A 
ATOM     28  C   UNL     1      -4.258  -0.006  -1.556  0.00  0.00    +0.008 A 
ATOM     29  C   UNL     1      -5.400   0.482  -0.959  0.00  0.00    +0.026 A 
BRANCH  27  30
ATOM     30  C   UNL     1      -2.003  -1.091  -1.466  0.00  0.00    +0.191 C 
BRANCH  30  31
ATOM     31  O   UNL     1      -2.188  -2.473  -1.779  0.00  0.00    -0.390 OA
ATOM     32  H   UNL     1      -1.386  -3.036  -2.278  0.00  0.00    +0.210 HD
ENDBRANCH  30  31
ENDBRANCH  27  30
ENDBRANCH  19  20
BRANCH  19  33
ATOM     33  C   UNL     1      -3.192   0.572   4.221  0.00  0.00    +0.347 C 
ATOM     34  O   UNL     1      -3.520   1.407   5.031  0.00  0.00    -0.248 OA
ATOM     35  O   UNL     1      -1.958   0.597   3.694  0.00  0.00    -0.248 OA
ENDBRANCH  19  33
ENDBRANCH   4  19
TORSDOF 10
