REMARK  Name = ZINC39016701
REMARK  7 active torsions:
REMARK  status: ('A' for Active; 'I' for Inactive)
REMARK    1  A    between atoms: C_6  and  C_7
REMARK    2  A    between atoms: C_9  and  C_13
REMARK    3  A    between atoms: C_17  and  S_21
REMARK    4  A    between atoms: N_19  and  N_20
REMARK    5  A    between atoms: S_21  and  C_22
REMARK    6  A    between atoms: C_22  and  C_23
REMARK    7  A    between atoms: N_25  and  C_26
REMARK                            x       y       z     vdW  Elec       q    Type
REMARK                         _______ _______ _______ _____ _____    ______ ____
ROOT
ATOM      1  C   UNL     1      -3.280  -3.158   1.237  0.00  0.00    +0.185 C 
ATOM      2  N   UNL     1      -3.117  -2.294   2.436  0.00  0.00    -0.234 NA
ATOM      3  N   UNL     1      -4.042  -2.898   3.408  0.00  0.00    -0.228 NA
ATOM      4  C   UNL     1      -5.211  -3.311   2.599  0.00  0.00    +0.214 C 
ATOM      5  N   UNL     1      -4.725  -3.481   1.212  0.00  0.00    -0.197 NA
ATOM      6  H   UNL     1      -2.167  -2.322   2.775  0.00  0.00    +0.143 HD
ATOM      7  H   UNL     1      -4.310  -2.230   4.115  0.00  0.00    +0.143 HD
ENDROOT
BRANCH   1  10
ATOM      8  C   UNL     1      -1.296  -0.787  -0.054  0.00  0.00    +0.091 C 
ATOM      9  C   UNL     1      -1.385  -2.131  -0.044  0.00  0.00    +0.034 C 
ATOM     10  C   UNL     1      -2.880  -2.397  -0.029  0.00  0.00    +0.187 C 
ATOM     11  N   UNL     1      -3.461  -1.044  -0.033  0.00  0.00    -0.176 NA
ATOM     12  N   UNL     1      -2.536  -0.230  -0.041  0.00  0.00    -0.154 NA
BRANCH   8  18
ATOM     13  C   UNL     1      -0.047   1.371  -0.074  0.00  0.00    +0.013 A 
ATOM     14  C   UNL     1       1.138   2.078  -0.089  0.00  0.00    +0.039 A 
ATOM     15  C   UNL     1       2.348   1.405  -0.101  0.00  0.00    +0.123 A 
ATOM     16  C   UNL     1       2.375   0.019  -0.098  0.00  0.00    +0.039 A 
ATOM     17  C   UNL     1       1.195  -0.696  -0.083  0.00  0.00    +0.013 A 
ATOM     18  C   UNL     1      -0.025  -0.022  -0.070  0.00  0.00    +0.002 A 
ATOM     19  F   UNL     1       3.506   2.101  -0.116  0.00  0.00    -0.205 F 
ENDBRANCH   8  18
ENDBRANCH   1  10
BRANCH   5  20
ATOM     20  N   UNL     1      -5.440  -2.604   0.298  0.00  0.00    -0.264 NA
ATOM     21  H   UNL     1      -6.424  -2.825   0.281  0.00  0.00    +0.137 HD
ATOM     22  H   UNL     1      -5.290  -1.635   0.536  0.00  0.00    +0.137 HD
ENDBRANCH   5  20
BRANCH   4  23
ATOM     23  S   UNL     1      -5.874  -4.881   3.220  0.00  0.00    -0.115 S 
BRANCH  23  24
ATOM     24  C   UNL     1      -4.476  -6.030   3.091  0.00  0.00    +0.168 C 
BRANCH  24  25
ATOM     25  C   UNL     1      -4.897  -7.391   3.582  0.00  0.00    +0.227 C 
ATOM     26  O   UNL     1      -6.029  -7.569   3.980  0.00  0.00    -0.275 OA
ATOM     27  N   UNL     1      -4.016  -8.411   3.578  0.00  0.00    -0.283 N 
ATOM     28  H   UNL     1      -3.132  -8.286   3.200  0.00  0.00    +0.155 HD
BRANCH  27  29
ATOM     29  C   UNL     1      -4.378  -9.651   4.121  0.00  0.00    +0.069 A 
ATOM     30  C   UNL     1      -5.684 -10.107   4.004  0.00  0.00    +0.027 A 
ATOM     31  C   UNL     1      -6.038 -11.330   4.539  0.00  0.00    +0.017 A 
ATOM     32  C   UNL     1      -5.094 -12.101   5.193  0.00  0.00    +0.021 A 
ATOM     33  C   UNL     1      -3.791 -11.651   5.312  0.00  0.00    +0.055 A 
ATOM     34  C   UNL     1      -3.429 -10.430   4.772  0.00  0.00    +0.146 A 
ATOM     35  F   UNL     1      -2.155  -9.992   4.883  0.00  0.00    -0.204 F 
ATOM     36 BR   UNL     1      -5.584 -13.774   5.925  0.00  0.00    -0.050 Br
ENDBRANCH  27  29
ENDBRANCH  24  25
ENDBRANCH  23  24
ENDBRANCH   4  23
TORSDOF 7
