REMARK  Name = ZINC63870213
REMARK  7 active torsions:
REMARK  status: ('A' for Active; 'I' for Inactive)
REMARK    1  A    between atoms: C_1  and  C_2
REMARK    2  A    between atoms: C_3  and  C_7
REMARK    3  A    between atoms: N_9  and  C_10
REMARK    4  A    between atoms: C_13  and  C_16
REMARK    5  A    between atoms: N_18  and  C_19
REMARK    6  A    between atoms: C_19  and  C_21
REMARK    7  A    between atoms: C_19  and  C_22
REMARK                            x       y       z     vdW  Elec       q    Type
REMARK                         _______ _______ _______ _____ _____    ______ ____
ROOT
ATOM      1  C   UNL     1      -8.941   0.019   0.414  0.00  0.00    +0.244 C 
ATOM      2  O   UNL     1      -9.279   1.187   0.414  0.00  0.00    -0.270 OA
ATOM      3  N   UNL     1      -9.872  -0.952   0.511  0.00  0.00    -0.305 N 
ATOM      4  H   UNL     1      -9.602  -1.883   0.511  0.00  0.00    +0.149 HD
ENDROOT
BRANCH   1   8
ATOM      5  C   UNL     1      -4.830  -1.003   0.111  0.00  0.00    +0.034 A 
ATOM      6  C   UNL     1      -5.215   0.334   0.110  0.00  0.00    +0.024 A 
ATOM      7  C   UNL     1      -6.547   0.669   0.208  0.00  0.00    +0.015 A 
ATOM      8  C   UNL     1      -7.513  -0.336   0.308  0.00  0.00    +0.037 A 
ATOM      9  C   UNL     1      -7.123  -1.678   0.309  0.00  0.00    +0.015 A 
ATOM     10  C   UNL     1      -5.790  -2.006   0.206  0.00  0.00    +0.024 A 
BRANCH   5  13
ATOM     11  C   UNL     1      -2.549  -0.561   0.598  0.00  0.00    +0.252 C 
ATOM     12  O   UNL     1      -2.876   0.477   1.141  0.00  0.00    -0.270 OA
ATOM     13  N   UNL     1      -3.481  -1.338   0.012  0.00  0.00    -0.281 N 
ATOM     14  H   UNL     1      -3.213  -2.131  -0.479  0.00  0.00    +0.155 HD
BRANCH  11  17
ATOM     15  C   UNL     1      -0.147   1.013   1.861  0.00  0.00    +0.087 C 
ATOM     16  C   UNL     1      -0.075  -0.299   1.123  0.00  0.00    +0.114 A 
ATOM     17  C   UNL     1      -1.133  -0.968   0.580  0.00  0.00    +0.078 A 
ATOM     18  C   UNL     1      -0.565  -2.181  -0.026  0.00  0.00    +0.054 A 
ATOM     19  C   UNL     1       0.755  -2.126   0.206  0.00  0.00    +0.196 A 
ATOM     20  O   UNL     1       1.036  -1.003   0.885  0.00  0.00    -0.467 OA
ENDBRANCH  11  17
ENDBRANCH   5  13
ENDBRANCH   1   8
BRANCH   3  21
ATOM     21  C   UNL     1     -11.290  -0.599   0.616  0.00  0.00    +0.113 C 
ATOM     22  C   UNL     1     -11.639  -0.321   2.079  0.00  0.00    +0.032 C 
BRANCH  21  23
ATOM     23  C   UNL     1     -12.143  -1.759   0.099  0.00  0.00    +0.194 C 
ATOM     24  N   UNL     1     -11.871  -1.990  -1.325  0.00  0.00    -0.362 N 
ATOM     25  C   UNL     1     -12.987  -1.809  -1.971  0.00  0.00    +0.060 A 
ATOM     26  C   UNL     1     -13.343  -1.895  -3.394  0.00  0.00    +0.027 A 
ATOM     27  C   UNL     1     -14.611  -1.649  -3.778  0.00  0.00    +0.002 A 
ATOM     28  C   UNL     1     -15.627  -1.308  -2.867  0.00  0.00    +0.002 A 
ATOM     29  C   UNL     1     -15.408  -1.201  -1.541  0.00  0.00    +0.027 A 
ATOM     30  C   UNL     1     -14.061  -1.448  -1.006  0.00  0.00    +0.060 A 
ATOM     31  N   UNL     1     -13.568  -1.420   0.198  0.00  0.00    -0.362 N 
ATOM     32  H   UNL     1     -11.016  -2.232  -1.714  0.00  0.00    +0.162 HD
ATOM     33  H   UNL     1     -14.053  -1.212   1.012  0.00  0.00    +0.162 HD
ENDBRANCH  21  23
ENDBRANCH   3  21
TORSDOF 5
