REMARK  Name = ZINC14952104
REMARK  8 active torsions:
REMARK  status: ('A' for Active; 'I' for Inactive)
REMARK    1  A    between atoms: C_4  and  C_7
REMARK    2  A    between atoms: C_7  and  C_8
REMARK    3  A    between atoms: C_8  and  N_58
REMARK    4  A    between atoms: C_14  and  C_16
REMARK    5  A    between atoms: C_16  and  C_17
REMARK    6  A    between atoms: N_19  and  C_20
REMARK    7  A    between atoms: C_20  and  C_21
REMARK    8  A    between atoms: C_21  and  O_27
REMARK                            x       y       z     vdW  Elec       q    Type
REMARK                         _______ _______ _______ _____ _____    ______ ____
ROOT
ATOM      1  C   UNL     1      -2.627   1.200   2.708  0.00  0.00    -0.059 C 
ATOM      2  C   UNL     1      -1.799   0.517   3.798  0.00  0.00    +0.085 C 
ATOM      3  N   UNL     1      -0.384   0.831   3.622  0.00  0.00    -0.318 N 
ATOM      4  C   UNL     1       0.119   1.293   2.475  0.00  0.00    +0.200 C 
ATOM      5  O   UNL     1       1.313   1.497   2.406  0.00  0.00    -0.278 OA
ATOM      6  C   UNL     1      -0.729   1.574   1.267  0.00  0.00    +0.028 C 
ATOM      7  H   UNL     1       0.217   0.696   4.372  0.00  0.00    +0.149 HD
ATOM      8  N   UNL     1      -2.020   0.873   1.401  0.00  0.00    +0.389 N 
ATOM      9  H   UNL     1      -1.860  -0.140   1.350  0.00  0.00    -0.081 HD
ENDROOT
BRANCH   8  10
ATOM     10  C   UNL     1      -2.931   1.273   0.304  0.00  0.00    -0.073 C 
BRANCH  10  11
ATOM     11  C   UNL     1      -3.272   2.760   0.414  0.00  0.00    +0.016 C 
BRANCH  11  15
ATOM     12  C   UNL     1      -5.632   3.932  -2.948  0.00  0.00    +0.000 A 
ATOM     13  C   UNL     1      -6.247   3.469  -1.800  0.00  0.00    +0.000 A 
ATOM     14  C   UNL     1      -5.483   3.090  -0.712  0.00  0.00    +0.003 A 
ATOM     15  C   UNL     1      -4.104   3.173  -0.772  0.00  0.00    -0.049 A 
ATOM     16  C   UNL     1      -3.490   3.642  -1.919  0.00  0.00    +0.003 A 
ATOM     17  C   UNL     1      -4.253   4.016  -3.009  0.00  0.00    +0.000 A 
ENDBRANCH  11  15
ENDBRANCH  10  11
ENDBRANCH   8  10
BRANCH   6  18
ATOM     18  C   UNL     1      -0.015   1.063   0.014  0.00  0.00    +0.089 C 
BRANCH  18  19
ATOM     19  C   UNL     1       0.136  -0.434   0.097  0.00  0.00    +0.212 C 
ATOM     20  O   UNL     1      -0.204  -1.023   1.101  0.00  0.00    -0.276 OA
ATOM     21  N   UNL     1       0.647  -1.119  -0.946  0.00  0.00    -0.313 N 
ATOM     22  H   UNL     1       0.919  -0.647  -1.749  0.00  0.00    +0.149 HD
BRANCH  21  23
ATOM     23  C   UNL     1       0.793  -2.574  -0.866  0.00  0.00    +0.138 C 
BRANCH  23  24
ATOM     24  C   UNL     1       1.393  -3.099  -2.171  0.00  0.00    +0.081 C 
ATOM     25  C   UNL     1       0.534  -2.636  -3.350  0.00  0.00    +0.036 C 
ATOM     26  C   UNL     1       1.134  -3.161  -4.656  0.00  0.00    +0.003 C 
ATOM     27  C   UNL     1       1.171  -4.690  -4.622  0.00  0.00    +0.000 C 
ATOM     28  C   UNL     1       2.030  -5.153  -3.443  0.00  0.00    +0.003 C 
ATOM     29  C   UNL     1       1.430  -4.628  -2.137  0.00  0.00    +0.036 C 
BRANCH  24  30
ATOM     30  O   UNL     1       2.721  -2.594  -2.322  0.00  0.00    -0.387 OA
ATOM     31  H   UNL     1       2.774  -1.629  -2.352  0.00  0.00    +0.210 HD
ENDBRANCH  24  30
ENDBRANCH  23  24
ENDBRANCH  21  23
ENDBRANCH  18  19
ENDBRANCH   6  18
TORSDOF 8
