REMARK  Name = ZINC20836382
REMARK  7 active torsions:
REMARK  status: ('A' for Active; 'I' for Inactive)
REMARK    1  A    between atoms: C_3  and  S_25
REMARK    2  A    between atoms: C_6  and  N_7
REMARK    3  A    between atoms: C_8  and  C_10
REMARK    4  A    between atoms: C_10  and  S_11
REMARK    5  A    between atoms: S_11  and  C_12
REMARK    6  A    between atoms: N_17  and  N_18
REMARK    7  A    between atoms: S_25  and  N_28
REMARK                            x       y       z     vdW  Elec       q    Type
REMARK                         _______ _______ _______ _____ _____    ______ ____
ROOT
ATOM      1  N   UNL     1       7.385   4.808  -0.041  0.00  0.00    -0.285 N 
ATOM      2  C   UNL     1       6.688   3.654  -0.038  0.00  0.00    +0.227 C 
ATOM      3  O   UNL     1       7.274   2.592  -0.040  0.00  0.00    -0.275 OA
ATOM      4  H   UNL     1       6.857   5.769   0.050  0.00  0.00    +0.155 HD
ENDROOT
BRANCH   1  10
ATOM      5  C   UNL     1       9.550   5.728   0.506  0.00  0.00    +0.025 A 
ATOM      6  C   UNL     1      10.926   5.697   0.392  0.00  0.00    +0.030 A 
ATOM      7  C   UNL     1      11.535   4.735  -0.393  0.00  0.00    +0.106 A 
ATOM      8  C   UNL     1      10.770   3.797  -1.060  0.00  0.00    +0.030 A 
ATOM      9  C   UNL     1       9.394   3.818  -0.946  0.00  0.00    +0.025 A 
ATOM     10  C   UNL     1       8.779   4.783  -0.159  0.00  0.00    +0.034 A 
BRANCH   7  11
ATOM     11  S   UNL     1      13.291   4.704  -0.541  0.00  0.00    +0.061 S 
ATOM     12  O   UNL     1      13.808   5.349   0.615  0.00  0.00    -0.153 OA
ATOM     13  O   UNL     1      13.645   3.374  -0.894  0.00  0.00    -0.153 OA
BRANCH  11  14
ATOM     14  N   UNL     1      13.689   5.659  -1.834  0.00  0.00    -0.177 NA
ATOM     15  C   UNL     1      13.779   5.051  -3.143  0.00  0.00    +0.109 C 
ATOM     16  C   UNL     1      15.212   4.531  -3.384  0.00  0.00    +0.017 C 
ATOM     17  C   UNL     1      16.138   5.658  -3.574  0.00  0.00    +0.001 C 
ATOM     18  C   UNL     1      16.267   6.577  -2.364  0.00  0.00    +0.001 C 
ATOM     19  C   UNL     1      15.161   7.603  -2.396  0.00  0.00    +0.017 C 
ATOM     20  C   UNL     1      13.944   7.094  -1.602  0.00  0.00    +0.109 C 
ENDBRANCH  11  14
ENDBRANCH   7  11
ENDBRANCH   1  10
BRANCH   2  21
ATOM     21  C   UNL     1       5.181   3.683  -0.033  0.00  0.00    +0.173 C 
BRANCH  21  22
ATOM     22  S   UNL     1       4.544   1.985  -0.031  0.00  0.00    -0.075 S 
BRANCH  22  23
ATOM     23  C   UNL     1       2.793   2.187  -0.025  0.00  0.00    +0.211 A 
ATOM     24  N   UNL     1       1.869   1.181  -0.022  0.00  0.00    -0.186 NA
ATOM     25  C   UNL     1       0.626   1.750  -0.018  0.00  0.00    +0.232 A 
ATOM     26  N   UNL     1       0.776   3.052  -0.023  0.00  0.00    -0.245 N 
ATOM     27  N   UNL     1       2.149   3.329  -0.023  0.00  0.00    -0.144 NA
ATOM     28  N   UNL     1      -0.583   1.067  -0.014  0.00  0.00    -0.205 N 
ATOM     29  H   UNL     1      -0.595  -0.032  -0.010  0.00  0.00    +0.177 HD
ATOM     30  H   UNL     1      -0.107   3.707  -0.027  0.00  0.00    +0.192 HD
BRANCH  28  31
ATOM     31  N   UNL     1      -1.790   1.780  -0.015  0.00  0.00    -0.189 NA
ATOM     32  C   UNL     1      -2.902   1.155  -0.111  0.00  0.00    +0.037 C 
ATOM     33  C   UNL     1      -2.935  -0.339  -0.345  0.00  0.00    +0.052 C 
ATOM     34  C   UNL     1      -3.853  -0.974   0.711  0.00  0.00    +0.006 C 
ATOM     35  C   UNL     1      -5.224  -0.299   0.661  0.00  0.00    +0.001 C 
ATOM     36  C   UNL     1      -5.090   1.177   1.040  0.00  0.00    +0.006 C 
ATOM     37  C   UNL     1      -4.219   1.892   0.002  0.00  0.00    +0.052 C 
ENDBRANCH  28  31
ENDBRANCH  22  23
ENDBRANCH  21  22
ENDBRANCH   2  21
TORSDOF 7
