REMARK  Name = ZINC01084283
REMARK  5 active torsions:
REMARK  status: ('A' for Active; 'I' for Inactive)
REMARK    1  A    between atoms: C_1  and  C_2
REMARK    2  A    between atoms: C_5  and  N_9
REMARK    3  A    between atoms: C_6  and  C_8
REMARK    4  A    between atoms: C_18  and  C_24
REMARK    5  A    between atoms: C_21  and  C_23
REMARK                            x       y       z     vdW  Elec       q    Type
REMARK                         _______ _______ _______ _____ _____    ______ ____
ROOT
ATOM      1  N   UNL     1       3.586   2.125  -0.021  0.00  0.00    -0.209 N 
ATOM      2  C   UNL     1       4.219   2.488   1.101  0.00  0.00    +0.233 C 
ATOM      3  O   UNL     1       3.838   2.249   2.227  0.00  0.00    -0.274 OA
ATOM      4  C   UNL     1       5.481   3.241   0.748  0.00  0.00    +0.126 C 
ATOM      5  C   UNL     1       5.466   3.249  -0.813  0.00  0.00    +0.126 C 
ATOM      6  C   UNL     1       4.199   2.496  -1.150  0.00  0.00    +0.233 C 
ATOM      7  O   UNL     1       3.800   2.266  -2.271  0.00  0.00    -0.274 OA
ATOM      8  C   UNL     1       6.702   2.305  -1.119  0.00  0.00    +0.098 C 
ATOM      9  C   UNL     1       6.272   0.907  -0.669  0.00  0.00    +0.007 C 
ATOM     10  C   UNL     1       6.274   0.921   0.653  0.00  0.00    +0.007 C 
ATOM     11  C   UNL     1       6.704   2.329   1.072  0.00  0.00    +0.098 C 
ATOM     12  O   UNL     1       7.612   2.672  -0.028  0.00  0.00    -0.358 OA
ATOM     13  C   UNL     1       7.267   2.455   2.489  0.00  0.00    +0.047 C 
ATOM     14  C   UNL     1       7.263   2.401  -2.539  0.00  0.00    +0.047 C 
ENDROOT
BRANCH   1  19
ATOM     15  C   UNL     1      -1.294  -0.774   0.010  0.00  0.00    +0.044 C 
ATOM     16  C   UNL     1       0.002  -0.004   0.002  0.00  0.00    -0.050 A 
ATOM     17  C   UNL     1      -0.017   1.379   0.010  0.00  0.00    +0.005 A 
ATOM     18  C   UNL     1       1.169   2.087   0.002  0.00  0.00    +0.024 A 
ATOM     19  C   UNL     1       2.381   1.409  -0.013  0.00  0.00    +0.047 A 
ATOM     20  C   UNL     1       2.396   0.021  -0.021  0.00  0.00    -0.028 A 
ATOM     21  C   UNL     1       1.207  -0.682  -0.014  0.00  0.00    +0.008 A 
ATOM     22  C   UNL     1       3.709  -0.718  -0.038  0.00  0.00    +0.046 C 
ENDBRANCH   1  19
TORSDOF 1
