REMARK  Name = ZINC38517673
REMARK  9 active torsions:
REMARK  status: ('A' for Active; 'I' for Inactive)
REMARK    1  A    between atoms: C_1  and  C_2
REMARK    2  A    between atoms: C_2  and  O_3
REMARK    3  A    between atoms: O_3  and  C_4
REMARK    4  A    between atoms: C_9  and  N_10
REMARK    5  A    between atoms: N_13  and  C_14
REMARK    6  A    between atoms: C_14  and  C_15
REMARK    7  A    between atoms: C_15  and  C_17
REMARK    8  A    between atoms: C_15  and  N_28
REMARK    9  A    between atoms: N_26  and  C_27
REMARK                            x       y       z     vdW  Elec       q    Type
REMARK                         _______ _______ _______ _____ _____    ______ ____
ROOT
ATOM      1  C   UNL     1       4.210  -0.877  -7.926  0.00  0.00    -0.020 C 
ENDROOT
BRANCH   1   2
ATOM      2  C   UNL     1       4.865  -1.626  -9.058  0.00  0.00    -0.059 A 
ATOM      3  C   UNL     1       4.085  -2.234 -10.025  0.00  0.00    +0.004 A 
ATOM      4  C   UNL     1       4.685  -2.921 -11.060  0.00  0.00    +0.023 A 
ATOM      5  C   UNL     1       6.071  -3.002 -11.132  0.00  0.00    +0.033 A 
ATOM      6  C   UNL     1       6.852  -2.389 -10.164  0.00  0.00    -0.026 A 
ATOM      7  C   UNL     1       6.242  -1.699  -9.130  0.00  0.00    +0.007 A 
ATOM      8  C   UNL     1       8.356  -2.446 -10.215  0.00  0.00    +0.038 C 
ATOM      9  C   UNL     1       8.819  -3.616 -11.083  0.00  0.00    +0.024 C 
ATOM     10  C   UNL     1       8.098  -3.545 -12.436  0.00  0.00    +0.105 C 
ATOM     11  N   UNL     1       6.659  -3.707 -12.187  0.00  0.00    -0.333 N 
ATOM     12  C   UNL     1       5.853  -4.594 -13.031  0.00  0.00    +0.129 C 
ENDBRANCH   1   2
BRANCH   1  13
ATOM     13  N   UNL     1       3.056  -0.126  -8.438  0.00  0.00    +0.385 N 
ATOM     14  C   UNL     1       3.489   0.740  -9.542  0.00  0.00    -0.078 C 
ATOM     15  C   UNL     1       2.277   1.464 -10.132  0.00  0.00    -0.019 C 
ATOM     16  C   UNL     1       1.616   2.313  -9.043  0.00  0.00    -0.004 C 
ATOM     17  C   UNL     1       1.236   1.411  -7.865  0.00  0.00    -0.019 C 
ATOM     18  C   UNL     1       2.487   0.690  -7.359  0.00  0.00    -0.078 C 
ATOM     19  H   UNL     1       2.358  -0.772  -8.774  0.00  0.00    -0.081 HD
ENDBRANCH   1  13
BRANCH   1  20
ATOM     20  C   UNL     1       3.741  -1.870  -6.861  0.00  0.00    +0.095 C 
BRANCH  20  24
ATOM     21  N   UNL     1       5.772  -4.281  -4.969  0.00  0.00    -0.266 N 
ATOM     22  C   UNL     1       4.711  -3.606  -5.453  0.00  0.00    +0.304 C 
ATOM     23  O   UNL     1       3.587  -3.903  -5.096  0.00  0.00    -0.253 OA
ATOM     24  N   UNL     1       4.895  -2.603  -6.334  0.00  0.00    -0.300 N 
ATOM     25  H   UNL     1       6.672  -3.990  -5.185  0.00  0.00    +0.156 HD
ATOM     26  H   UNL     1       5.791  -2.366  -6.619  0.00  0.00    +0.150 HD
BRANCH  21  32
ATOM     27  C   UNL     1       6.568  -5.796  -3.256  0.00  0.00    +0.142 A 
ATOM     28  C   UNL     1       6.366  -6.903  -2.447  0.00  0.00    +0.047 A 
ATOM     29  C   UNL     1       5.186  -7.617  -2.534  0.00  0.00    +0.004 A 
ATOM     30  C   UNL     1       4.204  -7.231  -3.427  0.00  0.00    +0.002 A 
ATOM     31  C   UNL     1       4.397  -6.128  -4.237  0.00  0.00    +0.027 A 
ATOM     32  C   UNL     1       5.576  -5.403  -4.152  0.00  0.00    +0.077 A 
BRANCH  27  33
ATOM     33  O   UNL     1       7.729  -5.093  -3.172  0.00  0.00    -0.490 OA
BRANCH  33  35
ATOM     34  C   UNL     1       9.930  -4.644  -2.280  0.00  0.00    +0.048 C 
ATOM     35  C   UNL     1       8.700  -5.554  -2.232  0.00  0.00    +0.226 C 
ENDBRANCH  33  35
ENDBRANCH  27  33
ENDBRANCH  21  32
ENDBRANCH  20  24
ENDBRANCH   1  20
TORSDOF 7
