REMARK  Name = ZINC16523828
REMARK  9 active torsions:
REMARK  status: ('A' for Active; 'I' for Inactive)
REMARK    1  A    between atoms: C_4  and  N_7
REMARK    2  A    between atoms: C_8  and  S_12
REMARK    3  A    between atoms: S_12  and  C_13
REMARK    4  A    between atoms: C_13  and  C_14
REMARK    5  A    between atoms: C_14  and  C_15
REMARK    6  A    between atoms: C_15  and  N_48
REMARK    7  A    between atoms: C_16  and  C_17
REMARK    8  A    between atoms: C_16  and  N_48
REMARK    9  A    between atoms: C_20  and  C_22
REMARK                            x       y       z     vdW  Elec       q    Type
REMARK                         _______ _______ _______ _____ _____    ______ ____
ROOT
ATOM      1  N   UNL     1       1.368   2.028  -0.000  0.00  0.00    +0.384 N 
ATOM      2  H   UNL     1       1.844   1.690  -0.845  0.00  0.00    -0.085 HD
ATOM      3  H   UNL     1       1.860   1.681   0.832  0.00  0.00    -0.085 HD
ENDROOT
BRANCH   1   4
ATOM      4  C   UNL     1      -0.019   1.526   0.010  0.00  0.00    -0.081 C 
BRANCH   4   5
ATOM      5  C   UNL     1       0.002  -0.004   0.002  0.00  0.00    -0.008 C 
BRANCH   5   6
ATOM      6  C   UNL     1      -1.433  -0.534   0.013  0.00  0.00    +0.075 C 
BRANCH   6   7
ATOM      7  S   UNL     1      -1.409  -2.344   0.003  0.00  0.00    -0.084 S 
BRANCH   7   9
ATOM      8  N   UNL     1      -3.728  -3.896   0.011  0.00  0.00    -0.187 N 
ATOM      9  C   UNL     1      -3.140  -2.673   0.018  0.00  0.00    +0.214 A 
ATOM     10  N   UNL     1      -4.106  -1.780   0.031  0.00  0.00    -0.101 NA
ATOM     11  N   UNL     1      -5.253  -2.358   0.038  0.00  0.00    -0.022 NA
ATOM     12  N   UNL     1      -5.110  -3.639   0.030  0.00  0.00    -0.038 NA
BRANCH   8  16
ATOM     13  C   UNL     1      -1.843  -7.614  -0.047  0.00  0.00    +0.000 A 
ATOM     14  C   UNL     1      -3.023  -7.449   0.655  0.00  0.00    +0.002 A 
ATOM     15  C   UNL     1      -3.650  -6.219   0.676  0.00  0.00    +0.028 A 
ATOM     16  C   UNL     1      -3.094  -5.146  -0.008  0.00  0.00    +0.070 A 
ATOM     17  C   UNL     1      -1.912  -5.316  -0.716  0.00  0.00    +0.028 A 
ATOM     18  C   UNL     1      -1.287  -6.547  -0.729  0.00  0.00    +0.002 A 
ENDBRANCH   8  16
ENDBRANCH   7   9
ENDBRANCH   6   7
ENDBRANCH   5   6
ENDBRANCH   4   5
ENDBRANCH   1   4
BRANCH   1  19
ATOM     19  C   UNL     1       1.379   3.503   0.008  0.00  0.00    -0.007 C 
BRANCH  19  20
ATOM     20  C   UNL     1       2.806   3.987  -0.003  0.00  0.00    +0.089 A 
ATOM     21  C   UNL     1       3.539   4.245  -1.104  0.00  0.00    +0.043 A 
ATOM     22  C   UNL     1       4.808   4.672  -0.663  0.00  0.00    +0.050 A 
ATOM     23  C   UNL     1       4.779   4.651   0.696  0.00  0.00    +0.135 A 
ATOM     24  O   UNL     1       3.556   4.238   1.082  0.00  0.00    -0.462 OA
BRANCH  23  25
ATOM     25  C   UNL     1       5.893   5.021   1.594  0.00  0.00    +0.017 A 
ATOM     26  C   UNL     1       7.115   5.434   1.060  0.00  0.00    +0.012 A 
ATOM     27  C   UNL     1       8.149   5.785   1.903  0.00  0.00    +0.016 A 
ATOM     28  C   UNL     1       7.980   5.716   3.276  0.00  0.00    +0.018 A 
ATOM     29  C   UNL     1       6.772   5.302   3.811  0.00  0.00    +0.016 A 
ATOM     30  C   UNL     1       5.729   4.954   2.978  0.00  0.00    +0.012 A 
ATOM     31 BR   UNL     1       9.405   6.190   4.424  0.00  0.00    -0.050 Br
ENDBRANCH  23  25
ENDBRANCH  19  20
ENDBRANCH   1  19
TORSDOF 9
