REMARK  Name = ZINC59148003
REMARK  12 active torsions:
REMARK  status: ('A' for Active; 'I' for Inactive)
REMARK    1  A    between atoms: C_1  and  C_2
REMARK    2  A    between atoms: C_5  and  S_8
REMARK    3  A    between atoms: S_8  and  O_11
REMARK    4  A    between atoms: O_11  and  C_12
REMARK    5  A    between atoms: C_15  and  C_18
REMARK    6  A    between atoms: N_19  and  N_20
REMARK    7  A    between atoms: C_21  and  C_23
REMARK    8  A    between atoms: C_23  and  C_25
REMARK    9  A    between atoms: C_23  and  N_29
REMARK   10  A    between atoms: C_25  and  C_26
REMARK   11  A    between atoms: C_26  and  C_27
REMARK   12  A    between atoms: C_26  and  C_28
REMARK                            x       y       z     vdW  Elec       q    Type
REMARK                         _______ _______ _______ _____ _____    ______ ____
ROOT
ATOM      1  C   UNL     1       4.354  -3.480   0.776  0.00  0.00    +0.157 A 
ATOM      2  C   UNL     1       4.840  -2.340   1.403  0.00  0.00    +0.049 A 
ATOM      3  C   UNL     1       5.135  -2.364   2.749  0.00  0.00    +0.013 A 
ATOM      4  C   UNL     1       4.944  -3.537   3.483  0.00  0.00    -0.005 A 
ATOM      5  C   UNL     1       4.454  -4.682   2.849  0.00  0.00    +0.013 A 
ATOM      6  C   UNL     1       4.157  -4.647   1.503  0.00  0.00    +0.049 A 
ENDROOT
BRANCH   4   7
ATOM      7  C   UNL     1       5.258  -3.567   4.923  0.00  0.00    +0.138 C 
ATOM      8  N   UNL     1       5.080  -4.658   5.604  0.00  0.00    -0.188 NA
BRANCH   8   9
ATOM      9  N   UNL     1       5.378  -4.687   6.972  0.00  0.00    -0.208 N 
ATOM     10  C   UNL     1       5.193  -5.820   7.679  0.00  0.00    +0.218 C 
ATOM     11  O   UNL     1       4.768  -6.815   7.129  0.00  0.00    -0.276 OA
ATOM     12  H   UNL     1       5.718  -3.892   7.411  0.00  0.00    +0.177 HD
BRANCH  10  13
ATOM     13  C   UNL     1       5.514  -5.851   9.151  0.00  0.00    +0.015 C 
BRANCH  13  14
ATOM     14  N   UNL     1       5.695  -7.243   9.583  0.00  0.00    +0.386 N 
ATOM     15  H   UNL     1       4.817  -7.735   9.511  0.00  0.00    -0.089 HD
ATOM     16  H   UNL     1       6.381  -7.692   8.994  0.00  0.00    -0.089 HD
ATOM     17  H   UNL     1       6.013  -7.259  10.541  0.00  0.00    -0.089 HD
ENDBRANCH  13  14
BRANCH  13  18
ATOM     18  C   UNL     1       4.364  -5.218   9.937  0.00  0.00    -0.004 C 
BRANCH  18  19
ATOM     19  C   UNL     1       4.746  -5.129  11.416  0.00  0.00    -0.018 C 
ATOM     20  C   UNL     1       5.916  -4.157  11.582  0.00  0.00    +0.007 C 
ATOM     21  C   UNL     1       3.547  -4.627  12.223  0.00  0.00    +0.007 C 
ENDBRANCH  18  19
ENDBRANCH  13  18
ENDBRANCH  10  13
ENDBRANCH   8   9
ENDBRANCH   4   7
BRANCH   1  22
ATOM     22  O   UNL     1       4.065  -3.452  -0.551  0.00  0.00    -0.342 OA
BRANCH  22  23
ATOM     23  S   UNL     1       2.634  -3.039  -0.864  0.00  0.00    +0.151 S 
ATOM     24  O   UNL     1       1.811  -3.642   0.126  0.00  0.00    -0.131 OA
ATOM     25  O   UNL     1       2.441  -3.262  -2.254  0.00  0.00    -0.131 OA
BRANCH  23  30
ATOM     26  C   UNL     1       2.267   2.922  -0.007  0.00  0.00    +0.044 C 
ATOM     27  C   UNL     1       2.359   1.433  -0.221  0.00  0.00    -0.050 A 
ATOM     28  C   UNL     1       2.705   0.933  -1.462  0.00  0.00    +0.005 A 
ATOM     29  C   UNL     1       2.789  -0.432  -1.659  0.00  0.00    +0.031 A 
ATOM     30  C   UNL     1       2.527  -1.298  -0.613  0.00  0.00    +0.128 A 
ATOM     31  C   UNL     1       2.183  -0.798   0.629  0.00  0.00    +0.031 A 
ATOM     32  C   UNL     1       2.103   0.568   0.826  0.00  0.00    +0.005 A 
ENDBRANCH  23  30
ENDBRANCH  22  23
ENDBRANCH   1  22
TORSDOF 9
