REMARK  Name = ZINC59447154
REMARK  12 active torsions:
REMARK  status: ('A' for Active; 'I' for Inactive)
REMARK    1  A    between atoms: C_1  and  O_2
REMARK    2  A    between atoms: O_2  and  C_3
REMARK    3  A    between atoms: C_7  and  N_9
REMARK    4  A    between atoms: C_10  and  C_12
REMARK    5  A    between atoms: C_12  and  N_13
REMARK    6  A    between atoms: N_13  and  C_14
REMARK    7  A    between atoms: C_14  and  C_15
REMARK    8  A    between atoms: C_15  and  C_16
REMARK    9  A    between atoms: C_16  and  N_17
REMARK   10  A    between atoms: N_17  and  C_18
REMARK   11  A    between atoms: C_21  and  C_27
REMARK   12  A    between atoms: C_23  and  N_24
REMARK                            x       y       z     vdW  Elec       q    Type
REMARK                         _______ _______ _______ _____ _____    ______ ____
ROOT
ATOM      1  C   UNL     1      -5.239  -8.122   0.199  0.00  0.00    -0.080 C 
ENDROOT
BRANCH   1   2
ATOM      2  N   UNL     1      -5.185  -6.663   0.032  0.00  0.00    +0.385 N 
ATOM      3  H   UNL     1      -5.589  -6.216   0.841  0.00  0.00    -0.085 HD
ATOM      4  H   UNL     1      -5.704  -6.399  -0.792  0.00  0.00    -0.085 HD
BRANCH   2   5
ATOM      5  C   UNL     1      -3.786  -6.239  -0.114  0.00  0.00    +0.015 C 
BRANCH   5   7
ATOM      6  N   UNL     1      -2.541  -4.127  -0.439  0.00  0.00    -0.287 N 
ATOM      7  C   UNL     1      -3.730  -4.743  -0.286  0.00  0.00    +0.200 C 
ATOM      8  O   UNL     1      -4.754  -4.094  -0.287  0.00  0.00    -0.278 OA
ATOM      9  H   UNL     1      -1.728  -4.651  -0.514  0.00  0.00    +0.155 HD
BRANCH   6  14
ATOM     10  C   UNL     1      -1.468  -0.721  -1.328  0.00  0.00    +0.122 A 
ATOM     11  C   UNL     1      -2.361   0.037  -0.583  0.00  0.00    +0.046 A 
ATOM     12  C   UNL     1      -3.309  -0.588   0.205  0.00  0.00    +0.005 A 
ATOM     13  C   UNL     1      -3.370  -1.967   0.254  0.00  0.00    +0.023 A 
ATOM     14  C   UNL     1      -2.479  -2.730  -0.489  0.00  0.00    +0.037 A 
ATOM     15  C   UNL     1      -1.530  -2.104  -1.285  0.00  0.00    +0.069 A 
BRANCH  10  17
ATOM     16  C   UNL     1      -0.530   1.324  -2.099  0.00  0.00    +0.277 C 
ATOM     17  O   UNL     1      -0.536  -0.105  -2.103  0.00  0.00    -0.495 OA
ENDBRANCH  10  17
ENDBRANCH   6  14
ENDBRANCH   5   7
ENDBRANCH   2   5
ENDBRANCH   1   2
BRANCH   1  18
ATOM     18  C   UNL     1      -6.696  -8.563   0.351  0.00  0.00    -0.000 C 
BRANCH  18  19
ATOM     19  C   UNL     1      -6.753 -10.082   0.525  0.00  0.00    +0.100 C 
BRANCH  19  20
ATOM     20  N   UNL     1      -8.149 -10.505   0.671  0.00  0.00    -0.342 N 
ATOM     21  H   UNL     1      -8.860  -9.846   0.647  0.00  0.00    +0.146 HD
BRANCH  20  22
ATOM     22  C   UNL     1      -8.454 -11.857   0.844  0.00  0.00    +0.058 A 
ATOM     23  C   UNL     1      -7.433 -12.791   0.968  0.00  0.00    +0.026 A 
ATOM     24  C   UNL     1      -7.739 -14.127   1.139  0.00  0.00    +0.014 A 
ATOM     25  C   UNL     1      -9.059 -14.535   1.187  0.00  0.00    +0.057 A 
ATOM     26  C   UNL     1     -10.078 -13.608   1.064  0.00  0.00    +0.047 A 
ATOM     27  C   UNL     1      -9.779 -12.270   0.898  0.00  0.00    +0.147 A 
BRANCH  25  28
ATOM     28  C   UNL     1      -9.389 -15.993   1.375  0.00  0.00    +0.417 C 
ATOM     29  F   UNL     1      -8.204 -16.730   1.474  0.00  0.00    -0.166 F 
ATOM     30  F   UNL     1     -10.139 -16.156   2.545  0.00  0.00    -0.166 F 
ATOM     31  F   UNL     1     -10.131 -16.448   0.279  0.00  0.00    -0.166 F 
ENDBRANCH  25  28
BRANCH  27  32
ATOM     32  N   UNL     1     -10.870 -11.277   0.772  0.00  0.00    +0.058 N 
ATOM     33  O   UNL     1     -10.757 -10.187   1.282  0.00  0.00    -0.126 OA
ATOM     34  O   UNL     1     -11.873 -11.557   0.158  0.00  0.00    -0.126 OA
ENDBRANCH  27  32
ENDBRANCH  20  22
ENDBRANCH  19  20
ENDBRANCH  18  19
ENDBRANCH   1  18
TORSDOF 11
