REMARK  Name = ZINC44558532
REMARK  4 active torsions:
REMARK  status: ('A' for Active; 'I' for Inactive)
REMARK    1  A    between atoms: C_2  and  C_11
REMARK    2  A    between atoms: C_11  and  N_12
REMARK    3  A    between atoms: C_17  and  C_19
REMARK    4  A    between atoms: C_19  and  N_20
REMARK                            x       y       z     vdW  Elec       q    Type
REMARK                         _______ _______ _______ _____ _____    ______ ____
ROOT
ATOM      1  N   UNL     1       1.690   4.094   1.208  0.00  0.00    +0.384 N 
ATOM      2  C   UNL     1       0.785   3.803   2.327  0.00  0.00    -0.078 C 
ATOM      3  C   UNL     1       1.480   4.139   3.648  0.00  0.00    -0.019 C 
ATOM      4  C   UNL     1       1.850   5.625   3.661  0.00  0.00    -0.003 C 
ATOM      5  C   UNL     1       2.732   5.932   2.448  0.00  0.00    -0.017 C 
ATOM      6  C   UNL     1       1.992   5.530   1.171  0.00  0.00    -0.086 C 
ATOM      7  H   UNL     1       2.546   3.574   1.326  0.00  0.00    -0.081 HD
ENDROOT
BRANCH   1   8
ATOM      8  C   UNL     1       1.048   3.697  -0.053  0.00  0.00    -0.022 C 
BRANCH   8  10
ATOM      9  C   UNL     1      -0.414   1.661  -0.078  0.00  0.00    +0.093 A 
ATOM     10  C   UNL     1       0.854   2.203  -0.070  0.00  0.00    +0.033 A 
ATOM     11  N   UNL     1       1.902   1.383  -0.077  0.00  0.00    -0.228 NA
ATOM     12  C   UNL     1       1.743   0.084  -0.092  0.00  0.00    +0.199 A 
ATOM     13  N   UNL     1       0.524  -0.537  -0.101  0.00  0.00    -0.171 N 
ATOM     14  C   UNL     1      -0.574   0.275  -0.094  0.00  0.00    +0.275 A 
ATOM     15  O   UNL     1      -1.694  -0.211  -0.101  0.00  0.00    -0.266 OA
ATOM     16  N   UNL     1       0.542  -1.928  -0.116  0.00  0.00    -0.163 NA
ATOM     17  C   UNL     1       1.656  -2.595  -0.121  0.00  0.00    +0.182 A 
ATOM     18  S   UNL     1       2.874  -1.289  -0.105  0.00  0.00    -0.036 S 
ENDBRANCH   8  10
ENDBRANCH   1   8
BRANCH   6  19
ATOM     19  C   UNL     1       2.870   5.835  -0.044  0.00  0.00    -0.102 C 
BRANCH  19  20
ATOM     20  N   UNL     1       4.057   4.969  -0.021  0.00  0.00    +0.377 N 
ATOM     21  H   UNL     1       4.536   5.080   0.861  0.00  0.00    -0.090 HD
ATOM     22  H   UNL     1       3.774   4.007  -0.131  0.00  0.00    -0.090 HD
ATOM     23  H   UNL     1       4.676   5.226  -0.775  0.00  0.00    -0.090 HD
ENDBRANCH  19  20
ENDBRANCH   6  19
TORSDOF 4
