REMARK  Name = ZINC25512846
REMARK  4 active torsions:
REMARK  status: ('A' for Active; 'I' for Inactive)
REMARK    1  A    between atoms: N_10  and  C_11
REMARK    2  A    between atoms: C_11  and  C_12
REMARK    3  A    between atoms: C_15  and  S_17
REMARK    4  A    between atoms: S_17  and  N_20
REMARK                            x       y       z     vdW  Elec       q    Type
REMARK                         _______ _______ _______ _____ _____    ______ ____
ROOT
ATOM      1  C   UNL     1      -0.013   1.086   0.008  0.00  0.00    +0.148 C 
ENDROOT
BRANCH   1  11
ATOM      2  C   UNL     1       0.716   0.580  -6.787  0.00  0.00    +0.002 A 
ATOM      3  C   UNL     1       1.761  -0.137  -6.224  0.00  0.00    +0.004 A 
ATOM      4  C   UNL     1       1.891  -0.225  -4.853  0.00  0.00    +0.048 A 
ATOM      5  C   UNL     1       0.972   0.406  -4.030  0.00  0.00    +0.157 A 
ATOM      6  C   UNL     1      -0.087   1.132  -4.595  0.00  0.00    +0.111 A 
ATOM      7  C   UNL     1      -0.207   1.213  -5.983  0.00  0.00    +0.031 A 
ATOM      8  N   UNL     1      -0.814   1.632  -3.558  0.00  0.00    -0.195 NA
ATOM      9  C   UNL     1      -0.259   1.252  -2.435  0.00  0.00    +0.289 A 
ATOM     10  O   UNL     1       0.833   0.509  -2.688  0.00  0.00    -0.425 OA
ATOM     11  N   UNL     1      -0.721   1.571  -1.179  0.00  0.00    -0.294 N 
ATOM     12  H   UNL     1      -1.623   2.191  -1.066  0.00  0.00    +0.151 HD
ENDBRANCH   1  11
BRANCH   1  13
ATOM     13  C   UNL     1      -0.718   1.572   1.248  0.00  0.00    +0.009 A 
ATOM     14  C   UNL     1      -1.714   0.979   1.951  0.00  0.00    +0.015 A 
ATOM     15  C   UNL     1      -2.214   1.616   3.071  0.00  0.00    +0.036 A 
ATOM     16  C   UNL     1      -1.694   2.814   3.433  0.00  0.00    +0.142 A 
ATOM     17  S   UNL     1      -0.454   3.074   2.176  0.00  0.00    -0.072 S 
BRANCH  16  18
ATOM     18  S   UNL     1      -2.127   3.846   4.795  0.00  0.00    +0.062 S 
ATOM     19  O   UNL     1      -1.738   5.166   4.444  0.00  0.00    -0.153 OA
ATOM     20  O   UNL     1      -3.462   3.513   5.148  0.00  0.00    -0.153 OA
BRANCH  18  21
ATOM     21  N   UNL     1      -1.173   3.395   6.072  0.00  0.00    -0.203 NA
ATOM     22  H   UNL     1      -1.413   4.018   6.947  0.00  0.00    +0.144 HD
ATOM     23  H   UNL     1      -0.115   3.530   5.805  0.00  0.00    +0.144 HD
ENDBRANCH  18  21
ENDBRANCH  16  18
ENDBRANCH   1  13
TORSDOF 4
