REMARK  Name = ZINC33521125
REMARK  11 active torsions:
REMARK  status: ('A' for Active; 'I' for Inactive)
REMARK    1  A    between atoms: C_1  and  C_2
REMARK    2  A    between atoms: C_3  and  C_17
REMARK    3  A    between atoms: C_4  and  N_11
REMARK    4  A    between atoms: C_6  and  C_7
REMARK    5  A    between atoms: C_7  and  O_9
REMARK    6  A    between atoms: O_9  and  C_10
REMARK    7  A    between atoms: C_12  and  C_14
REMARK    8  A    between atoms: C_14  and  C_15
REMARK    9  A    between atoms: C_15  and  N_16
REMARK   10  A    between atoms: C_17  and  O_19
REMARK   11  A    between atoms: O_19  and  C_20
REMARK                            x       y       z     vdW  Elec       q    Type
REMARK                         _______ _______ _______ _____ _____    ______ ____
ROOT
ATOM      1  C   UNL     1       1.246   3.546   2.530  0.00  0.00    +0.046 C 
ATOM      2  C   UNL     1       1.266   4.253   1.199  0.00  0.00    -0.014 A 
ATOM      3  C   UNL     1       1.232   3.542   0.009  0.00  0.00    +0.091 A 
ATOM      4  C   UNL     1       1.248   4.272  -1.185  0.00  0.00    +0.087 A 
ATOM      5  S   UNL     1       1.317   5.914  -0.635  0.00  0.00    -0.066 S 
ATOM      6  C   UNL     1       1.323   5.618   1.123  0.00  0.00    +0.102 A 
ENDROOT
BRANCH   4   7
ATOM      7  N   UNL     1       1.217   3.800  -2.482  0.00  0.00    -0.279 N 
ATOM      8  C   UNL     1       1.240   4.665  -3.515  0.00  0.00    +0.216 C 
ATOM      9  O   UNL     1       1.288   5.858  -3.305  0.00  0.00    -0.276 OA
ATOM     10  H   UNL     1       1.173   2.717  -2.672  0.00  0.00    +0.155 HD
BRANCH   8  11
ATOM     11  C   UNL     1       1.206   4.150  -4.931  0.00  0.00    +0.077 C 
BRANCH  11  12
ATOM     12  C   UNL     1       1.241   5.330  -5.904  0.00  0.00    -0.077 C 
BRANCH  12  13
ATOM     13  N   UNL     1       1.208   4.827  -7.284  0.00  0.00    +0.378 N 
ATOM     14  H   UNL     1       1.234   5.676  -7.984  0.00  0.00    -0.090 HD
ATOM     15  H   UNL     1       0.285   4.250  -7.442  0.00  0.00    -0.090 HD
ATOM     16  H   UNL     1       2.080   4.180  -7.460  0.00  0.00    -0.090 HD
ENDBRANCH  12  13
ENDBRANCH  11  12
ENDBRANCH   8  11
ENDBRANCH   4   7
BRANCH   6  17
ATOM     17  C   UNL     1       1.371   6.593   2.213  0.00  0.00    +0.346 C 
ATOM     18  O   UNL     1       1.368   6.213   3.369  0.00  0.00    -0.244 OA
BRANCH  17  19
ATOM     19  O   UNL     1       1.420   7.912   1.937  0.00  0.00    -0.464 OA
ATOM     20  C   UNL     1       1.465   8.807   3.050  0.00  0.00    +0.280 C 
ENDBRANCH  17  19
ENDBRANCH   6  17
BRANCH   3  21
ATOM     21  C   UNL     1       1.175   2.076   0.002  0.00  0.00    +0.342 C 
ATOM     22  O   UNL     1       2.204   1.428  -0.011  0.00  0.00    -0.245 OA
BRANCH  21  23
ATOM     23  O   UNL     1      -0.018   1.448   0.010  0.00  0.00    -0.464 OA
ATOM     24  C   UNL     1       0.002  -0.004   0.002  0.00  0.00    +0.280 C 
ENDBRANCH  21  23
ENDBRANCH   3  21
TORSDOF 8
