REMARK  Name = ZINC07490432
REMARK  8 active torsions:
REMARK  status: ('A' for Active; 'I' for Inactive)
REMARK    1  A    between atoms: C_1  and  C_2
REMARK    2  A    between atoms: C_5  and  N_8
REMARK    3  A    between atoms: C_9  and  C_11
REMARK    4  A    between atoms: C_11  and  N_44
REMARK    5  A    between atoms: C_12  and  N_44
REMARK    6  A    between atoms: C_13  and  C_14
REMARK    7  A    between atoms: C_13  and  N_44
REMARK    8  A    between atoms: N_16  and  C_17
REMARK                            x       y       z     vdW  Elec       q    Type
REMARK                         _______ _______ _______ _____ _____    ______ ____
ROOT
ATOM      1  C   UNL     1       2.619   2.272  -2.238  0.00  0.00    -0.095 C 
ATOM      2  N   UNL     1       2.564   1.997  -0.787  0.00  0.00    +0.389 N 
ATOM      3  H   UNL     1       1.942   2.681  -0.341  0.00  0.00    -0.081 HD
ENDROOT
BRANCH   2   4
ATOM      4  C   UNL     1       3.915   2.122  -0.198  0.00  0.00    +0.019 C 
BRANCH   4   6
ATOM      5  N   UNL     1       5.537   3.938   0.238  0.00  0.00    -0.287 N 
ATOM      6  C   UNL     1       4.340   3.567  -0.258  0.00  0.00    +0.201 C 
ATOM      7  O   UNL     1       3.605   4.395  -0.753  0.00  0.00    -0.278 OA
ATOM      8  H   UNL     1       6.155   3.267   0.567  0.00  0.00    +0.155 HD
BRANCH   5  13
ATOM      9  C   UNL     1       6.959   9.427   0.403  0.00  0.00    +0.044 C 
ATOM     10  C   UNL     1       6.581   7.969   0.359  0.00  0.00    -0.050 A 
ATOM     11  C   UNL     1       5.260   7.593   0.521  0.00  0.00    +0.005 A 
ATOM     12  C   UNL     1       4.910   6.258   0.482  0.00  0.00    +0.023 A 
ATOM     13  C   UNL     1       5.887   5.292   0.279  0.00  0.00    +0.033 A 
ATOM     14  C   UNL     1       7.214   5.672   0.122  0.00  0.00    +0.023 A 
ATOM     15  C   UNL     1       7.556   7.010   0.156  0.00  0.00    +0.005 A 
ENDBRANCH   5  13
ENDBRANCH   4   6
ENDBRANCH   2   4
BRANCH   2  16
ATOM     16  C   UNL     1       2.033   0.639  -0.550  0.00  0.00    +0.019 C 
BRANCH  16  17
ATOM     17  C   UNL     1       0.584   0.605  -0.960  0.00  0.00    +0.201 C 
ATOM     18  O   UNL     1       0.059   1.599  -1.415  0.00  0.00    -0.278 OA
ATOM     19  N   UNL     1      -0.130  -0.530  -0.821  0.00  0.00    -0.287 N 
ATOM     20  H   UNL     1       0.308  -1.345  -0.530  0.00  0.00    +0.155 HD
BRANCH  19  21
ATOM     21  C   UNL     1      -1.501  -0.533  -1.100  0.00  0.00    +0.033 A 
ATOM     22  C   UNL     1      -2.268   0.593  -0.832  0.00  0.00    +0.024 A 
ATOM     23  C   UNL     1      -3.620   0.589  -1.114  0.00  0.00    +0.017 A 
ATOM     24  C   UNL     1      -4.213  -0.539  -1.653  0.00  0.00    +0.018 A 
ATOM     25  C   UNL     1      -3.452  -1.665  -1.916  0.00  0.00    +0.017 A 
ATOM     26  C   UNL     1      -2.098  -1.664  -1.641  0.00  0.00    +0.024 A 
ATOM     27 BR   UNL     1      -6.066  -0.544  -2.031  0.00  0.00    -0.050 Br
ENDBRANCH  19  21
ENDBRANCH  16  17
ENDBRANCH   2  16
TORSDOF 6
