REMARK  Name = ZINC39533983
REMARK  10 active torsions:
REMARK  status: ('A' for Active; 'I' for Inactive)
REMARK    1  A    between atoms: C_1  and  O_2
REMARK    2  A    between atoms: O_2  and  C_3
REMARK    3  A    between atoms: N_6  and  C_10
REMARK    4  A    between atoms: C_10  and  C_12
REMARK    5  A    between atoms: C_10  and  C_21
REMARK    6  A    between atoms: C_12  and  N_13
REMARK    7  A    between atoms: N_13  and  C_14
REMARK    8  A    between atoms: C_19  and  O_20
REMARK    9  A    between atoms: C_24  and  C_27
REMARK   10  A    between atoms: C_32  and  O_33
REMARK                            x       y       z     vdW  Elec       q    Type
REMARK                         _______ _______ _______ _____ _____    ______ ____
ROOT
ATOM      1  C   UNL     1       0.629  -4.064  -2.515  0.00  0.00    -0.020 C 
ENDROOT
BRANCH   1   4
ATOM      2  C   UNL     1       0.783  -0.465  -1.461  0.00  0.00    +0.169 C 
ATOM      3  C   UNL     1       0.425  -1.951  -1.398  0.00  0.00    -0.030 C 
ATOM      4  N   UNL     1       0.988  -2.640  -2.567  0.00  0.00    +0.389 N 
ATOM      5  C   UNL     1       2.451  -2.504  -2.559  0.00  0.00    -0.062 C 
ATOM      6  C   UNL     1       2.825  -1.022  -2.632  0.00  0.00    +0.065 C 
ATOM      7  N   UNL     1       2.245  -0.316  -1.482  0.00  0.00    -0.295 NA
ATOM      8  H   UNL     1       2.509   0.658  -1.484  0.00  0.00    +0.124 HD
ATOM      9  H   UNL     1       0.617  -2.230  -3.410  0.00  0.00    -0.081 HD
BRANCH   2  11
ATOM     10  C   UNL     1       0.229   1.627  -0.430  0.00  0.00    +0.196 C 
ATOM     11  O   UNL     1       0.251   0.203  -0.315  0.00  0.00    -0.367 OA
ENDBRANCH   2  11
ENDBRANCH   1   4
BRANCH   1  12
ATOM     12  C   UNL     1       1.238  -4.779  -3.693  0.00  0.00    -0.059 A 
ATOM     13  C   UNL     1       1.259  -4.168  -4.934  0.00  0.00    +0.002 A 
ATOM     14  C   UNL     1       1.816  -4.818  -6.017  0.00  0.00    +0.009 A 
ATOM     15  C   UNL     1       2.358  -6.092  -5.858  0.00  0.00    -0.014 A 
ATOM     16  C   UNL     1       2.335  -6.702  -4.605  0.00  0.00    +0.009 A 
ATOM     17  C   UNL     1       1.781  -6.041  -3.529  0.00  0.00    +0.002 A 
BRANCH  15  18
ATOM     18  C   UNL     1       2.958  -6.796  -7.018  0.00  0.00    +0.024 A 
ATOM     19  C   UNL     1       2.255  -6.892  -8.217  0.00  0.00    +0.012 A 
ATOM     20  C   UNL     1       2.817  -7.548  -9.293  0.00  0.00    +0.001 A 
ATOM     21  C   UNL     1       4.077  -8.112  -9.186  0.00  0.00    +0.004 A 
ATOM     22  C   UNL     1       4.782  -8.023  -8.001  0.00  0.00    +0.046 A 
ATOM     23  C   UNL     1       4.232  -7.361  -6.914  0.00  0.00    +0.125 A 
BRANCH  23  24
ATOM     24  O   UNL     1       4.927  -7.268  -5.751  0.00  0.00    -0.506 OA
ATOM     25  H   UNL     1       4.769  -8.000  -5.139  0.00  0.00    +0.292 HD
ENDBRANCH  23  24
ENDBRANCH  15  18
ENDBRANCH   1  12
BRANCH   1  26
ATOM     26  C   UNL     1      -0.894  -4.208  -2.563  0.00  0.00    +0.091 C 
BRANCH  26  27
ATOM     27  N   UNL     1      -1.255  -5.621  -2.432  0.00  0.00    -0.342 N 
ATOM     28  H   UNL     1      -0.568  -6.284  -2.260  0.00  0.00    +0.146 HD
BRANCH  27  29
ATOM     29  C   UNL     1      -2.592  -6.016  -2.556  0.00  0.00    +0.069 A 
ATOM     30  C   UNL     1      -3.576  -5.071  -2.809  0.00  0.00    +0.026 A 
ATOM     31  C   UNL     1      -4.895  -5.464  -2.932  0.00  0.00    +0.002 A 
ATOM     32  C   UNL     1      -5.238  -6.797  -2.803  0.00  0.00    +0.004 A 
ATOM     33  C   UNL     1      -4.263  -7.745  -2.551  0.00  0.00    +0.047 A 
ATOM     34  C   UNL     1      -2.938  -7.360  -2.432  0.00  0.00    +0.138 A 
BRANCH  34  35
ATOM     35  O   UNL     1      -1.977  -8.291  -2.189  0.00  0.00    -0.505 OA
ATOM     36  H   UNL     1      -1.812  -8.451  -1.250  0.00  0.00    +0.292 HD
ENDBRANCH  34  35
ENDBRANCH  27  29
ENDBRANCH  26  27
ENDBRANCH   1  26
TORSDOF 9
