REMARK  Name = ZINC43335961
REMARK  9 active torsions:
REMARK  status: ('A' for Active; 'I' for Inactive)
REMARK    1  A    between atoms: C_1  and  C_2
REMARK    2  A    between atoms: C_2  and  C_3
REMARK    3  A    between atoms: C_3  and  C_5
REMARK    4  A    between atoms: C_3  and  N_21
REMARK    5  A    between atoms: C_5  and  C_7
REMARK    6  A    between atoms: C_5  and  N_12
REMARK    7  A    between atoms: N_12  and  C_13
REMARK    8  A    between atoms: N_12  and  C_14
REMARK    9  A    between atoms: C_14  and  C_15
REMARK                            x       y       z     vdW  Elec       q    Type
REMARK                         _______ _______ _______ _____ _____    ______ ____
ROOT
ATOM      1  C   UNL     1       0.551  -2.025   1.346  0.00  0.00    +0.108 C 
ENDROOT
BRANCH   1   2
ATOM      2  C   UNL     1       1.188  -2.482   2.634  0.00  0.00    +0.120 A 
ATOM      3  C   UNL     1       2.394  -3.065   2.751  0.00  0.00    +0.046 A 
ATOM      4  C   UNL     1       2.591  -3.325   4.126  0.00  0.00    +0.041 A 
ATOM      5  C   UNL     1       1.494  -2.886   4.767  0.00  0.00    +0.195 A 
ATOM      6  O   UNL     1       0.649  -2.371   3.859  0.00  0.00    -0.466 OA
ENDBRANCH   1   2
BRANCH   1   7
ATOM      7  N   UNL     1      -0.885  -2.337   1.373  0.00  0.00    -0.292 NA
ATOM      8  C   UNL     1      -1.107  -3.784   1.492  0.00  0.00    +0.105 C 
BRANCH   7   9
ATOM      9  C   UNL     1      -1.561  -1.609   2.454  0.00  0.00    +0.127 C 
BRANCH   9  10
ATOM     10  C   UNL     1      -3.054  -1.756   2.302  0.00  0.00    +0.005 A 
ATOM     11  C   UNL     1      -3.875  -2.703   2.818  0.00  0.00    +0.027 A 
ATOM     12  C   UNL     1      -5.229  -2.638   2.543  0.00  0.00    +0.025 A 
ATOM     13  C   UNL     1      -5.693  -1.630   1.765  0.00  0.00    +0.060 A 
ATOM     14  S   UNL     1      -4.198  -0.724   1.401  0.00  0.00    -0.099 S 
ATOM     15 BR   UNL     1      -6.413  -3.937   3.240  0.00  0.00    -0.050 Br
ENDBRANCH   9  10
ENDBRANCH   7   9
ENDBRANCH   1   7
BRANCH   1  16
ATOM     16  C   UNL     1       0.742  -0.515   1.190  0.00  0.00    -0.050 C 
BRANCH  16  17
ATOM     17  N   UNL     1       2.172  -0.217   1.029  0.00  0.00    +0.381 N 
ATOM     18  H   UNL     1       2.298   0.778   0.926  0.00  0.00    -0.090 HD
ATOM     19  H   UNL     1       2.676  -0.538   1.842  0.00  0.00    -0.090 HD
ATOM     20  H   UNL     1       2.523  -0.688   0.209  0.00  0.00    -0.090 HD
ENDBRANCH  16  17
BRANCH  16  22
ATOM     21  C   UNL     1       0.056   1.497  -0.122  0.00  0.00    +0.002 C 
ATOM     22  C   UNL     1      -0.022  -0.029  -0.043  0.00  0.00    -0.018 C 
ENDBRANCH  16  22
ENDBRANCH   1  16
TORSDOF 7
