REMARK  Name = ZINC40783025
REMARK  11 active torsions:
REMARK  status: ('A' for Active; 'I' for Inactive)
REMARK    1  A    between atoms: C_1  and  C_2
REMARK    2  A    between atoms: C_2  and  C_3
REMARK    3  A    between atoms: C_2  and  C_4
REMARK    4  A    between atoms: C_4  and  O_5
REMARK    5  A    between atoms: O_5  and  C_6
REMARK    6  A    between atoms: C_6  and  C_8
REMARK    7  A    between atoms: C_11  and  N_14
REMARK    8  A    between atoms: C_16  and  N_35
REMARK    9  A    between atoms: C_17  and  N_21
REMARK   10  A    between atoms: N_21  and  C_22
REMARK   11  A    between atoms: C_22  and  C_23
REMARK                            x       y       z     vdW  Elec       q    Type
REMARK                         _______ _______ _______ _____ _____    ______ ____
ROOT
ATOM      1  N   UNL     1      -6.102   0.857  -6.187  0.00  0.00    -0.299 N 
ATOM      2  C   UNL     1      -7.397   0.371  -6.327  0.00  0.00    +0.126 A 
ATOM      3  C   UNL     1      -8.104   0.570  -7.515  0.00  0.00    +0.104 A 
ATOM      4  C   UNL     1      -9.401   0.061  -7.603  0.00  0.00    +0.153 A 
ATOM      5  N   UNL     1      -9.911  -0.589  -6.559  0.00  0.00    -0.220 NA
ATOM      6  C   UNL     1      -9.209  -0.755  -5.457  0.00  0.00    +0.200 A 
ATOM      7  N   UNL     1      -7.981  -0.295  -5.334  0.00  0.00    -0.333 N 
ATOM      8  H   UNL     1      -5.718   1.421  -6.876  0.00  0.00    +0.154 HD
ATOM      9  H   UNL     1      -7.496  -0.441  -4.506  0.00  0.00    +0.168 HD
ENDROOT
BRANCH   4  10
ATOM     10  N   UNL     1     -10.149   0.231  -8.763  0.00  0.00    -0.264 N 
ATOM     11  C   UNL     1     -11.042   1.294  -8.866  0.00  0.00    +0.127 A 
ATOM     12  C   UNL     1     -11.066   2.272  -7.876  0.00  0.00    +0.044 A 
ATOM     13  C   UNL     1     -11.958   3.323  -7.991  0.00  0.00    +0.005 A 
ATOM     14  C   UNL     1     -12.799   3.361  -9.096  0.00  0.00    +0.020 A 
ATOM     15  C   UNL     1     -12.720   2.357 -10.040  0.00  0.00    +0.113 A 
ATOM     16  N   UNL     1     -11.856   1.369  -9.907  0.00  0.00    -0.240 NA
BRANCH  10  17
ATOM     17  C   UNL     1      -9.998  -0.708  -9.877  0.00  0.00    +0.149 C 
BRANCH  17  18
ATOM     18  C   UNL     1     -10.976  -1.843  -9.714  0.00  0.00    -0.030 A 
ATOM     19  C   UNL     1     -10.612  -2.973  -9.006  0.00  0.00    +0.005 A 
ATOM     20  C   UNL     1     -11.509  -4.014  -8.857  0.00  0.00    +0.000 A 
ATOM     21  C   UNL     1     -12.771  -3.924  -9.414  0.00  0.00    +0.000 A 
ATOM     22  C   UNL     1     -13.136  -2.793 -10.120  0.00  0.00    +0.000 A 
ATOM     23  C   UNL     1     -12.240  -1.751 -10.266  0.00  0.00    +0.005 A 
ENDBRANCH  17  18
ENDBRANCH  10  17
ENDBRANCH   4  10
BRANCH   1  27
ATOM     24  C   UNL     1      -3.874  -0.107  -2.811  0.00  0.00    +0.059 A 
ATOM     25  C   UNL     1      -4.678  -1.075  -3.420  0.00  0.00    +0.017 A 
ATOM     26  C   UNL     1      -5.411  -0.754  -4.534  0.00  0.00    +0.024 A 
ATOM     27  C   UNL     1      -5.357   0.535  -5.057  0.00  0.00    +0.032 A 
ATOM     28  C   UNL     1      -4.558   1.502  -4.452  0.00  0.00    +0.024 A 
ATOM     29  C   UNL     1      -3.826   1.189  -3.336  0.00  0.00    +0.017 A 
BRANCH  24  30
ATOM     30  C   UNL     1      -3.084  -0.448  -1.614  0.00  0.00    +0.339 C 
ATOM     31  O   UNL     1      -2.391   0.396  -1.083  0.00  0.00    -0.245 OA
BRANCH  30  32
ATOM     32  O   UNL     1      -3.132  -1.697  -1.110  0.00  0.00    -0.461 OA
BRANCH  32  33
ATOM     33  C   UNL     1      -2.341  -1.958   0.052  0.00  0.00    +0.235 C 
BRANCH  33  35
ATOM     34  C   UNL     1      -1.961  -4.337  -0.612  0.00  0.00    +0.010 C 
ATOM     35  C   UNL     1      -2.522  -3.417   0.475  0.00  0.00    +0.020 C 
ATOM     36  C   UNL     1      -1.776  -3.664   1.787  0.00  0.00    +0.010 C 
ENDBRANCH  33  35
ENDBRANCH  32  33
ENDBRANCH  30  32
ENDBRANCH  24  30
ENDBRANCH   1  27
BRANCH   3  37
ATOM     37  N   UNL     1      -7.527   1.263  -8.590  0.00  0.00    -0.353 N 
ATOM     38  H   UNL     1      -6.600   1.545  -8.544  0.00  0.00    +0.143 HD
ATOM     39  H   UNL     1      -8.055   1.459  -9.380  0.00  0.00    +0.143 HD
ENDBRANCH   3  37
TORSDOF 9
