REMARK  Name = ZINC25725324
REMARK  4 active torsions:
REMARK  status: ('A' for Active; 'I' for Inactive)
REMARK    1  A    between atoms: C_4  and  C_32
REMARK    2  A    between atoms: C_6  and  C_29
REMARK    3  A    between atoms: C_15  and  C_26
REMARK    4  A    between atoms: C_17  and  C_23
REMARK                            x       y       z     vdW  Elec       q    Type
REMARK                         _______ _______ _______ _____ _____    ______ ____
ROOT
ATOM      1  C   UNL     1       0.795   1.832   0.749  0.00  0.00    +0.188 C 
ATOM      2  C   UNL     1       2.254   2.235   0.970  0.00  0.00    +0.189 C 
ATOM      3  O   UNL     1       2.541   2.235   2.369  0.00  0.00    -0.360 OA
ATOM      4  C   UNL     1       3.867   2.662   2.691  0.00  0.00    +0.270 C 
ATOM      5  C   UNL     1       4.080   2.567   4.203  0.00  0.00    +0.270 C 
ATOM      6  O   UNL     1       4.519   1.249   4.540  0.00  0.00    -0.360 OA
ATOM      7  C   UNL     1       4.311   0.900   5.910  0.00  0.00    +0.189 C 
ATOM      8  C   UNL     1       4.447  -0.615   6.076  0.00  0.00    +0.188 C 
ATOM      9  O   UNL     1       3.171  -1.176   6.391  0.00  0.00    -0.375 OA
ATOM     10  C   UNL     1       3.092  -2.589   6.192  0.00  0.00    +0.188 C 
ATOM     11  C   UNL     1       1.630  -2.996   5.997  0.00  0.00    +0.189 C 
ATOM     12  O   UNL     1       1.418  -3.374   4.635  0.00  0.00    -0.360 OA
ATOM     13  C   UNL     1       0.044  -3.389   4.243  0.00  0.00    +0.270 C 
ATOM     14  C   UNL     1      -0.052  -3.300   2.719  0.00  0.00    +0.270 C 
ATOM     15  O   UNL     1      -0.656  -2.058   2.352  0.00  0.00    -0.360 OA
ATOM     16  C   UNL     1      -0.406  -1.667   1.000  0.00  0.00    +0.189 C 
ATOM     17  C   UNL     1      -0.549  -0.149   0.874  0.00  0.00    +0.188 C 
ATOM     18  O   UNL     1       0.717   0.422   0.534  0.00  0.00    -0.375 OA
ENDROOT
BRANCH  14  19
ATOM     19  C   UNL     1       1.329  -3.382   2.122  0.00  0.00    +0.387 C 
ATOM     20  O   UNL     1       1.802  -4.466   1.826  0.00  0.00    -0.243 OA
ATOM     21  O   UNL     1       1.975  -2.365   1.936  0.00  0.00    -0.243 OA
ENDBRANCH  14  19
BRANCH  13  22
ATOM     22  C   UNL     1      -0.667  -2.213   4.861  0.00  0.00    +0.387 C 
ATOM     23  O   UNL     1      -0.069  -1.167   5.046  0.00  0.00    -0.243 OA
ATOM     24  O   UNL     1      -1.841  -2.307   5.177  0.00  0.00    -0.243 OA
ENDBRANCH  13  22
BRANCH   5  25
ATOM     25  C   UNL     1       5.125   3.567   4.627  0.00  0.00    +0.387 C 
ATOM     26  O   UNL     1       4.906   4.761   4.513  0.00  0.00    -0.243 OA
ATOM     27  O   UNL     1       6.188   3.183   5.083  0.00  0.00    -0.243 OA
ENDBRANCH   5  25
BRANCH   4  28
ATOM     28  C   UNL     1       4.056   4.089   2.246  0.00  0.00    +0.387 C 
ATOM     29  O   UNL     1       3.116   4.715   1.787  0.00  0.00    -0.243 OA
ATOM     30  O   UNL     1       5.151   4.618   2.344  0.00  0.00    -0.243 OA
ENDBRANCH   4  28
TORSDOF 4
