REMARK  Name = ZINC32069417
REMARK  8 active torsions:
REMARK  status: ('A' for Active; 'I' for Inactive)
REMARK    1  A    between atoms: C_1  and  N_2
REMARK    2  A    between atoms: N_5  and  C_8
REMARK    3  A    between atoms: C_8  and  C_10
REMARK    4  A    between atoms: C_8  and  C_12
REMARK    5  A    between atoms: C_10  and  N_11
REMARK    6  A    between atoms: C_14  and  N_21
REMARK    7  A    between atoms: C_16  and  O_18
REMARK    8  A    between atoms: O_18  and  C_19
REMARK                            x       y       z     vdW  Elec       q    Type
REMARK                         _______ _______ _______ _____ _____    ______ ____
ROOT
ATOM      1  C   UNL     1      -1.382   3.563   2.491  0.00  0.00    +0.069 C 
ENDROOT
BRANCH   1   6
ATOM      2  C   UNL     1      -0.425   1.219  -2.558  0.00  0.00    -0.096 C 
ATOM      3  N   UNL     1      -0.968   1.728  -1.291  0.00  0.00    +0.379 N 
ATOM      4  C   UNL     1      -0.305   1.095  -0.142  0.00  0.00    -0.064 C 
ATOM      5  C   UNL     1      -0.951   1.591   1.154  0.00  0.00    +0.066 C 
ATOM      6  N   UNL     1      -0.839   3.054   1.225  0.00  0.00    -0.301 NA
ATOM      7  C   UNL     1      -1.502   3.687   0.076  0.00  0.00    +0.066 C 
ATOM      8  C   UNL     1      -0.855   3.191  -1.220  0.00  0.00    -0.064 C 
ATOM      9  H   UNL     1      -2.036   1.467  -1.253  0.00  0.00    -0.082 HD
ENDBRANCH   1   6
BRANCH   1  10
ATOM     10  C   UNL     1      -0.622   2.956   3.643  0.00  0.00    -0.026 A 
ATOM     11  C   UNL     1       0.749   2.797   3.557  0.00  0.00    +0.042 A 
ATOM     12  C   UNL     1       1.450   2.241   4.611  0.00  0.00    +0.177 A 
ATOM     13  C   UNL     1       0.780   1.843   5.756  0.00  0.00    +0.250 A 
ATOM     14  C   UNL     1      -0.600   2.004   5.843  0.00  0.00    +0.169 A 
ATOM     15  C   UNL     1      -1.296   2.566   4.785  0.00  0.00    +0.054 A 
ATOM     16  O   UNL     1       1.468   1.295   6.793  0.00  0.00    -0.282 OA
BRANCH  12  17
ATOM     17  N   UNL     1       2.918   2.072   4.516  0.00  0.00    +0.060 N 
ATOM     18  O   UNL     1       3.507   2.422   3.509  0.00  0.00    -0.126 OA
ATOM     19  O   UNL     1       3.536   1.582   5.444  0.00  0.00    -0.126 OA
ENDBRANCH  12  17
BRANCH  14  20
ATOM     20  O   UNL     1      -1.262   1.614   6.965  0.00  0.00    -0.491 OA
ATOM     21  C   UNL     1      -2.678   1.810   6.983  0.00  0.00    +0.277 C 
ENDBRANCH  14  20
ENDBRANCH   1  10
BRANCH   1  22
ATOM     22  C   UNL     1      -1.240   5.086   2.532  0.00  0.00    -0.063 C 
BRANCH  22  23
ATOM     23  N   UNL     1      -1.855   5.602   3.762  0.00  0.00    +0.379 N 
ATOM     24  H   UNL     1      -1.753   6.697   3.792  0.00  0.00    -0.090 HD
ATOM     25  H   UNL     1      -1.352   5.163   4.636  0.00  0.00    -0.090 HD
ATOM     26  H   UNL     1      -2.921   5.333   3.779  0.00  0.00    -0.090 HD
ENDBRANCH  22  23
ENDBRANCH   1  22
TORSDOF 6
