REMARK  Name = ZINC07923865
REMARK  14 active torsions:
REMARK  status: ('A' for Active; 'I' for Inactive)
REMARK    1  A    between atoms: C_1  and  C_2
REMARK    2  A    between atoms: C_6  and  C_27
REMARK    3  A    between atoms: C_7  and  N_8
REMARK    4  A    between atoms: C_9  and  C_11
REMARK    5  A    between atoms: C_11  and  N_12
REMARK    6  A    between atoms: C_13  and  C_15
REMARK    7  A    between atoms: C_15  and  C_17
REMARK    8  A    between atoms: C_15  and  N_18
REMARK    9  A    between atoms: N_18  and  C_19
REMARK   10  A    between atoms: N_18  and  C_20
REMARK   11  A    between atoms: C_20  and  C_21
REMARK   12  A    between atoms: N_23  and  C_24
REMARK   13  A    between atoms: C_24  and  C_25
REMARK   14  A    between atoms: C_24  and  C_26
REMARK                            x       y       z     vdW  Elec       q    Type
REMARK                         _______ _______ _______ _____ _____    ______ ____
ROOT
ATOM      1  N   UNL     1      -1.397  -0.905   5.873  0.00  0.00    -0.308 N 
ATOM      2  C   UNL     1      -1.086  -0.434   7.097  0.00  0.00    +0.200 C 
ATOM      3  O   UNL     1      -0.547   0.647   7.212  0.00  0.00    -0.278 OA
ATOM      4  H   UNL     1      -1.827  -1.770   5.782  0.00  0.00    +0.149 HD
ENDROOT
BRANCH   2   5
ATOM      5  C   UNL     1      -1.408  -1.249   8.323  0.00  0.00    +0.016 C 
ATOM      6  C   UNL     1      -0.321  -2.306   8.532  0.00  0.00    -0.004 C 
BRANCH   5   7
ATOM      7  N   UNL     1      -1.466  -0.367   9.496  0.00  0.00    +0.391 N 
ATOM      8  C   UNL     1      -1.641  -1.177  10.710  0.00  0.00    -0.094 C 
ATOM      9  H   UNL     1      -0.608   0.159   9.564  0.00  0.00    -0.080 HD
BRANCH   7  10
ATOM     10  C   UNL     1      -2.599   0.558   9.358  0.00  0.00    +0.019 C 
BRANCH  10  11
ATOM     11  C   UNL     1      -2.533   1.599  10.446  0.00  0.00    +0.197 C 
ATOM     12  O   UNL     1      -1.631   1.573  11.256  0.00  0.00    -0.278 OA
ATOM     13  N   UNL     1      -3.476   2.559  10.518  0.00  0.00    -0.315 N 
ATOM     14  H   UNL     1      -4.197   2.580   9.869  0.00  0.00    +0.149 HD
BRANCH  13  15
ATOM     15  C   UNL     1      -3.412   3.571  11.575  0.00  0.00    +0.067 C 
ATOM     16  C   UNL     1      -2.493   4.712  11.134  0.00  0.00    +0.027 C 
ATOM     17  C   UNL     1      -4.815   4.120  11.841  0.00  0.00    +0.027 C 
ENDBRANCH  13  15
ENDBRANCH  10  11
ENDBRANCH   7  10
ENDBRANCH   5   7
ENDBRANCH   2   5
BRANCH   1  18
ATOM     18  C   UNL     1      -1.084  -0.113   4.682  0.00  0.00    +0.200 C 
BRANCH  18  20
ATOM     19  N   UNL     1      -1.343  -0.318   2.231  0.00  0.00    -0.284 N 
ATOM     20  C   UNL     1      -1.530  -0.859   3.451  0.00  0.00    +0.234 C 
ATOM     21  O   UNL     1      -2.057  -1.946   3.558  0.00  0.00    -0.274 OA
ATOM     22  H   UNL     1      -0.879   0.529   2.141  0.00  0.00    +0.155 HD
BRANCH  19  29
ATOM     23  C   UNL     1       0.391  -0.544  -0.015  0.00  0.00    +0.045 C 
ATOM     24  C   UNL     1      -1.005  -1.112  -0.025  0.00  0.00    -0.029 A 
ATOM     25  C   UNL     1      -1.475  -1.770  -1.145  0.00  0.00    +0.005 A 
ATOM     26  C   UNL     1      -2.756  -2.291  -1.156  0.00  0.00    +0.001 A 
ATOM     27  C   UNL     1      -3.571  -2.155  -0.047  0.00  0.00    +0.005 A 
ATOM     28  C   UNL     1      -3.106  -1.498   1.076  0.00  0.00    -0.029 A 
ATOM     29  C   UNL     1      -1.818  -0.979   1.092  0.00  0.00    +0.039 A 
ATOM     30  C   UNL     1      -3.994  -1.350   2.285  0.00  0.00    +0.045 C 
ENDBRANCH  19  29
ENDBRANCH  18  20
ENDBRANCH   1  18
TORSDOF 8
