REMARK  Name = ZINC39663090
REMARK  7 active torsions:
REMARK  status: ('A' for Active; 'I' for Inactive)
REMARK    1  A    between atoms: C_1  and  C_2
REMARK    2  A    between atoms: C_2  and  C_3
REMARK    3  A    between atoms: C_3  and  C_4
REMARK    4  A    between atoms: C_3  and  C_6
REMARK    5  A    between atoms: C_4  and  C_5
REMARK    6  A    between atoms: C_10  and  C_19
REMARK    7  A    between atoms: N_21  and  C_22
REMARK                            x       y       z     vdW  Elec       q    Type
REMARK                         _______ _______ _______ _____ _____    ______ ____
ROOT
ATOM      1  C   UNL     1       0.504  -2.383  -1.386  0.00  0.00    +0.219 C 
ATOM      2  O   UNL     1      -0.196  -3.003  -0.613  0.00  0.00    -0.275 OA
ATOM      3  N   UNL     1       1.196  -3.036  -2.340  0.00  0.00    -0.300 N 
ATOM      4  C   UNL     1       2.026  -2.453  -3.420  0.00  0.00    +0.121 C 
ATOM      5  C   UNL     1       3.252  -3.389  -3.519  0.00  0.00    +0.100 C 
ATOM      6  C   UNL     1       2.768  -4.731  -2.946  0.00  0.00    -0.004 C 
ATOM      7  C   UNL     1       1.304  -4.501  -2.542  0.00  0.00    +0.115 C 
ATOM      8  C   UNL     1       2.860  -5.823  -4.008  0.00  0.00    -0.010 C 
ATOM      9  C   UNL     1       2.428  -7.159  -3.397  0.00  0.00    -0.082 C 
ATOM     10  N   UNL     1       3.297  -7.482  -2.259  0.00  0.00    +0.379 N 
ATOM     11  C   UNL     1       3.133  -6.476  -1.203  0.00  0.00    -0.082 C 
ATOM     12  C   UNL     1       3.594  -5.111  -1.720  0.00  0.00    -0.010 C 
ATOM     13  H   UNL     1       3.050  -8.391  -1.897  0.00  0.00    -0.086 HD
ATOM     14  H   UNL     1       4.259  -7.495  -2.564  0.00  0.00    -0.086 HD
ENDROOT
BRANCH   5  15
ATOM     15  C   UNL     1       4.394  -2.846  -2.699  0.00  0.00    +0.218 C 
ATOM     16  O   UNL     1       4.169  -2.241  -1.672  0.00  0.00    -0.275 OA
ATOM     17  N   UNL     1       5.665  -3.032  -3.106  0.00  0.00    -0.314 N 
ATOM     18  H   UNL     1       5.843  -3.452  -3.962  0.00  0.00    +0.149 HD
BRANCH  17  19
ATOM     19  C   UNL     1       6.777  -2.601  -2.256  0.00  0.00    +0.059 C 
ATOM     20  C   UNL     1       7.019  -1.103  -2.448  0.00  0.00    -0.056 C 
ATOM     21  N   UNL     1       8.379  -0.873  -2.943  0.00  0.00    +0.381 N 
ATOM     22  C   UNL     1       8.570  -1.519  -4.244  0.00  0.00    -0.078 C 
ATOM     23  C   UNL     1       8.379  -3.031  -4.111  0.00  0.00    -0.014 C 
ATOM     24  C   UNL     1       8.049  -3.365  -2.648  0.00  0.00    +0.004 C 
ATOM     25  C   UNL     1       9.203  -2.867  -1.767  0.00  0.00    -0.014 C 
ATOM     26  C   UNL     1       9.367  -1.357  -1.977  0.00  0.00    -0.078 C 
ATOM     27  H   UNL     1       8.511   0.120  -3.065  0.00  0.00    -0.082 HD
ENDBRANCH  17  19
ENDBRANCH   5  15
BRANCH   1  28
ATOM     28  C   UNL     1       0.599  -0.883  -1.280  0.00  0.00    +0.075 C 
BRANCH  28  30
ATOM     29  C   UNL     1      -0.391   1.278  -2.052  0.00  0.00    +0.004 C 
ATOM     30  C   UNL     1      -0.556  -0.243  -2.054  0.00  0.00    +0.009 C 
ENDBRANCH  28  30
BRANCH  28  31
ATOM     31  C   UNL     1       0.518  -0.469   0.190  0.00  0.00    +0.009 C 
ATOM     32  C   UNL     1       1.747  -0.993   0.936  0.00  0.00    +0.004 C 
ENDBRANCH  28  31
ENDBRANCH   1  28
TORSDOF 5
