REMARK  Name = ZINC49570352
REMARK  7 active torsions:
REMARK  status: ('A' for Active; 'I' for Inactive)
REMARK    1  A    between atoms: C_1  and  C_2
REMARK    2  A    between atoms: C_4  and  C_22
REMARK    3  A    between atoms: C_7  and  C_8
REMARK    4  A    between atoms: C_8  and  N_10
REMARK    5  A    between atoms: N_11  and  C_12
REMARK    6  A    between atoms: C_12  and  C_14
REMARK    7  A    between atoms: C_12  and  C_15
REMARK                            x       y       z     vdW  Elec       q    Type
REMARK                         _______ _______ _______ _____ _____    ______ ____
ROOT
ATOM      1  C   UNL     1      -0.015   1.499   0.086  0.00  0.00    +0.044 C 
ATOM      2  C   UNL     1       0.002  -0.007   0.038  0.00  0.00    -0.036 A 
ATOM      3  C   UNL     1      -0.109  -0.680  -1.166  0.00  0.00    +0.025 A 
ATOM      4  C   UNL     1      -0.091  -2.063  -1.178  0.00  0.00    +0.015 A 
ATOM      5  N   UNL     1       0.030  -2.755  -0.062  0.00  0.00    -0.347 N 
ATOM      6  C   UNL     1       0.140  -2.163   1.117  0.00  0.00    +0.107 A 
ATOM      7  C   UNL     1       0.136  -0.760   1.210  0.00  0.00    +0.044 A 
ATOM      8  N   UNL     1       0.264  -2.929   2.262  0.00  0.00    -0.323 N 
ATOM      9  C   UNL     1      -0.212  -2.792  -2.491  0.00  0.00    +0.063 C 
ATOM     10  H   UNL     1       0.267  -2.502   3.133  0.00  0.00    +0.148 HD
ATOM     11  H   UNL     1       0.038  -3.724  -0.106  0.00  0.00    +0.167 HD
ENDROOT
BRANCH   7  12
ATOM     12  C   UNL     1       0.263  -0.096   2.518  0.00  0.00    +0.080 C 
ATOM     13  S   UNL     1       1.799   0.424   3.068  0.00  0.00    -0.035 S 
BRANCH  12  14
ATOM     14  N   UNL     1      -0.829   0.104   3.282  0.00  0.00    -0.352 N 
ATOM     15  H   UNL     1      -1.708  -0.123   2.941  0.00  0.00    +0.143 HD
ATOM     16  H   UNL     1      -0.736   0.475   4.174  0.00  0.00    +0.143 HD
ENDBRANCH  12  14
ENDBRANCH   7  12
BRANCH   8  17
ATOM     17  C   UNL     1       0.393  -4.385   2.160  0.00  0.00    +0.099 C 
ATOM     18  C   UNL     1      -0.999  -5.014   2.067  0.00  0.00    +0.033 C 
BRANCH  17  19
ATOM     19  C   UNL     1       1.103  -4.913   3.379  0.00  0.00    -0.026 A 
ATOM     20  C   UNL     1       0.816  -4.392   4.627  0.00  0.00    +0.005 A 
ATOM     21  C   UNL     1       1.467  -4.876   5.745  0.00  0.00    +0.001 A 
ATOM     22  C   UNL     1       2.406  -5.883   5.617  0.00  0.00    +0.015 A 
ATOM     23  C   UNL     1       2.693  -6.405   4.369  0.00  0.00    +0.018 A 
ATOM     24  C   UNL     1       2.037  -5.924   3.250  0.00  0.00    +0.020 A 
ATOM     25 BR   UNL     1       3.978  -7.782   4.193  0.00  0.00    -0.050 Br
ENDBRANCH  17  19
ENDBRANCH   8  17
TORSDOF 4
