REMARK  Name = ZINC08694874
REMARK  3 active torsions:
REMARK  status: ('A' for Active; 'I' for Inactive)
REMARK    1  A    between atoms: C_6  and  C_7
REMARK    2  A    between atoms: C_10  and  C_12
REMARK    3  A    between atoms: C_10  and  O_16
REMARK                            x       y       z     vdW  Elec       q    Type
REMARK                         _______ _______ _______ _____ _____    ______ ____
ROOT
ATOM      1  C   UNL     1      -0.394   2.837   0.283  0.00  0.00    +0.071 C 
ATOM      2  N   UNL     1      -1.416   2.071   0.108  0.00  0.00    -0.178 NA
ATOM      3  N   UNL     1      -1.143   0.714   0.265  0.00  0.00    -0.149 N 
ATOM      4  C   UNL     1       0.281   0.550   0.596  0.00  0.00    +0.257 C 
ATOM      5  C   UNL     1       0.817   1.995   0.614  0.00  0.00    +0.124 C 
ATOM      6  C   UNL     1      -2.062  -0.314   0.130  0.00  0.00    +0.258 C 
ATOM      7  N   UNL     1      -1.587  -1.480   0.319  0.00  0.00    -0.143 NA
ATOM      8  N   UNL     1      -2.330  -2.650   0.352  0.00  0.00    -0.223 N 
ATOM      9  C   UNL     1      -3.435  -2.845  -0.408  0.00  0.00    +0.093 C 
ATOM     10  C   UNL     1      -4.693  -2.076  -0.143  0.00  0.00    +0.146 C 
ATOM     11  C   UNL     1      -4.472  -0.603  -0.364  0.00  0.00    +0.143 A 
ATOM     12  N   UNL     1      -3.339   0.095  -0.180  0.00  0.00    -0.183 N 
ATOM     13  N   UNL     1      -3.680   1.448  -0.421  0.00  0.00    -0.151 NA
ATOM     14  C   UNL     1      -4.932   1.470  -0.782  0.00  0.00    +0.245 A 
ATOM     15  N   UNL     1      -5.407   0.227  -0.769  0.00  0.00    -0.218 NA
ATOM     16  H   UNL     1      -2.045  -3.362   0.946  0.00  0.00    +0.176 HD
ATOM     17  H   UNL     1      -2.639  -4.256  -1.631  0.00  0.00    +0.157 HD
ATOM     18  N   UNL     1      -3.467  -3.705  -1.406  0.00  0.00    -0.389 N 
ATOM     19  H   UNL     1      -4.326  -3.821  -1.956  0.00  0.00    +0.157 HD
ENDROOT
BRANCH   1  25
ATOM     20  C   UNL     1       0.767   5.035   0.395  0.00  0.00    +0.011 A 
ATOM     21  C   UNL     1       0.751   6.410   0.289  0.00  0.00    +0.016 A 
ATOM     22  C   UNL     1      -0.426   7.070  -0.021  0.00  0.00    +0.018 A 
ATOM     23  C   UNL     1      -1.593   6.355  -0.232  0.00  0.00    +0.016 A 
ATOM     24  C   UNL     1      -1.589   4.980  -0.135  0.00  0.00    +0.011 A 
ATOM     25  C   UNL     1      -0.405   4.307   0.177  0.00  0.00    -0.002 A 
ATOM     26 BR   UNL     1      -0.440   8.956  -0.156  0.00  0.00    -0.050 Br
ENDBRANCH   1  25
BRANCH   4  27
ATOM     27  C   UNL     1       0.443  -0.102   1.970  0.00  0.00    +0.438 C 
ATOM     28  F   UNL     1      -0.140  -1.374   1.955  0.00  0.00    -0.166 F 
ATOM     29  F   UNL     1       1.804  -0.216   2.275  0.00  0.00    -0.166 F 
ATOM     30  F   UNL     1      -0.187   0.688   2.938  0.00  0.00    -0.166 F 
ENDBRANCH   4  27
BRANCH   4  31
ATOM     31  O   UNL     1       0.946  -0.220  -0.408  0.00  0.00    -0.363 OA
ATOM     32  H   UNL     1       0.600  -1.118  -0.508  0.00  0.00    +0.212 HD
ENDBRANCH   4  31
TORSDOF 3
