REMARK  Name = ZINC39693409
REMARK  12 active torsions:
REMARK  status: ('A' for Active; 'I' for Inactive)
REMARK    1  A    between atoms: C_1  and  C_2
REMARK    2  A    between atoms: C_2  and  C_3
REMARK    3  A    between atoms: C_6  and  C_9
REMARK    4  A    between atoms: C_13  and  C_22
REMARK    5  A    between atoms: N_24  and  C_25
REMARK    6  A    between atoms: C_25  and  C_26
REMARK    7  A    between atoms: C_26  and  N_27
REMARK    8  A    between atoms: C_28  and  O_30
REMARK    9  A    between atoms: O_30  and  C_31
REMARK   10  A    between atoms: C_31  and  C_32
REMARK   11  A    between atoms: C_31  and  C_33
REMARK   12  A    between atoms: C_31  and  C_34
REMARK                            x       y       z     vdW  Elec       q    Type
REMARK                         _______ _______ _______ _____ _____    ______ ____
ROOT
ATOM      1  C   UNL     1      -5.402  -2.001   0.046  0.00  0.00    +0.247 C 
ATOM      2  O   UNL     1      -5.928  -2.316   1.095  0.00  0.00    -0.270 OA
ATOM      3  N   UNL     1      -6.077  -2.136  -1.113  0.00  0.00    -0.296 N 
ATOM      4  C   UNL     1      -5.568  -1.930  -2.490  0.00  0.00    +0.121 C 
ATOM      5  C   UNL     1      -6.220  -3.058  -3.320  0.00  0.00    +0.100 C 
ATOM      6  C   UNL     1      -7.485  -3.443  -2.534  0.00  0.00    -0.004 C 
ATOM      7  C   UNL     1      -7.494  -2.531  -1.299  0.00  0.00    +0.115 C 
ATOM      8  C   UNL     1      -7.415  -4.905  -2.103  0.00  0.00    -0.010 C 
ATOM      9  C   UNL     1      -8.708  -5.279  -1.373  0.00  0.00    -0.082 C 
ATOM     10  N   UNL     1      -9.854  -5.066  -2.265  0.00  0.00    +0.379 N 
ATOM     11  C   UNL     1      -9.969  -3.642  -2.601  0.00  0.00    -0.082 C 
ATOM     12  C   UNL     1      -8.729  -3.198  -3.382  0.00  0.00    -0.010 C 
ATOM     13  H   UNL     1      -9.725  -5.600  -3.111  0.00  0.00    -0.086 HD
ATOM     14  H   UNL     1     -10.699  -5.370  -1.804  0.00  0.00    -0.086 HD
ENDROOT
BRANCH   1  18
ATOM     15  C   UNL     1      -1.438  -0.474   0.029  0.00  0.00    -0.048 A 
ATOM     16  C   UNL     1      -1.860  -1.285   1.068  0.00  0.00    +0.004 A 
ATOM     17  C   UNL     1      -3.146  -1.784   1.080  0.00  0.00    +0.013 A 
ATOM     18  C   UNL     1      -4.022  -1.469   0.040  0.00  0.00    +0.037 A 
ATOM     19  C   UNL     1      -3.591  -0.651  -1.005  0.00  0.00    +0.013 A 
ATOM     20  C   UNL     1      -2.304  -0.153  -1.001  0.00  0.00    +0.004 A 
BRANCH  15  22
ATOM     21  C   UNL     1       0.000   1.411   0.755  0.00  0.00    +0.009 C 
ATOM     22  C   UNL     1      -0.032   0.068   0.024  0.00  0.00    +0.032 C 
ENDBRANCH  15  22
ENDBRANCH   1  18
BRANCH   5  23
ATOM     23  C   UNL     1      -5.287  -4.237  -3.427  0.00  0.00    +0.218 C 
ATOM     24  O   UNL     1      -4.562  -4.523  -2.498  0.00  0.00    -0.275 OA
ATOM     25  N   UNL     1      -5.259  -4.974  -4.555  0.00  0.00    -0.314 N 
ATOM     26  H   UNL     1      -5.839  -4.745  -5.298  0.00  0.00    +0.149 HD
BRANCH  25  27
ATOM     27  C   UNL     1      -4.352  -6.120  -4.659  0.00  0.00    +0.123 C 
BRANCH  27  28
ATOM     28  C   UNL     1      -4.516  -6.778  -6.030  0.00  0.00    +0.126 C 
BRANCH  28  29
ATOM     29  N   UNL     1      -3.610  -7.924  -6.134  0.00  0.00    -0.280 N 
ATOM     30  C   UNL     1      -3.581  -8.661  -7.262  0.00  0.00    +0.401 C 
ATOM     31  O   UNL     1      -4.308  -8.374  -8.193  0.00  0.00    -0.226 OA
ATOM     32  H   UNL     1      -3.030  -8.152  -5.391  0.00  0.00    +0.152 HD
BRANCH  30  33
ATOM     33  O   UNL     1      -2.748  -9.714  -7.358  0.00  0.00    -0.445 OA
BRANCH  33  34
ATOM     34  C   UNL     1      -2.770 -10.450  -8.582  0.00  0.00    +0.107 C 
ATOM     35  C   UNL     1      -2.397  -9.523  -9.741  0.00  0.00    +0.055 C 
ATOM     36  C   UNL     1      -1.764 -11.600  -8.504  0.00  0.00    +0.055 C 
ATOM     37  C   UNL     1      -4.174 -11.014  -8.812  0.00  0.00    +0.055 C 
ENDBRANCH  33  34
ENDBRANCH  30  33
ENDBRANCH  28  29
ENDBRANCH  27  28
ENDBRANCH  25  27
ENDBRANCH   5  23
TORSDOF 8
