REMARK  Name = ZINC36945340
REMARK  8 active torsions:
REMARK  status: ('A' for Active; 'I' for Inactive)
REMARK    1  A    between atoms: C_1  and  C_2
REMARK    2  A    between atoms: C_2  and  C_4
REMARK    3  A    between atoms: C_2  and  N_11
REMARK    4  A    between atoms: N_11  and  C_12
REMARK    5  A    between atoms: C_12  and  C_13
REMARK    6  A    between atoms: C_15  and  O_20
REMARK    7  A    between atoms: C_18  and  O_19
REMARK    8  A    between atoms: O_20  and  C_21
REMARK                            x       y       z     vdW  Elec       q    Type
REMARK                         _______ _______ _______ _____ _____    ______ ____
ROOT
ATOM      1  N   UNL     1       0.713  -0.491   1.192  0.00  0.00    +0.386 N 
ATOM      2  H   UNL     1       0.290  -0.099   2.020  0.00  0.00    -0.085 HD
ATOM      3  H   UNL     1       0.655  -1.497   1.230  0.00  0.00    -0.085 HD
ENDROOT
BRANCH   1   5
ATOM      4  C   UNL     1      -0.019   1.526   0.010  0.00  0.00    -0.009 C 
ATOM      5  C   UNL     1       0.002  -0.004   0.002  0.00  0.00    -0.043 C 
BRANCH   5   6
ATOM      6  C   UNL     1      -1.412  -0.526   0.013  0.00  0.00    -0.048 A 
ATOM      7  C   UNL     1      -2.015  -0.864   1.210  0.00  0.00    +0.003 A 
ATOM      8  C   UNL     1      -3.312  -1.342   1.220  0.00  0.00    +0.000 A 
ATOM      9  C   UNL     1      -4.006  -1.482   0.033  0.00  0.00    +0.001 A 
ATOM     10  C   UNL     1      -3.404  -1.144  -1.165  0.00  0.00    +0.015 A 
ATOM     11  C   UNL     1      -2.108  -0.661  -1.175  0.00  0.00    +0.019 A 
ATOM     12 BR   UNL     1      -1.286  -0.192  -2.812  0.00  0.00    -0.050 Br
ENDBRANCH   5   6
ENDBRANCH   1   5
BRANCH   1  13
ATOM     13  C   UNL     1       2.122  -0.083   1.122  0.00  0.00    -0.042 C 
BRANCH  13  14
ATOM     14  C   UNL     1       2.851  -0.582   2.343  0.00  0.00    -0.019 A 
ATOM     15  C   UNL     1       3.708  -1.661   2.243  0.00  0.00    +0.051 A 
ATOM     16  C   UNL     1       4.379  -2.120   3.366  0.00  0.00    +0.121 A 
ATOM     17  C   UNL     1       4.190  -1.496   4.590  0.00  0.00    +0.049 A 
ATOM     18  C   UNL     1       3.333  -0.417   4.691  0.00  0.00    +0.049 A 
ATOM     19  C   UNL     1       2.666   0.045   3.566  0.00  0.00    +0.118 A 
BRANCH  19  20
ATOM     20  O   UNL     1       1.826   1.111   3.663  0.00  0.00    -0.507 OA
ATOM     21  H   UNL     1       0.912   0.873   3.869  0.00  0.00    +0.292 HD
ENDBRANCH  19  20
BRANCH  16  22
ATOM     22  O   UNL     1       5.223  -3.182   3.268  0.00  0.00    -0.495 OA
ATOM     23  C   UNL     1       5.880  -3.601   4.465  0.00  0.00    +0.277 C 
ENDBRANCH  16  22
ENDBRANCH  13  14
ENDBRANCH   1  13
TORSDOF 6
