REMARK  Name = ZINC58893899
REMARK  7 active torsions:
REMARK  status: ('A' for Active; 'I' for Inactive)
REMARK    1  A    between atoms: C_1  and  C_2
REMARK    2  A    between atoms: C_2  and  C_4
REMARK    3  A    between atoms: C_2  and  N_14
REMARK    4  A    between atoms: C_7  and  S_10
REMARK    5  A    between atoms: S_10  and  N_13
REMARK    6  A    between atoms: N_17  and  C_18
REMARK    7  A    between atoms: C_20  and  N_25
REMARK                            x       y       z     vdW  Elec       q    Type
REMARK                         _______ _______ _______ _____ _____    ______ ____
ROOT
ATOM      1  N   UNL     1      -1.364  -0.479  -0.002  0.00  0.00    -0.293 N 
ATOM      2  C   UNL     1      -2.049  -0.611  -1.155  0.00  0.00    +0.304 C 
ATOM      3  O   UNL     1      -1.527  -0.305  -2.210  0.00  0.00    -0.252 OA
ATOM      4  N   UNL     1      -3.311  -1.083  -1.139  0.00  0.00    -0.268 N 
ATOM      5  H   UNL     1      -1.780  -0.724   0.840  0.00  0.00    +0.151 HD
ATOM      6  H   UNL     1      -3.705  -1.387  -0.306  0.00  0.00    +0.156 HD
ENDROOT
BRANCH   4   7
ATOM      7  C   UNL     1      -4.054  -1.135  -2.324  0.00  0.00    +0.055 A 
ATOM      8  C   UNL     1      -3.423  -1.412  -3.528  0.00  0.00    +0.048 A 
ATOM      9  C   UNL     1      -4.163  -1.462  -4.701  0.00  0.00    +0.038 A 
ATOM     10  C   UNL     1      -5.533  -1.236  -4.667  0.00  0.00    +0.025 A 
ATOM     11  C   UNL     1      -6.159  -0.960  -3.466  0.00  0.00    +0.023 A 
ATOM     12  C   UNL     1      -5.426  -0.914  -2.295  0.00  0.00    +0.062 A 
ATOM     13 CL   UNL     1      -6.218  -0.574  -0.789  0.00  0.00    -0.082 Cl
BRANCH   9  14
ATOM     14  N   UNL     1      -3.529  -1.741  -5.917  0.00  0.00    -0.271 N 
ATOM     15  C   UNL     1      -2.116  -2.117  -6.048  0.00  0.00    +0.114 C 
ATOM     16  C   UNL     1      -1.983  -2.737  -7.457  0.00  0.00    +0.029 C 
ATOM     17  C   UNL     1      -3.156  -2.066  -8.208  0.00  0.00    +0.098 C 
ATOM     18  C   UNL     1      -4.138  -1.705  -7.115  0.00  0.00    +0.220 C 
ATOM     19  O   UNL     1      -5.303  -1.422  -7.294  0.00  0.00    -0.275 OA
ENDBRANCH   9  14
ENDBRANCH   4   7
BRANCH   1  21
ATOM     20  C   UNL     1      -0.019   1.563  -0.007  0.00  0.00    +0.033 C 
ATOM     21  C   UNL     1       0.008   0.033  -0.019  0.00  0.00    +0.102 C 
BRANCH  21  22
ATOM     22  C   UNL     1       0.747  -0.465   1.197  0.00  0.00    -0.027 A 
ATOM     23  C   UNL     1       0.104  -0.526   2.419  0.00  0.00    +0.007 A 
ATOM     24  C   UNL     1       0.781  -0.983   3.534  0.00  0.00    +0.029 A 
ATOM     25  C   UNL     1       2.100  -1.380   3.427  0.00  0.00    +0.105 A 
ATOM     26  C   UNL     1       2.743  -1.321   2.204  0.00  0.00    +0.029 A 
ATOM     27  C   UNL     1       2.064  -0.868   1.088  0.00  0.00    +0.007 A 
BRANCH  25  28
ATOM     28  S   UNL     1       2.964  -1.962   4.848  0.00  0.00    +0.056 S 
ATOM     29  O   UNL     1       4.347  -1.758   4.595  0.00  0.00    -0.153 OA
ATOM     30  O   UNL     1       2.306  -1.407   5.979  0.00  0.00    -0.153 OA
BRANCH  28  31
ATOM     31  N   UNL     1       2.733  -3.600   4.925  0.00  0.00    -0.204 NA
ATOM     32  H   UNL     1       2.198  -4.047   4.250  0.00  0.00    +0.144 HD
ATOM     33  H   UNL     1       3.132  -4.113   5.644  0.00  0.00    +0.144 HD
ENDBRANCH  28  31
ENDBRANCH  25  28
ENDBRANCH  21  22
ENDBRANCH   1  21
TORSDOF 6
