REMARK  Name = ZINC63573421
REMARK  5 active torsions:
REMARK  status: ('A' for Active; 'I' for Inactive)
REMARK    1  A    between atoms: C_1  and  C_2
REMARK    2  A    between atoms: C_5  and  C_8
REMARK    3  A    between atoms: C_15  and  O_20
REMARK    4  A    between atoms: O_20  and  C_21
REMARK    5  A    between atoms: N_27  and  C_28
REMARK                            x       y       z     vdW  Elec       q    Type
REMARK                         _______ _______ _______ _____ _____    ______ ____
ROOT
ATOM      1  C   UNL     1      -0.817  -4.624  -0.419  0.00  0.00    +0.134 C 
ATOM      2  C   UNL     1       0.692  -4.844  -0.573  0.00  0.00    +0.131 C 
ATOM      3  C   UNL     1       0.981  -6.247  -0.053  0.00  0.00    -0.035 C 
ATOM      4  C   UNL     1       1.588  -6.894  -1.040  0.00  0.00    +0.003 A 
ATOM      5  C   UNL     1       2.166  -8.245  -1.119  0.00  0.00    +0.055 A 
ATOM      6  C   UNL     1       2.713  -8.605  -2.312  0.00  0.00    +0.121 A 
ATOM      7  C   UNL     1       2.752  -7.773  -3.441  0.00  0.00    +0.047 A 
ATOM      8  C   UNL     1       2.255  -6.511  -3.476  0.00  0.00    +0.029 A 
ATOM      9  C   UNL     1       1.639  -6.005  -2.242  0.00  0.00    +0.043 A 
ATOM     10  N   UNL     1       1.103  -4.828  -1.978  0.00  0.00    -0.375 N 
ATOM     11  C   UNL     1       0.539  -6.712   1.313  0.00  0.00    +0.052 C 
ATOM     12  C   UNL     1      -0.960  -6.378   1.430  0.00  0.00    +0.114 C 
ATOM     13  N   UNL     1      -1.194  -5.012   0.950  0.00  0.00    -0.276 N 
ATOM     14  C   UNL     1      -1.758  -4.103   1.770  0.00  0.00    +0.307 C 
ATOM     15  O   UNL     1      -2.120  -3.029   1.330  0.00  0.00    -0.252 OA
ATOM     16  N   UNL     1      -1.919  -4.385   3.078  0.00  0.00    -0.269 N 
ATOM     17  H   UNL     1      -1.545  -5.199   3.448  0.00  0.00    +0.156 HD
ATOM     18  H   UNL     1       0.992  -4.087  -2.593  0.00  0.00    +0.160 HD
ENDROOT
BRANCH   1  23
ATOM     19  C   UNL     1      -2.077   0.948  -1.291  0.00  0.00    +0.044 C 
ATOM     20  C   UNL     1      -1.748  -0.505  -1.064  0.00  0.00    -0.050 A 
ATOM     21  C   UNL     1      -0.696  -0.855  -0.238  0.00  0.00    +0.004 A 
ATOM     22  C   UNL     1      -0.395  -2.188  -0.029  0.00  0.00    +0.006 A 
ATOM     23  C   UNL     1      -1.146  -3.171  -0.646  0.00  0.00    -0.025 A 
ATOM     24  C   UNL     1      -2.199  -2.821  -1.470  0.00  0.00    +0.006 A 
ATOM     25  C   UNL     1      -2.503  -1.488  -1.676  0.00  0.00    +0.004 A 
ENDBRANCH   1  23
BRANCH  16  26
ATOM     26  C   UNL     1      -2.626  -3.501   3.902  0.00  0.00    +0.036 A 
ATOM     27  C   UNL     1      -2.611  -2.138   3.635  0.00  0.00    +0.023 A 
ATOM     28  C   UNL     1      -3.310  -1.269   4.449  0.00  0.00    +0.003 A 
ATOM     29  C   UNL     1      -4.024  -1.754   5.529  0.00  0.00    +0.015 A 
ATOM     30  C   UNL     1      -4.041  -3.111   5.798  0.00  0.00    +0.020 A 
ATOM     31  C   UNL     1      -3.348  -3.986   4.983  0.00  0.00    +0.038 A 
ATOM     32 BR   UNL     1      -5.019  -3.769   7.277  0.00  0.00    -0.050 Br
ENDBRANCH  16  26
BRANCH   6  33
ATOM     33  O   UNL     1       3.255  -9.848  -2.416  0.00  0.00    -0.495 OA
ATOM     34  C   UNL     1       3.824 -10.204  -3.678  0.00  0.00    +0.277 C 
ENDBRANCH   6  33
TORSDOF 3
