REMARK  Name = ZINC03455648
REMARK  9 active torsions:
REMARK  status: ('A' for Active; 'I' for Inactive)
REMARK    1  A    between atoms: C_1  and  C_2
REMARK    2  A    between atoms: C_5  and  C_26
REMARK    3  A    between atoms: N_8  and  C_10
REMARK    4  A    between atoms: C_10  and  C_11
REMARK    5  A    between atoms: N_13  and  C_14
REMARK    6  A    between atoms: C_14  and  C_15
REMARK    7  A    between atoms: C_15  and  C_16
REMARK    8  A    between atoms: C_19  and  S_22
REMARK    9  A    between atoms: S_22  and  N_25
REMARK                            x       y       z     vdW  Elec       q    Type
REMARK                         _______ _______ _______ _____ _____    ______ ____
ROOT
ATOM      1  C   UNL     1       2.146   0.211   3.650  0.00  0.00    +0.196 C 
ATOM      2  O   UNL     1       1.198   0.950   3.493  0.00  0.00    -0.278 OA
ATOM      3  N   UNL     1       2.609  -0.036   4.892  0.00  0.00    -0.317 N 
ATOM      4  H   UNL     1       3.368  -0.627   5.018  0.00  0.00    +0.149 HD
ENDROOT
BRANCH   1   5
ATOM      5  C   UNL     1       2.808  -0.431   2.458  0.00  0.00    +0.019 C 
BRANCH   5  11
ATOM      6  C   UNL     1      -0.019   1.526   0.010  0.00  0.00    +0.005 C 
ATOM      7  C   UNL     1       0.002  -0.004   0.002  0.00  0.00    -0.031 C 
ATOM      8  C   UNL     1       0.721  -0.499  -1.257  0.00  0.00    +0.003 C 
ATOM      9  C   UNL     1       2.177  -0.027  -1.220  0.00  0.00    -0.031 C 
ATOM     10  C   UNL     1       2.839  -0.534   0.063  0.00  0.00    -0.075 C 
ATOM     11  N   UNL     1       2.123  -0.005   1.230  0.00  0.00    +0.386 N 
ATOM     12  C   UNL     1       0.744  -0.512   1.240  0.00  0.00    -0.075 C 
ATOM     13  C   UNL     1       2.924  -0.581  -2.434  0.00  0.00    +0.005 C 
ATOM     14  H   UNL     1       2.109   1.003   1.187  0.00  0.00    -0.081 HD
ENDBRANCH   5  11
ENDBRANCH   1   5
BRANCH   3  15
ATOM     15  C   UNL     1       1.966   0.588   6.051  0.00  0.00    +0.109 C 
BRANCH  15  16
ATOM     16  C   UNL     1       2.679   0.144   7.330  0.00  0.00    +0.054 C 
BRANCH  16  17
ATOM     17  C   UNL     1       2.018   0.786   8.522  0.00  0.00    -0.046 A 
ATOM     18  C   UNL     1       2.454   2.017   8.975  0.00  0.00    +0.005 A 
ATOM     19  C   UNL     1       1.847   2.606  10.069  0.00  0.00    +0.029 A 
ATOM     20  C   UNL     1       0.804   1.964  10.709  0.00  0.00    +0.105 A 
ATOM     21  C   UNL     1       0.368   0.733  10.256  0.00  0.00    +0.029 A 
ATOM     22  C   UNL     1       0.972   0.146   9.160  0.00  0.00    +0.005 A 
BRANCH  20  23
ATOM     23  S   UNL     1       0.032   2.713  12.104  0.00  0.00    +0.056 S 
ATOM     24  O   UNL     1      -0.556   1.661  12.857  0.00  0.00    -0.153 OA
ATOM     25  O   UNL     1       0.983   3.610  12.662  0.00  0.00    -0.153 OA
BRANCH  23  26
ATOM     26  N   UNL     1      -1.215   3.641  11.533  0.00  0.00    -0.204 NA
ATOM     27  H   UNL     1      -2.005   3.782  12.079  0.00  0.00    +0.144 HD
ATOM     28  H   UNL     1      -1.157   4.044  10.652  0.00  0.00    +0.144 HD
ENDBRANCH  23  26
ENDBRANCH  20  23
ENDBRANCH  16  17
ENDBRANCH  15  16
ENDBRANCH   3  15
TORSDOF 7
