REMARK  Name = ZINC14436784
REMARK  10 active torsions:
REMARK  status: ('A' for Active; 'I' for Inactive)
REMARK    1  A    between atoms: C_1  and  O_2
REMARK    2  A    between atoms: O_2  and  C_3
REMARK    3  A    between atoms: C_5  and  C_12
REMARK    4  A    between atoms: C_7  and  O_10
REMARK    5  A    between atoms: C_8  and  O_9
REMARK    6  A    between atoms: O_10  and  C_11
REMARK    7  A    between atoms: C_13  and  O_25
REMARK    8  A    between atoms: C_17  and  O_24
REMARK    9  A    between atoms: C_19  and  O_23
REMARK   10  A    between atoms: O_25  and  C_26
REMARK                            x       y       z     vdW  Elec       q    Type
REMARK                         _______ _______ _______ _____ _____    ______ ____
ROOT
ATOM      1  C   UNL     1      -1.812   3.577   0.763  0.00  0.00    +0.181 A 
ATOM      2  C   UNL     1      -0.806   2.889   1.373  0.00  0.00    +0.211 A 
ATOM      3  C   UNL     1       0.146   3.592   2.156  0.00  0.00    +0.238 A 
ATOM      4  O   UNL     1       1.057   3.009   2.721  0.00  0.00    -0.283 OA
ATOM      5  C   UNL     1      -0.006   5.053   2.256  0.00  0.00    +0.109 A 
ATOM      6  C   UNL     1       0.891   5.827   3.004  0.00  0.00    +0.135 A 
ATOM      7  C   UNL     1       0.712   7.195   3.079  0.00  0.00    +0.091 A 
ATOM      8  C   UNL     1      -0.353   7.798   2.416  0.00  0.00    +0.124 A 
ATOM      9  C   UNL     1      -1.244   7.038   1.675  0.00  0.00    +0.092 A 
ATOM     10  C   UNL     1      -1.081   5.664   1.587  0.00  0.00    +0.147 A 
ATOM     11  O   UNL     1      -1.940   4.911   0.869  0.00  0.00    -0.451 OA
ENDROOT
BRANCH   1  14
ATOM     12  C   UNL     1      -4.324   0.986  -0.278  0.00  0.00    +0.166 A 
ATOM     13  C   UNL     1      -3.401   1.683   0.479  0.00  0.00    +0.061 A 
ATOM     14  C   UNL     1      -2.797   2.831  -0.041  0.00  0.00    +0.028 A 
ATOM     15  C   UNL     1      -3.132   3.273  -1.324  0.00  0.00    +0.061 A 
ATOM     16  C   UNL     1      -4.051   2.568  -2.079  0.00  0.00    +0.166 A 
ATOM     17  C   UNL     1      -4.651   1.425  -1.557  0.00  0.00    +0.201 A 
BRANCH  12  19
ATOM     18  C   UNL     1      -4.530  -0.524   1.548  0.00  0.00    +0.277 C 
ATOM     19  O   UNL     1      -4.913  -0.131   0.229  0.00  0.00    -0.491 OA
ENDBRANCH  12  19
BRANCH  17  20
ATOM     20  O   UNL     1      -5.559   0.737  -2.300  0.00  0.00    -0.501 OA
ATOM     21  H   UNL     1      -6.471   1.032  -2.178  0.00  0.00    +0.292 HD
ENDBRANCH  17  20
BRANCH  16  22
ATOM     22  O   UNL     1      -4.373   2.994  -3.329  0.00  0.00    -0.491 OA
ATOM     23  C   UNL     1      -3.719   4.174  -3.801  0.00  0.00    +0.277 C 
ENDBRANCH  16  22
ENDBRANCH   1  14
BRANCH   8  24
ATOM     24  O   UNL     1      -0.520   9.143   2.496  0.00  0.00    -0.507 OA
ATOM     25  H   UNL     1      -1.075   9.427   3.236  0.00  0.00    +0.292 HD
ENDBRANCH   8  24
BRANCH   6  26
ATOM     26  O   UNL     1       1.929   5.237   3.651  0.00  0.00    -0.506 OA
ATOM     27  H   UNL     1       1.724   4.961   4.554  0.00  0.00    +0.292 HD
ENDBRANCH   6  26
BRANCH   2  28
ATOM     28  O   UNL     1      -0.718   1.538   1.236  0.00  0.00    -0.488 OA
ATOM     29  C   UNL     1       0.146   1.045   0.211  0.00  0.00    +0.277 C 
ENDBRANCH   2  28
TORSDOF 7
