REMARK  Name = ZINC37969604
REMARK  4 active torsions:
REMARK  status: ('A' for Active; 'I' for Inactive)
REMARK    1  A    between atoms: C_3  and  C_9
REMARK    2  A    between atoms: C_9  and  C_11
REMARK    3  A    between atoms: C_9  and  N_14
REMARK    4  A    between atoms: N_14  and  C_15
REMARK                            x       y       z     vdW  Elec       q    Type
REMARK                         _______ _______ _______ _____ _____    ______ ____
ROOT
ATOM      1  C   UNL     1       3.671   2.186  -0.023  0.00  0.00    +0.048 C 
ENDROOT
BRANCH   1   4
ATOM      2  C   UNL     1       0.101   1.914   1.175  0.00  0.00    +0.002 A 
ATOM      3  C   UNL     1       1.461   2.163   1.151  0.00  0.00    +0.004 A 
ATOM      4  C   UNL     1       2.190   1.913   0.003  0.00  0.00    -0.033 A 
ATOM      5  C   UNL     1       1.558   1.413  -1.122  0.00  0.00    +0.061 A 
ATOM      6  C   UNL     1       0.197   1.163  -1.097  0.00  0.00    +0.059 A 
ATOM      7  C   UNL     1      -0.531   1.415   0.052  0.00  0.00    +0.021 A 
ATOM      8 CL   UNL     1      -0.596   0.536  -2.508  0.00  0.00    -0.082 Cl
ATOM      9 CL   UNL     1       2.473   1.100  -2.564  0.00  0.00    -0.082 Cl
ENDBRANCH   1   4
BRANCH   1  10
ATOM     10  C   UNL     1       4.180   2.330   1.388  0.00  0.00    +0.201 C 
ATOM     11  O   UNL     1       4.251   3.429   1.898  0.00  0.00    -0.277 OA
ATOM     12  N   UNL     1       4.557   1.239   2.084  0.00  0.00    -0.330 N 
ATOM     13  H   UNL     1       4.570   0.370   1.653  0.00  0.00    +0.145 HD
ATOM     14  H   UNL     1       4.816   1.323   3.015  0.00  0.00    +0.145 HD
ENDBRANCH   1  10
BRANCH   1  15
ATOM     15  N   UNL     1       3.928   3.428  -0.765  0.00  0.00    +0.391 N 
ATOM     16  H   UNL     1       3.515   3.362  -1.683  0.00  0.00    -0.084 HD
ATOM     17  H   UNL     1       3.522   4.206  -0.269  0.00  0.00    -0.084 HD
BRANCH  15  18
ATOM     18  C   UNL     1       5.377   3.631  -0.893  0.00  0.00    -0.070 C 
ATOM     19  C   UNL     1       5.975   2.514  -1.753  0.00  0.00    -0.016 C 
ATOM     20  C   UNL     1       7.484   2.726  -1.886  0.00  0.00    -0.002 C 
ATOM     21  C   UNL     1       7.753   4.079  -2.549  0.00  0.00    -0.000 C 
ATOM     22  C   UNL     1       7.155   5.195  -1.690  0.00  0.00    -0.002 C 
ATOM     23  C   UNL     1       5.646   4.983  -1.556  0.00  0.00    -0.016 C 
ENDBRANCH  15  18
ENDBRANCH   1  15
TORSDOF 4
