REMARK  Name = ZINC37063230
REMARK  7 active torsions:
REMARK  status: ('A' for Active; 'I' for Inactive)
REMARK    1  A    between atoms: C_1  and  C_2
REMARK    2  A    between atoms: C_2  and  N_3
REMARK    3  A    between atoms: C_7  and  C_9
REMARK    4  A    between atoms: C_9  and  N_10
REMARK    5  A    between atoms: N_10  and  S_11
REMARK    6  A    between atoms: S_11  and  C_14
REMARK    7  A    between atoms: C_17  and  N_21
REMARK                            x       y       z     vdW  Elec       q    Type
REMARK                         _______ _______ _______ _____ _____    ______ ____
ROOT
ATOM      1  S   UNL     1      -2.451  -1.720   3.964  0.00  0.00    +0.061 S 
ATOM      2  O   UNL     1      -1.655  -1.022   4.912  0.00  0.00    -0.153 OA
ATOM      3  O   UNL     1      -3.772  -1.315   3.633  0.00  0.00    -0.153 OA
ENDROOT
BRANCH   1   4
ATOM      4  C   UNL     1      -2.562  -3.385   4.530  0.00  0.00    +0.142 A 
ATOM      5  C   UNL     1      -3.622  -4.181   4.131  0.00  0.00    +0.070 A 
ATOM      6  C   UNL     1      -3.711  -5.487   4.573  0.00  0.00    +0.044 A 
ATOM      7  C   UNL     1      -2.736  -6.002   5.418  0.00  0.00    +0.027 A 
ATOM      8  C   UNL     1      -1.673  -5.201   5.816  0.00  0.00    +0.044 A 
ATOM      9  C   UNL     1      -1.586  -3.897   5.367  0.00  0.00    +0.070 A 
ATOM     10 CL   UNL     1      -0.254  -2.898   5.859  0.00  0.00    -0.081 Cl
ATOM     11 CL   UNL     1      -4.840  -3.537   3.075  0.00  0.00    -0.081 Cl
BRANCH   7  12
ATOM     12  N   UNL     1      -2.824  -7.322   5.866  0.00  0.00    -0.358 N 
ATOM     13  H   UNL     1      -3.567  -7.880   5.588  0.00  0.00    +0.142 HD
ATOM     14  H   UNL     1      -2.143  -7.680   6.456  0.00  0.00    +0.142 HD
ENDBRANCH   7  12
ENDBRANCH   1   4
BRANCH   1  15
ATOM     15  N   UNL     1      -1.592  -1.740   2.548  0.00  0.00    -0.191 NA
ATOM     16  H   UNL     1      -0.727  -1.304   2.499  0.00  0.00    +0.148 HD
BRANCH  15  17
ATOM     17  C   UNL     1      -2.139  -2.417   1.369  0.00  0.00    +0.090 C 
BRANCH  17  22
ATOM     18  N   UNL     1      -1.376  -0.512   0.012  0.00  0.00    +0.382 N 
ATOM     19  C   UNL     1      -2.052  -0.144  -1.250  0.00  0.00    -0.078 C 
ATOM     20  C   UNL     1      -1.892  -1.386  -2.162  0.00  0.00    -0.020 C 
ATOM     21  C   UNL     1      -2.041  -2.545  -1.141  0.00  0.00    -0.016 C 
ATOM     22  C   UNL     1      -1.362  -1.983   0.125  0.00  0.00    -0.053 C 
ATOM     23  H   UNL     1      -1.879  -0.117   0.793  0.00  0.00    -0.081 HD
BRANCH  18  25
ATOM     24  C   UNL     1      -0.019   1.526   0.010  0.00  0.00    -0.017 C 
ATOM     25  C   UNL     1       0.002  -0.004   0.002  0.00  0.00    -0.082 C 
ENDBRANCH  18  25
ENDBRANCH  17  22
ENDBRANCH  15  17
ENDBRANCH   1  15
TORSDOF 6
