REMARK  Name = ZINC44280167
REMARK  6 active torsions:
REMARK  status: ('A' for Active; 'I' for Inactive)
REMARK    1  A    between atoms: C_1  and  C_2
REMARK    2  A    between atoms: C_6  and  C_7
REMARK    3  A    between atoms: N_9  and  N_10
REMARK    4  A    between atoms: C_11  and  C_13
REMARK    5  A    between atoms: C_15  and  C_19
REMARK    6  A    between atoms: C_17  and  C_18
REMARK                            x       y       z     vdW  Elec       q    Type
REMARK                         _______ _______ _______ _____ _____    ______ ____
ROOT
ATOM      1  C   UNL     1       0.032  -0.395   2.494  0.00  0.00    +0.296 C 
ATOM      2  O   UNL     1       0.018   0.792   2.767  0.00  0.00    -0.265 OA
ATOM      3  N   UNL     1       0.053  -1.312   3.481  0.00  0.00    -0.228 N 
ATOM      4  H   UNL     1       0.064  -2.258   3.264  0.00  0.00    +0.173 HD
ENDROOT
BRANCH   1  10
ATOM      5  C   UNL     1      -0.018   1.503   0.010  0.00  0.00    +0.048 C 
ATOM      6  C   UNL     1       0.002  -0.004   0.002  0.00  0.00    +0.001 A 
ATOM      7  C   UNL     1       0.009  -0.835  -1.128  0.00  0.00    +0.061 A 
ATOM      8  C   UNL     1       0.028  -2.113  -0.683  0.00  0.00    +0.171 A 
ATOM      9  O   UNL     1       0.033  -2.102   0.656  0.00  0.00    -0.443 OA
ATOM     10  C   UNL     1       0.024  -0.825   1.094  0.00  0.00    +0.195 A 
ATOM     11 BR   UNL     1       0.044  -3.658  -1.772  0.00  0.00    -0.008 Br
ENDBRANCH   1  10
BRANCH   3  12
ATOM     12  N   UNL     1       0.061  -0.901   4.821  0.00  0.00    -0.230 N 
ATOM     13  C   UNL     1       0.083  -1.819   5.807  0.00  0.00    +0.263 C 
ATOM     14  O   UNL     1       0.096  -3.004   5.535  0.00  0.00    -0.269 OA
ATOM     15  H   UNL     1       0.050   0.044   5.038  0.00  0.00    +0.173 HD
BRANCH  13  16
ATOM     16  C   UNL     1       0.091  -1.386   7.216  0.00  0.00    +0.079 A 
ATOM     17  C   UNL     1       0.071  -0.006   7.722  0.00  0.00    +0.057 A 
ATOM     18  C   UNL     1       0.087  -0.103   9.060  0.00  0.00    +0.103 A 
ATOM     19  O   UNL     1       0.114  -1.399   9.406  0.00  0.00    -0.464 OA
ATOM     20  C   UNL     1       0.112  -2.182   8.323  0.00  0.00    +0.114 A 
ATOM     21  C   UNL     1       0.132  -3.689   8.325  0.00  0.00    +0.087 C 
ATOM     22  C   UNL     1       0.076   1.058  10.021  0.00  0.00    +0.086 C 
ENDBRANCH  13  16
ENDBRANCH   3  12
TORSDOF 3
