REMARK  Name = ZINC47832744
REMARK  12 active torsions:
REMARK  status: ('A' for Active; 'I' for Inactive)
REMARK    1  A    between atoms: C_1  and  C_2
REMARK    2  A    between atoms: C_2  and  C_3
REMARK    3  A    between atoms: N_5  and  C_6
REMARK    4  A    between atoms: C_9  and  C_12
REMARK    5  A    between atoms: C_12  and  C_14
REMARK    6  A    between atoms: C_12  and  N_15
REMARK    7  A    between atoms: N_18  and  C_19
REMARK    8  A    between atoms: C_19  and  C_20
REMARK    9  A    between atoms: C_20  and  C_22
REMARK   10  A    between atoms: C_20  and  N_27
REMARK   11  A    between atoms: N_27  and  C_28
REMARK   12  A    between atoms: N_27  and  C_29
REMARK                            x       y       z     vdW  Elec       q    Type
REMARK                         _______ _______ _______ _____ _____    ______ ____
ROOT
ATOM      1  N   UNL     1      -7.214  -4.989   0.388  0.00  0.00    -0.293 N 
ATOM      2  C   UNL     1      -8.425  -5.163   0.955  0.00  0.00    +0.300 C 
ATOM      3  O   UNL     1      -9.334  -4.400   0.692  0.00  0.00    -0.253 OA
ATOM      4  N   UNL     1      -8.627  -6.182   1.813  0.00  0.00    -0.301 N 
ATOM      5  H   UNL     1      -6.489  -5.598   0.598  0.00  0.00    +0.151 HD
ATOM      6  H   UNL     1      -7.901  -6.791   2.023  0.00  0.00    +0.150 HD
ENDROOT
BRANCH   1   7
ATOM      7  C   UNL     1      -6.994  -3.881  -0.545  0.00  0.00    +0.102 C 
ATOM      8  C   UNL     1      -7.428  -4.303  -1.950  0.00  0.00    +0.033 C 
BRANCH   7  12
ATOM      9  C   UNL     1      -2.845  -2.855  -0.585  0.00  0.00    +0.033 A 
ATOM     10  C   UNL     1      -3.809  -1.856  -0.625  0.00  0.00    +0.023 A 
ATOM     11  C   UNL     1      -5.149  -2.191  -0.612  0.00  0.00    +0.007 A 
ATOM     12  C   UNL     1      -5.531  -3.519  -0.559  0.00  0.00    -0.027 A 
ATOM     13  C   UNL     1      -4.573  -4.516  -0.518  0.00  0.00    +0.007 A 
ATOM     14  C   UNL     1      -3.232  -4.188  -0.537  0.00  0.00    +0.023 A 
BRANCH   9  17
ATOM     15  C   UNL     1      -0.604  -3.306  -1.244  0.00  0.00    +0.217 C 
ATOM     16  O   UNL     1      -0.973  -4.349  -1.742  0.00  0.00    -0.275 OA
ATOM     17  N   UNL     1      -1.487  -2.519  -0.598  0.00  0.00    -0.286 N 
ATOM     18  H   UNL     1      -1.181  -1.720  -0.141  0.00  0.00    +0.155 HD
BRANCH  15  20
ATOM     19  C   UNL     1       1.621  -3.951  -2.127  0.00  0.00    +0.013 C 
ATOM     20  C   UNL     1       0.840  -2.889  -1.350  0.00  0.00    +0.093 C 
ENDBRANCH  15  20
ENDBRANCH   9  17
ENDBRANCH   7  12
ENDBRANCH   1   7
BRANCH   4  21
ATOM     21  C   UNL     1      -9.943  -6.371   2.429  0.00  0.00    +0.095 C 
BRANCH  21  22
ATOM     22  C   UNL     1      -9.871  -7.512   3.445  0.00  0.00    -0.014 C 
BRANCH  22  23
ATOM     23  C   UNL     1      -9.546  -8.800   2.733  0.00  0.00    -0.022 A 
ATOM     24  C   UNL     1      -8.356  -9.439   2.627  0.00  0.00    +0.009 A 
ATOM     25  C   UNL     1      -8.292 -10.623   1.916  0.00  0.00    +0.008 A 
ATOM     26  C   UNL     1      -9.422 -11.110   1.347  0.00  0.00    +0.045 A 
ATOM     27  S   UNL     1     -10.630  -9.883   1.817  0.00  0.00    -0.103 S 
ENDBRANCH  22  23
BRANCH  22  28
ATOM     28  N   UNL     1     -11.166  -7.643   4.127  0.00  0.00    +0.382 N 
ATOM     29  C   UNL     1     -11.069  -8.674   5.168  0.00  0.00    -0.096 C 
ATOM     30  C   UNL     1     -11.528  -6.359   4.741  0.00  0.00    -0.096 C 
ATOM     31  H   UNL     1     -11.873  -7.906   3.457  0.00  0.00    -0.082 HD
ENDBRANCH  22  28
ENDBRANCH  21  22
ENDBRANCH   4  21
TORSDOF 8
