REMARK  Name = ZINC09576931
REMARK  8 active torsions:
REMARK  status: ('A' for Active; 'I' for Inactive)
REMARK    1  A    between atoms: C_1  and  C_2
REMARK    2  A    between atoms: C_2  and  C_4
REMARK    3  A    between atoms: C_2  and  N_60
REMARK    4  A    between atoms: N_6  and  C_7
REMARK    5  A    between atoms: C_8  and  C_15
REMARK    6  A    between atoms: N_20  and  S_23
REMARK    7  A    between atoms: S_23  and  C_26
REMARK    8  A    between atoms: C_26  and  C_27
REMARK                            x       y       z     vdW  Elec       q    Type
REMARK                         _______ _______ _______ _____ _____    ______ ____
ROOT
ATOM      1  C   UNL     1       3.301   6.111  -1.130  0.00  0.00    -0.004 C 
ATOM      2  C   UNL     1       2.342   5.773   0.013  0.00  0.00    +0.017 C 
ENDROOT
BRANCH   2   8
ATOM      3  C   UNL     1       0.285   6.557  -0.995  0.00  0.00    -0.060 C 
ATOM      4  C   UNL     1      -0.900   7.508  -0.793  0.00  0.00    +0.090 C 
ATOM      5  N   UNL     1      -0.385   8.882  -0.699  0.00  0.00    -0.184 NA
ATOM      6  C   UNL     1       0.705   9.154   0.250  0.00  0.00    +0.090 C 
ATOM      7  C   UNL     1       1.826   8.138   0.007  0.00  0.00    -0.060 C 
ATOM      8  N   UNL     1       1.260   6.775   0.096  0.00  0.00    +0.389 N 
ATOM      9  H   UNL     1       0.779   6.672   0.997  0.00  0.00    -0.081 HD
BRANCH   5  10
ATOM     10  S   UNL     1      -1.016  10.092  -1.638  0.00  0.00    +0.036 S 
ATOM     11  O   UNL     1      -2.343   9.675  -1.924  0.00  0.00    -0.158 OA
ATOM     12  O   UNL     1      -0.773  11.284  -0.904  0.00  0.00    -0.158 OA
BRANCH  10  13
ATOM     13  C   UNL     1      -0.016  10.076  -3.152  0.00  0.00    +0.220 C 
BRANCH  13  14
ATOM     14  C   UNL     1      -0.507  11.149  -4.089  0.00  0.00    -0.025 A 
ATOM     15  C   UNL     1      -1.489  10.859  -5.018  0.00  0.00    +0.005 A 
ATOM     16  C   UNL     1      -1.943  11.845  -5.874  0.00  0.00    +0.000 A 
ATOM     17  C   UNL     1      -1.407  13.117  -5.809  0.00  0.00    +0.000 A 
ATOM     18  C   UNL     1      -0.421  13.406  -4.885  0.00  0.00    +0.000 A 
ATOM     19  C   UNL     1       0.029  12.422  -4.024  0.00  0.00    +0.005 A 
ENDBRANCH  13  14
ENDBRANCH  10  13
ENDBRANCH   5  10
ENDBRANCH   2   8
BRANCH   2  20
ATOM     20  C   UNL     1       3.096   5.768   1.317  0.00  0.00    +0.204 C 
ATOM     21  O   UNL     1       2.963   6.686   2.098  0.00  0.00    -0.277 OA
ATOM     22  N   UNL     1       3.919   4.743   1.616  0.00  0.00    -0.281 N 
ATOM     23  H   UNL     1       4.025   4.008   0.991  0.00  0.00    +0.155 HD
BRANCH  22  24
ATOM     24  C   UNL     1       4.613   4.738   2.816  0.00  0.00    +0.084 A 
ATOM     25  C   UNL     1       5.495   3.785   3.296  0.00  0.00    +0.068 A 
ATOM     26  C   UNL     1       6.100   4.021   4.607  0.00  0.00    -0.023 A 
ATOM     27  C   UNL     1       5.724   5.162   5.212  0.00  0.00    -0.004 A 
ATOM     28  S   UNL     1       4.588   5.922   4.078  0.00  0.00    -0.077 S 
ATOM     29  C   UNL     1       6.389   5.336   6.551  0.00  0.00    +0.043 C 
ATOM     30  C   UNL     1       7.578   4.350   6.526  0.00  0.00    +0.010 C 
ATOM     31  C   UNL     1       7.086   3.291   5.519  0.00  0.00    +0.037 C 
BRANCH  25  32
ATOM     32  C   UNL     1       5.812   2.583   2.519  0.00  0.00    +0.244 C 
ATOM     33  O   UNL     1       5.143   1.576   2.657  0.00  0.00    -0.270 OA
ATOM     34  N   UNL     1       6.844   2.594   1.652  0.00  0.00    -0.325 N 
ATOM     35  H   UNL     1       7.377   3.397   1.542  0.00  0.00    +0.145 HD
ATOM     36  H   UNL     1       7.053   1.798   1.138  0.00  0.00    +0.145 HD
ENDBRANCH  25  32
ENDBRANCH  22  24
ENDBRANCH   2  20
TORSDOF 7
