REMARK  Name = ZINC00625847
REMARK  10 active torsions:
REMARK  status: ('A' for Active; 'I' for Inactive)
REMARK    1  A    between atoms: C_1  and  C_2
REMARK    2  A    between atoms: C_5  and  S_8
REMARK    3  A    between atoms: S_8  and  N_11
REMARK    4  A    between atoms: N_11  and  C_12
REMARK    5  A    between atoms: C_12  and  C_13
REMARK    6  A    between atoms: C_13  and  C_14
REMARK    7  A    between atoms: C_14  and  O_16
REMARK    8  A    between atoms: O_16  and  C_17
REMARK    9  A    between atoms: C_25  and  O_28
REMARK   10  A    between atoms: O_28  and  C_29
REMARK                            x       y       z     vdW  Elec       q    Type
REMARK                         _______ _______ _______ _____ _____    ______ ____
ROOT
ATOM      1  C   UNL     1       6.012   7.734   0.162  0.00  0.00    +0.135 A 
ATOM      2  C   UNL     1       5.198   7.828  -0.965  0.00  0.00    +0.047 A 
ATOM      3  C   UNL     1       3.997   7.179  -1.006  0.00  0.00    +0.019 A 
ATOM      4  C   UNL     1       3.584   6.418   0.088  0.00  0.00    +0.068 A 
ATOM      5  C   UNL     1       4.399   6.318   1.230  0.00  0.00    +0.142 A 
ATOM      6  C   UNL     1       5.617   6.983   1.255  0.00  0.00    +0.093 A 
ATOM      7  O   UNL     1       3.989   5.580   2.281  0.00  0.00    -0.459 OA
ATOM      8  C   UNL     1       2.820   4.927   2.289  0.00  0.00    +0.245 A 
ATOM      9  C   UNL     1       1.963   4.955   1.249  0.00  0.00    +0.210 A 
ATOM     10  C   UNL     1       2.298   5.699   0.082  0.00  0.00    +0.234 A 
ATOM     11  O   UNL     1       1.550   5.744  -0.880  0.00  0.00    -0.283 OA
ENDROOT
BRANCH   1  12
ATOM     12  O   UNL     1       7.204   8.385   0.187  0.00  0.00    -0.426 OA
BRANCH  12  13
ATOM     13  C   UNL     1       7.169   9.714   0.375  0.00  0.00    +0.314 C 
ATOM     14  O   UNL     1       6.107  10.290   0.421  0.00  0.00    -0.250 OA
BRANCH  13  15
ATOM     15  C   UNL     1       8.453  10.488   0.527  0.00  0.00    +0.138 C 
BRANCH  15  16
ATOM     16  C   UNL     1       8.134  11.971   0.727  0.00  0.00    +0.117 C 
BRANCH  16  17
ATOM     17  N   UNL     1       9.382  12.723   0.875  0.00  0.00    -0.189 NA
ATOM     18  H   UNL     1      10.212  12.255   1.056  0.00  0.00    +0.148 HD
BRANCH  17  19
ATOM     19  S   UNL     1       9.377  14.373   0.734  0.00  0.00    +0.058 S 
ATOM     20  O   UNL     1      10.713  14.804   0.952  0.00  0.00    -0.153 OA
ATOM     21  O   UNL     1       8.663  14.676  -0.457  0.00  0.00    -0.153 OA
BRANCH  19  26
ATOM     22  C   UNL     1       6.097  16.545   5.309  0.00  0.00    +0.044 C 
ATOM     23  C   UNL     1       6.916  16.003   4.166  0.00  0.00    -0.050 A 
ATOM     24  C   UNL     1       8.277  15.815   4.319  0.00  0.00    +0.005 A 
ATOM     25  C   UNL     1       9.028  15.317   3.271  0.00  0.00    +0.029 A 
ATOM     26  C   UNL     1       8.419  15.007   2.070  0.00  0.00    +0.105 A 
ATOM     27  C   UNL     1       7.059  15.200   1.915  0.00  0.00    +0.029 A 
ATOM     28  C   UNL     1       6.306  15.693   2.965  0.00  0.00    +0.005 A 
ENDBRANCH  19  26
ENDBRANCH  17  19
ENDBRANCH  16  17
ENDBRANCH  15  16
ENDBRANCH  13  15
ENDBRANCH  12  13
ENDBRANCH   1  12
BRANCH   9  29
ATOM     29  O   UNL     1       0.787   4.271   1.311  0.00  0.00    -0.449 OA
BRANCH  29  30
ATOM     30  C   UNL     1       0.456   3.679   2.488  0.00  0.00    +0.129 A 
ATOM     31  C   UNL     1       0.153   4.457   3.596  0.00  0.00    +0.047 A 
ATOM     32  C   UNL     1      -0.184   3.853   4.792  0.00  0.00    +0.019 A 
ATOM     33  C   UNL     1      -0.220   2.473   4.885  0.00  0.00    +0.018 A 
ATOM     34  C   UNL     1       0.082   1.695   3.781  0.00  0.00    +0.019 A 
ATOM     35  C   UNL     1       0.419   2.295   2.583  0.00  0.00    +0.047 A 
ATOM     36 BR   UNL     1      -0.680   1.648   6.523  0.00  0.00    -0.050 Br
ENDBRANCH  29  30
ENDBRANCH   9  29
TORSDOF 9
