REMARK  Name = ZINC43365013
REMARK  10 active torsions:
REMARK  status: ('A' for Active; 'I' for Inactive)
REMARK    1  A    between atoms: C_1  and  C_2
REMARK    2  A    between atoms: C_2  and  C_3
REMARK    3  A    between atoms: C_3  and  C_5
REMARK    4  A    between atoms: C_3  and  N_22
REMARK    5  A    between atoms: C_5  and  C_7
REMARK    6  A    between atoms: C_5  and  N_13
REMARK    7  A    between atoms: C_10  and  C_12
REMARK    8  A    between atoms: N_13  and  C_14
REMARK    9  A    between atoms: N_13  and  C_15
REMARK   10  A    between atoms: C_15  and  C_16
REMARK                            x       y       z     vdW  Elec       q    Type
REMARK                         _______ _______ _______ _____ _____    ______ ____
ROOT
ATOM      1  C   UNL     1       1.033  -1.994  -1.164  0.00  0.00    +0.108 C 
ENDROOT
BRANCH   1   2
ATOM      2  C   UNL     1      -0.146  -2.928  -1.068  0.00  0.00    +0.121 A 
ATOM      3  C   UNL     1      -0.632  -3.468   0.065  0.00  0.00    +0.046 A 
ATOM      4  C   UNL     1      -1.732  -4.275  -0.305  0.00  0.00    +0.045 A 
ATOM      5  C   UNL     1      -1.852  -4.181  -1.642  0.00  0.00    +0.102 A 
ATOM      6  O   UNL     1      -0.893  -3.359  -2.098  0.00  0.00    -0.463 OA
ATOM      7  C   UNL     1      -2.892  -4.875  -2.484  0.00  0.00    +0.086 C 
ENDBRANCH   1   2
BRANCH   1   8
ATOM      8  N   UNL     1       1.831  -2.333  -2.349  0.00  0.00    -0.292 NA
ATOM      9  C   UNL     1       1.203  -1.816  -3.572  0.00  0.00    +0.105 C 
BRANCH   8  10
ATOM     10  C   UNL     1       3.208  -1.839  -2.216  0.00  0.00    +0.127 C 
BRANCH  10  11
ATOM     11  C   UNL     1       4.093  -2.543  -3.212  0.00  0.00    +0.005 A 
ATOM     12  C   UNL     1       4.398  -2.187  -4.484  0.00  0.00    +0.027 A 
ATOM     13  C   UNL     1       5.242  -2.996  -5.222  0.00  0.00    +0.025 A 
ATOM     14  C   UNL     1       5.740  -4.121  -4.651  0.00  0.00    +0.060 A 
ATOM     15  S   UNL     1       5.018  -4.058  -3.020  0.00  0.00    -0.099 S 
ATOM     16 BR   UNL     1       5.696  -2.540  -7.000  0.00  0.00    -0.050 Br
ENDBRANCH  10  11
ENDBRANCH   8  10
ENDBRANCH   1   8
BRANCH   1  17
ATOM     17  C   UNL     1       0.533  -0.553  -1.280  0.00  0.00    -0.050 C 
BRANCH  17  18
ATOM     18  N   UNL     1       1.678   0.350  -1.455  0.00  0.00    +0.381 N 
ATOM     19  H   UNL     1       2.396   0.116  -0.786  0.00  0.00    -0.090 HD
ATOM     20  H   UNL     1       2.044   0.252  -2.390  0.00  0.00    -0.090 HD
ATOM     21  H   UNL     1       1.380   1.303  -1.309  0.00  0.00    -0.090 HD
ENDBRANCH  17  18
BRANCH  17  23
ATOM     22  C   UNL     1      -0.834   1.223  -0.174  0.00  0.00    +0.002 C 
ATOM     23  C   UNL     1      -0.228  -0.172  -0.008  0.00  0.00    -0.018 C 
ENDBRANCH  17  23
ENDBRANCH   1  17
TORSDOF 7
