REMARK  Name = ZINC40982160
REMARK  14 active torsions:
REMARK  status: ('A' for Active; 'I' for Inactive)
REMARK    1  A    between atoms: C_1  and  C_2
REMARK    2  A    between atoms: C_2  and  C_3
REMARK    3  A    between atoms: C_3  and  S_4
REMARK    4  A    between atoms: S_4  and  C_5
REMARK    5  A    between atoms: C_10  and  C_27
REMARK    6  A    between atoms: C_12  and  C_16
REMARK    7  A    between atoms: C_13  and  C_15
REMARK    8  A    between atoms: N_18  and  C_19
REMARK    9  A    between atoms: C_24  and  O_25
REMARK   10  A    between atoms: O_25  and  C_26
REMARK   11  A    between atoms: C_31  and  O_33
REMARK   12  A    between atoms: O_33  and  C_34
REMARK   13  A    between atoms: C_34  and  C_35
REMARK   14  A    between atoms: C_34  and  C_36
REMARK                            x       y       z     vdW  Elec       q    Type
REMARK                         _______ _______ _______ _____ _____    ______ ____
ROOT
ATOM      1  C   UNL     1       1.494  -2.650  -2.841  0.00  0.00    +0.210 A 
ATOM      2  N   UNL     1       1.977  -1.772  -3.733  0.00  0.00    -0.187 NA
ATOM      3  C   UNL     1       2.561  -2.416  -4.706  0.00  0.00    +0.219 A 
ATOM      4  N   UNL     1       2.458  -3.744  -4.455  0.00  0.00    -0.220 N 
ATOM      5  N   UNL     1       1.775  -3.870  -3.245  0.00  0.00    -0.141 NA
ATOM      6  C   UNL     1       2.991  -4.778  -5.338  0.00  0.00    +0.177 C 
ATOM      7  C   UNL     1       3.897  -4.146  -6.360  0.00  0.00    +0.060 C 
ATOM      8  C   UNL     1       3.960  -2.822  -6.563  0.00  0.00    +0.018 C 
ATOM      9  N   UNL     1       3.203  -1.933  -5.838  0.00  0.00    -0.287 N 
ATOM     10  C   UNL     1       4.893  -2.291  -7.620  0.00  0.00    +0.061 C 
ATOM     11  H   UNL     1       3.121  -1.005  -6.107  0.00  0.00    +0.155 HD
ENDROOT
BRANCH   6  12
ATOM     12  C   UNL     1       1.853  -5.476  -6.038  0.00  0.00    -0.015 A 
ATOM     13  C   UNL     1       0.997  -4.757  -6.851  0.00  0.00    +0.006 A 
ATOM     14  C   UNL     1      -0.047  -5.395  -7.495  0.00  0.00    +0.004 A 
ATOM     15  C   UNL     1      -0.238  -6.753  -7.327  0.00  0.00    +0.045 A 
ATOM     16  C   UNL     1       0.619  -7.476  -6.511  0.00  0.00    +0.121 A 
ATOM     17  C   UNL     1       1.670  -6.835  -5.871  0.00  0.00    +0.051 A 
BRANCH  16  18
ATOM     18  O   UNL     1       0.434  -8.812  -6.344  0.00  0.00    -0.489 OA
BRANCH  18  19
ATOM     19  C   UNL     1      -0.594  -9.427  -7.124  0.00  0.00    +0.167 C 
ATOM     20  C   UNL     1      -0.279 -10.914  -7.301  0.00  0.00    +0.051 C 
ATOM     21  C   UNL     1      -1.938  -9.272  -6.410  0.00  0.00    +0.051 C 
ENDBRANCH  18  19
ENDBRANCH  16  18
ENDBRANCH   6  12
BRANCH   7  22
ATOM     22  C   UNL     1       4.720  -4.988  -7.144  0.00  0.00    +0.248 C 
ATOM     23  O   UNL     1       5.759  -5.425  -6.683  0.00  0.00    -0.270 OA
ATOM     24  N   UNL     1       4.355  -5.307  -8.402  0.00  0.00    -0.279 N 
ATOM     25  H   UNL     1       3.571  -4.896  -8.798  0.00  0.00    +0.155 HD
BRANCH  24  26
ATOM     26  C   UNL     1       5.108  -6.231  -9.137  0.00  0.00    +0.076 A 
ATOM     27  C   UNL     1       5.875  -7.182  -8.480  0.00  0.00    +0.027 A 
ATOM     28  C   UNL     1       6.617  -8.094  -9.207  0.00  0.00    +0.002 A 
ATOM     29  C   UNL     1       6.597  -8.060 -10.589  0.00  0.00    +0.004 A 
ATOM     30  C   UNL     1       5.836  -7.115 -11.251  0.00  0.00    +0.047 A 
ATOM     31  C   UNL     1       5.085  -6.201 -10.529  0.00  0.00    +0.141 A 
BRANCH  31  32
ATOM     32  O   UNL     1       4.331  -5.274 -11.179  0.00  0.00    -0.493 OA
ATOM     33  C   UNL     1       4.355  -5.304 -12.607  0.00  0.00    +0.277 C 
ENDBRANCH  31  32
ENDBRANCH  24  26
ENDBRANCH   7  22
BRANCH   1  34
ATOM     34  S   UNL     1       0.629  -2.236  -1.363  0.00  0.00    -0.084 S 
BRANCH  34  35
ATOM     35  C   UNL     1       0.568  -0.423  -1.383  0.00  0.00    +0.077 C 
BRANCH  35  37
ATOM     36  C   UNL     1      -0.219   1.605  -0.155  0.00  0.00    +0.004 C 
ATOM     37  C   UNL     1      -0.167   0.076  -0.138  0.00  0.00    +0.008 C 
ENDBRANCH  35  37
ENDBRANCH  34  35
ENDBRANCH   1  34
TORSDOF 9
