REMARK  Name = ZINC39435948
REMARK  7 active torsions:
REMARK  status: ('A' for Active; 'I' for Inactive)
REMARK    1  A    between atoms: C_6  and  C_10
REMARK    2  A    between atoms: C_10  and  C_31
REMARK    3  A    between atoms: C_11  and  C_12
REMARK    4  A    between atoms: C_15  and  O_18
REMARK    5  A    between atoms: O_18  and  C_19
REMARK    6  A    between atoms: C_19  and  C_20
REMARK    7  A    between atoms: N_22  and  C_23
REMARK                            x       y       z     vdW  Elec       q    Type
REMARK                         _______ _______ _______ _____ _____    ______ ____
ROOT
ATOM      1  C   UNL     1       4.200  -4.942  -2.390  0.00  0.00    -0.024 A 
ATOM      2  C   UNL     1       3.711  -4.635  -3.665  0.00  0.00    +0.011 A 
ATOM      3  C   UNL     1       4.124  -5.370  -4.754  0.00  0.00    +0.046 A 
ATOM      4  C   UNL     1       5.025  -6.416  -4.588  0.00  0.00    +0.121 A 
ATOM      5  C   UNL     1       5.512  -6.726  -3.324  0.00  0.00    +0.046 A 
ATOM      6  C   UNL     1       5.111  -5.993  -2.230  0.00  0.00    +0.011 A 
ENDROOT
BRANCH   1   8
ATOM      7  C   UNL     1       2.496  -3.698  -1.159  0.00  0.00    +0.072 C 
ATOM      8  C   UNL     1       3.763  -4.160  -1.225  0.00  0.00    +0.026 C 
BRANCH   7  14
ATOM      9  C   UNL     1      -2.231  -1.473   0.828  0.00  0.00    +0.002 A 
ATOM     10  C   UNL     1      -1.837  -0.377   0.040  0.00  0.00    +0.002 A 
ATOM     11  C   UNL     1      -0.602  -0.268  -0.489  0.00  0.00    +0.027 A 
ATOM     12  C   UNL     1       0.387  -1.327  -0.243  0.00  0.00    +0.060 A 
ATOM     13  N   UNL     1       1.624  -1.486  -0.617  0.00  0.00    -0.359 N 
ATOM     14  C   UNL     1       2.094  -2.757  -0.052  0.00  0.00    +0.216 C 
ATOM     15  N   UNL     1       0.966  -3.319   0.701  0.00  0.00    -0.359 N 
ATOM     16  C   UNL     1      -0.030  -2.487   0.591  0.00  0.00    +0.060 A 
ATOM     17  C   UNL     1      -1.403  -2.497   1.114  0.00  0.00    +0.027 A 
ATOM     18  H   UNL     1       2.140  -0.877  -1.167  0.00  0.00    +0.162 HD
ATOM     19  H   UNL     1       0.962  -4.156   1.191  0.00  0.00    +0.162 HD
ENDBRANCH   7  14
BRANCH   7  20
ATOM     20  C   UNL     1       1.535  -4.101  -2.140  0.00  0.00    +0.099 C 
ATOM     21  N   UNL     1       0.772  -4.421  -2.919  0.00  0.00    -0.191 NA
ENDBRANCH   7  20
ENDBRANCH   1   8
BRANCH   4  22
ATOM     22  O   UNL     1       5.428  -7.138  -5.665  0.00  0.00    -0.483 OA
BRANCH  22  23
ATOM     23  C   UNL     1       6.355  -8.199  -5.424  0.00  0.00    +0.324 C 
BRANCH  23  24
ATOM     24  C   UNL     1       6.686  -8.883  -6.725  0.00  0.00    +0.255 C 
ATOM     25  O   UNL     1       6.178  -8.499  -7.758  0.00  0.00    -0.272 OA
ATOM     26  N   UNL     1       7.545  -9.921  -6.742  0.00  0.00    -0.283 N 
ATOM     27  H   UNL     1       7.894 -10.275  -5.909  0.00  0.00    +0.155 HD
BRANCH  26  28
ATOM     28  C   UNL     1       7.936 -10.486  -7.962  0.00  0.00    +0.035 A 
ATOM     29  C   UNL     1       8.144 -11.856  -8.058  0.00  0.00    +0.025 A 
ATOM     30  C   UNL     1       8.529 -12.412  -9.262  0.00  0.00    +0.023 A 
ATOM     31  C   UNL     1       8.708 -11.606 -10.373  0.00  0.00    +0.059 A 
ATOM     32  C   UNL     1       8.501 -10.240 -10.280  0.00  0.00    +0.061 A 
ATOM     33  C   UNL     1       8.110  -9.679  -9.078  0.00  0.00    +0.044 A 
ATOM     34 CL   UNL     1       8.727  -9.231 -11.675  0.00  0.00    -0.082 Cl
ATOM     35 CL   UNL     1       9.191 -12.309 -11.884  0.00  0.00    -0.082 Cl
ENDBRANCH  26  28
ENDBRANCH  23  24
ENDBRANCH  22  23
ENDBRANCH   4  22
TORSDOF 7
