REMARK  Name = ZINC38984684
REMARK  8 active torsions:
REMARK  status: ('A' for Active; 'I' for Inactive)
REMARK    1  A    between atoms: C_1  and  O_2
REMARK    2  A    between atoms: O_2  and  C_3
REMARK    3  A    between atoms: C_3  and  C_5
REMARK    4  A    between atoms: C_7  and  N_16
REMARK    5  A    between atoms: N_16  and  C_17
REMARK    6  A    between atoms: C_17  and  N_19
REMARK    7  A    between atoms: N_19  and  C_20
REMARK    8  A    between atoms: C_20  and  C_21
REMARK                            x       y       z     vdW  Elec       q    Type
REMARK                         _______ _______ _______ _____ _____    ______ ____
ROOT
ATOM      1  C   UNL     1       0.784  -1.908  -1.162  0.00  0.00    +0.234 C 
ATOM      2  C   UNL     1       1.874  -2.593  -0.368  0.00  0.00    +0.052 C 
ATOM      3  C   UNL     1       2.559  -3.384  -1.276  0.00  0.00    +0.019 A 
ATOM      4  C   UNL     1       3.668  -4.252  -1.139  0.00  0.00    +0.026 A 
ATOM      5  C   UNL     1       4.142  -4.914  -2.224  0.00  0.00    +0.019 A 
ATOM      6  C   UNL     1       3.561  -4.762  -3.486  0.00  0.00    +0.017 A 
ATOM      7  C   UNL     1       2.497  -3.947  -3.691  0.00  0.00    +0.027 A 
ATOM      8  C   UNL     1       1.944  -3.221  -2.604  0.00  0.00    +0.045 A 
ATOM      9  N   UNL     1       0.930  -2.380  -2.542  0.00  0.00    -0.367 N 
ATOM     10 BR   UNL     1       5.625  -6.071  -2.025  0.00  0.00    -0.050 Br
ATOM     11  H   UNL     1       0.370  -2.116  -3.289  0.00  0.00    +0.161 HD
ENDROOT
BRANCH   1  12
ATOM     12  C   UNL     1       0.961  -0.412  -1.103  0.00  0.00    +0.335 C 
ATOM     13  O   UNL     1       1.897   0.107  -1.664  0.00  0.00    -0.248 OA
BRANCH  12  15
ATOM     14  C   UNL     1       0.310   1.752  -0.414  0.00  0.00    +0.280 C 
ATOM     15  O   UNL     1       0.080   0.342  -0.428  0.00  0.00    -0.466 OA
ENDBRANCH  12  15
ENDBRANCH   1  12
BRANCH   2  16
ATOM     16  N   UNL     1       2.128  -2.461   0.962  0.00  0.00    -0.298 N 
ATOM     17  H   UNL     1       2.963  -2.789   1.331  0.00  0.00    +0.154 HD
BRANCH  16  18
ATOM     18  C   UNL     1       1.219  -1.874   1.766  0.00  0.00    +0.135 C 
ATOM     19  S   UNL     1      -0.318  -1.442   1.149  0.00  0.00    -0.019 S 
BRANCH  18  20
ATOM     20  N   UNL     1       1.521  -1.629   3.057  0.00  0.00    -0.322 N 
ATOM     21  H   UNL     1       2.392  -1.874   3.406  0.00  0.00    +0.148 HD
BRANCH  20  22
ATOM     22  C   UNL     1       0.534  -0.991   3.931  0.00  0.00    +0.138 C 
BRANCH  22  23
ATOM     23  C   UNL     1       1.115  -0.830   5.312  0.00  0.00    -0.030 A 
ATOM     24  C   UNL     1       0.962  -1.835   6.248  0.00  0.00    +0.005 A 
ATOM     25  C   UNL     1       1.495  -1.688   7.515  0.00  0.00    +0.000 A 
ATOM     26  C   UNL     1       2.183  -0.535   7.846  0.00  0.00    +0.000 A 
ATOM     27  C   UNL     1       2.337   0.470   6.909  0.00  0.00    +0.000 A 
ATOM     28  C   UNL     1       1.808   0.321   5.641  0.00  0.00    +0.005 A 
ENDBRANCH  22  23
ENDBRANCH  20  22
ENDBRANCH  18  20
ENDBRANCH  16  18
ENDBRANCH   2  16
TORSDOF 7
