REMARK  Name = ZINC38979220
REMARK  6 active torsions:
REMARK  status: ('A' for Active; 'I' for Inactive)
REMARK    1  A    between atoms: C_1  and  C_2
REMARK    2  A    between atoms: C_5  and  S_9
REMARK    3  A    between atoms: C_7  and  C_8
REMARK    4  A    between atoms: S_9  and  N_12
REMARK    5  A    between atoms: C_14  and  N_24
REMARK    6  A    between atoms: N_24  and  C_25
REMARK                            x       y       z     vdW  Elec       q    Type
REMARK                         _______ _______ _______ _____ _____    ______ ____
ROOT
ATOM      1  N   UNL     1       1.494  -5.117  -0.279  0.00  0.00    -0.110 NA
ATOM      2  C   UNL     1       1.901  -6.347  -0.160  0.00  0.00    +0.192 C 
ATOM      3  C   UNL     1       3.375  -6.659  -0.040  0.00  0.00    +0.237 C 
ATOM      4  N   UNL     1       3.770  -8.070   0.093  0.00  0.00    -0.359 N 
ATOM      5  C   UNL     1       2.835  -8.979   0.102  0.00  0.00    +0.063 A 
ATOM      6  C   UNL     1       3.177 -10.404   0.233  0.00  0.00    +0.027 A 
ATOM      7  C   UNL     1       2.181 -11.316   0.238  0.00  0.00    +0.002 A 
ATOM      8  C   UNL     1       0.832 -10.939   0.123  0.00  0.00    +0.002 A 
ATOM      9  C   UNL     1       0.442  -9.652  -0.001  0.00  0.00    +0.030 A 
ATOM     10  C   UNL     1       1.403  -8.610  -0.018  0.00  0.00    +0.089 A 
ATOM     11  N   UNL     1       1.017  -7.357  -0.135  0.00  0.00    -0.226 NA
ATOM     12  H   UNL     1       4.704  -8.319   0.172  0.00  0.00    +0.162 HD
ENDROOT
BRANCH   1  13
ATOM     13  S   UNL     1      -0.124  -4.788  -0.402  0.00  0.00    +0.100 S 
ATOM     14  O   UNL     1      -0.708  -5.149   0.842  0.00  0.00    -0.146 OA
ATOM     15  O   UNL     1      -0.558  -5.341  -1.637  0.00  0.00    -0.146 OA
BRANCH  13  20
ATOM     16  C   UNL     1      -0.698   1.198  -0.900  0.00  0.00    +0.044 C 
ATOM     17  C   UNL     1      -0.554  -0.297  -0.776  0.00  0.00    -0.047 A 
ATOM     18  C   UNL     1      -0.416  -1.075  -1.911  0.00  0.00    +0.005 A 
ATOM     19  C   UNL     1      -0.284  -2.446  -1.796  0.00  0.00    +0.029 A 
ATOM     20  C   UNL     1      -0.290  -3.040  -0.548  0.00  0.00    +0.113 A 
ATOM     21  C   UNL     1      -0.428  -2.262   0.587  0.00  0.00    +0.032 A 
ATOM     22  C   UNL     1      -0.555  -0.890   0.473  0.00  0.00    -0.046 A 
ATOM     23  C   UNL     1      -0.700  -0.042   1.710  0.00  0.00    +0.044 C 
ENDBRANCH  13  20
ENDBRANCH   1  13
BRANCH   3  24
ATOM     24  N   UNL     1       4.044  -6.119  -1.226  0.00  0.00    -0.318 N 
ATOM     25  H   UNL     1       3.649  -6.240  -2.103  0.00  0.00    +0.148 HD
BRANCH  24  26
ATOM     26  C   UNL     1       5.252  -5.429  -1.093  0.00  0.00    +0.030 A 
ATOM     27  C   UNL     1       5.900  -5.391   0.135  0.00  0.00    +0.023 A 
ATOM     28  C   UNL     1       7.094  -4.708   0.263  0.00  0.00    +0.003 A 
ATOM     29  C   UNL     1       7.644  -4.063  -0.829  0.00  0.00    +0.015 A 
ATOM     30  C   UNL     1       7.001  -4.098  -2.054  0.00  0.00    +0.020 A 
ATOM     31  C   UNL     1       5.809  -4.785  -2.190  0.00  0.00    +0.038 A 
ATOM     32 BR   UNL     1       7.758  -3.214  -3.544  0.00  0.00    -0.050 Br
ENDBRANCH  24  26
ENDBRANCH   3  24
TORSDOF 4
