REMARK  Name = ZINC63933248
REMARK  9 active torsions:
REMARK  status: ('A' for Active; 'I' for Inactive)
REMARK    1  A    between atoms: C_1  and  O_2
REMARK    2  A    between atoms: O_2  and  C_3
REMARK    3  A    between atoms: C_6  and  C_9
REMARK    4  A    between atoms: C_9  and  N_10
REMARK    5  A    between atoms: C_11  and  O_37
REMARK    6  A    between atoms: C_14  and  O_36
REMARK    7  A    between atoms: C_15  and  C_19
REMARK    8  A    between atoms: C_26  and  O_31
REMARK    9  A    between atoms: O_31  and  C_32
REMARK                            x       y       z     vdW  Elec       q    Type
REMARK                         _______ _______ _______ _____ _____    ______ ____
ROOT
ATOM      1  N   UNL     1       1.620  -2.797   5.383  0.00  0.00    -0.252 N 
ATOM      2  C   UNL     1       1.428  -1.773   6.400  0.00  0.00    +0.334 C 
ATOM      3  N   UNL     1       0.160  -1.922   7.095  0.00  0.00    -0.204 NA
ATOM      4  C   UNL     1      -0.516  -3.004   7.131  0.00  0.00    +0.200 C 
ATOM      5  C   UNL     1      -0.073  -4.264   6.447  0.00  0.00    +0.179 C 
ATOM      6  C   UNL     1       0.944  -3.953   5.386  0.00  0.00    +0.233 C 
ATOM      7  O   UNL     1       1.160  -4.768   4.515  0.00  0.00    -0.275 OA
ENDROOT
BRANCH   5   8
ATOM      8  C   UNL     1       0.544  -5.210   7.479  0.00  0.00    +0.101 C 
ATOM      9  C   UNL     1      -0.522  -5.638   8.490  0.00  0.00    +0.124 C 
ATOM     10  C   UNL     1       0.206  -6.431   9.569  0.00  0.00    -0.036 C 
ATOM     11  C   UNL     1      -0.416  -7.597   9.662  0.00  0.00    +0.003 A 
ATOM     12  C   UNL     1      -0.235  -8.740  10.571  0.00  0.00    +0.055 A 
ATOM     13  C   UNL     1      -1.054  -9.810  10.377  0.00  0.00    +0.121 A 
ATOM     14  C   UNL     1      -2.037  -9.874   9.379  0.00  0.00    +0.047 A 
ATOM     15  C   UNL     1      -2.292  -8.878   8.493  0.00  0.00    +0.029 A 
ATOM     16  C   UNL     1      -1.473  -7.664   8.606  0.00  0.00    +0.043 A 
ATOM     17  N   UNL     1      -1.514  -6.544   7.912  0.00  0.00    -0.376 N 
ATOM     18  C   UNL     1       1.448  -5.897  10.241  0.00  0.00    +0.048 C 
ATOM     19  C   UNL     1       2.366  -5.395   9.111  0.00  0.00    +0.085 C 
ATOM     20  N   UNL     1       1.620  -4.517   8.206  0.00  0.00    -0.310 NA
ATOM     21  H   UNL     1       2.241  -4.043   7.567  0.00  0.00    +0.122 HD
ATOM     22  H   UNL     1      -2.087  -6.350   7.154  0.00  0.00    +0.160 HD
BRANCH  13  23
ATOM     23  O   UNL     1      -0.910 -10.881  11.201  0.00  0.00    -0.495 OA
ATOM     24  C   UNL     1      -1.781 -11.992  10.979  0.00  0.00    +0.277 C 
ENDBRANCH  13  23
ENDBRANCH   5   8
BRANCH   4  25
ATOM     25  O   UNL     1      -1.679  -3.015   7.814  0.00  0.00    -0.495 OA
ATOM     26  H   UNL     1      -1.900  -2.170   8.228  0.00  0.00    +0.293 HD
ENDBRANCH   4  25
BRANCH   2  27
ATOM     27  O   UNL     1       1.467  -0.487   5.778  0.00  0.00    -0.356 OA
ATOM     28  H   UNL     1       1.346   0.250   6.391  0.00  0.00    +0.214 HD
ENDBRANCH   2  27
BRANCH   1  29
ATOM     29  C   UNL     1       2.587  -2.550   4.310  0.00  0.00    +0.147 C 
BRANCH  29  33
ATOM     30  C   UNL     1       0.626  -0.618   1.042  0.00  0.00    +0.120 A 
ATOM     31  C   UNL     1       1.202   0.138   2.051  0.00  0.00    +0.046 A 
ATOM     32  C   UNL     1       1.835  -0.488   3.107  0.00  0.00    +0.009 A 
ATOM     33  C   UNL     1       1.895  -1.869   3.158  0.00  0.00    -0.030 A 
ATOM     34  C   UNL     1       1.322  -2.625   2.152  0.00  0.00    +0.009 A 
ATOM     35  C   UNL     1       0.682  -2.003   1.098  0.00  0.00    +0.046 A 
BRANCH  30  37
ATOM     36  C   UNL     1      -0.017   1.425   0.010  0.00  0.00    +0.277 C 
ATOM     37  O   UNL     1       0.002  -0.004   0.002  0.00  0.00    -0.495 OA
ENDBRANCH  30  37
ENDBRANCH  29  33
ENDBRANCH   1  29
TORSDOF 7
