REMARK  Name = ZINC00729433
REMARK  7 active torsions:
REMARK  status: ('A' for Active; 'I' for Inactive)
REMARK    1  A    between atoms: C_1  and  C_2
REMARK    2  A    between atoms: C_2  and  O_3
REMARK    3  A    between atoms: O_3  and  C_4
REMARK    4  A    between atoms: C_6  and  C_12
REMARK    5  A    between atoms: C_9  and  O_10
REMARK    6  A    between atoms: C_22  and  C_32
REMARK    7  A    between atoms: C_23  and  C_24
REMARK                            x       y       z     vdW  Elec       q    Type
REMARK                         _______ _______ _______ _____ _____    ______ ____
ROOT
ATOM      1  C   UNL     1       0.829  -5.031   0.003  0.00  0.00    +0.090 C 
ATOM      2  C   UNL     1       0.840  -5.857   1.264  0.00  0.00    +0.024 C 
ATOM      3  C   UNL     1       0.292  -7.090   1.286  0.00  0.00    +0.015 C 
ATOM      4  C   UNL     1       0.288  -7.917   2.548  0.00  0.00    +0.051 C 
ATOM      5  C   UNL     1       1.521  -7.577   3.389  0.00  0.00    +0.014 C 
ATOM      6  C   UNL     1       1.496  -6.078   3.704  0.00  0.00    +0.080 C 
ATOM      7  C   UNL     1       1.437  -5.308   2.413  0.00  0.00    +0.162 C 
ATOM      8  O   UNL     1       1.913  -4.191   2.362  0.00  0.00    -0.292 OA
ATOM      9  N   UNL     1      -0.271  -7.620   0.157  0.00  0.00    -0.321 N 
ATOM     10  C   UNL     1       0.037  -7.117  -1.078  0.00  0.00    +0.014 C 
ATOM     11  C   UNL     1       0.566  -5.890  -1.199  0.00  0.00    +0.043 C 
ATOM     12  C   UNL     1      -0.219  -7.948  -2.309  0.00  0.00    +0.061 C 
ATOM     13  H   UNL     1      -0.895  -8.359   0.232  0.00  0.00    +0.152 HD
ENDROOT
BRANCH  11  14
ATOM     14  C   UNL     1       0.882  -5.396  -2.489  0.00  0.00    +0.245 C 
ATOM     15  O   UNL     1       2.040  -5.372  -2.865  0.00  0.00    -0.270 OA
ATOM     16  N   UNL     1      -0.099  -4.953  -3.300  0.00  0.00    -0.298 N 
ATOM     17  C   UNL     1      -1.484  -4.859  -2.817  0.00  0.00    +0.108 C 
ATOM     18  C   UNL     1      -1.997  -3.437  -3.067  0.00  0.00    +0.019 C 
ATOM     19  C   UNL     1      -1.822  -3.089  -4.547  0.00  0.00    +0.003 C 
ATOM     20  C   UNL     1      -0.337  -3.137  -4.912  0.00  0.00    +0.019 C 
ATOM     21  C   UNL     1       0.197  -4.549  -4.681  0.00  0.00    +0.108 C 
ENDBRANCH  11  14
BRANCH   1  24
ATOM     22  C   UNL     1      -0.914  -1.680   0.064  0.00  0.00    +0.163 A 
ATOM     23  C   UNL     1       0.075  -2.646  -0.031  0.00  0.00    +0.054 A 
ATOM     24  C   UNL     1      -0.248  -3.982   0.107  0.00  0.00    -0.031 A 
ATOM     25  C   UNL     1      -1.558  -4.360   0.340  0.00  0.00    +0.023 A 
ATOM     26  C   UNL     1      -2.550  -3.401   0.436  0.00  0.00    +0.063 A 
ATOM     27  C   UNL     1      -2.231  -2.058   0.304  0.00  0.00    +0.173 A 
ATOM     28 BR   UNL     1      -4.340  -3.921   0.753  0.00  0.00    -0.046 Br
BRANCH  27  29
ATOM     29  O   UNL     1      -3.204  -1.114   0.404  0.00  0.00    -0.503 OA
ATOM     30  H   UNL     1      -3.629  -0.896  -0.437  0.00  0.00    +0.292 HD
ENDBRANCH  27  29
BRANCH  22  31
ATOM     31  O   UNL     1      -0.597  -0.364  -0.072  0.00  0.00    -0.489 OA
BRANCH  31  33
ATOM     32  C   UNL     1       0.936   1.467  -0.440  0.00  0.00    +0.048 C 
ATOM     33  C   UNL     1       0.775  -0.049  -0.317  0.00  0.00    +0.226 C 
ENDBRANCH  31  33
ENDBRANCH  22  31
ENDBRANCH   1  24
TORSDOF 5
