REMARK  Name = ZINC38508738
REMARK  9 active torsions:
REMARK  status: ('A' for Active; 'I' for Inactive)
REMARK    1  A    between atoms: C_1  and  C_2
REMARK    2  A    between atoms: C_2  and  C_3
REMARK    3  A    between atoms: C_2  and  N_4
REMARK    4  A    between atoms: C_7  and  C_9
REMARK    5  A    between atoms: N_11  and  C_12
REMARK    6  A    between atoms: C_13  and  C_24
REMARK    7  A    between atoms: N_18  and  C_21
REMARK    8  A    between atoms: C_21  and  C_22
REMARK    9  A    between atoms: C_21  and  C_23
REMARK                            x       y       z     vdW  Elec       q    Type
REMARK                         _______ _______ _______ _____ _____    ______ ____
ROOT
ATOM      1  C   UNL     1      -5.136  -2.131  -3.752  0.00  0.00    +0.085 A 
ATOM      2  C   UNL     1      -5.074  -2.248  -5.133  0.00  0.00    +0.068 A 
ATOM      3  C   UNL     1      -6.248  -2.765  -5.806  0.00  0.00    -0.027 A 
ATOM      4  C   UNL     1      -7.274  -3.070  -4.979  0.00  0.00    -0.021 A 
ATOM      5  S   UNL     1      -6.673  -2.686  -3.362  0.00  0.00    -0.079 S 
ATOM      6  C   UNL     1      -8.606  -3.614  -5.388  0.00  0.00    -0.035 C 
ATOM      7  N   UNL     1      -8.765  -3.408  -6.839  0.00  0.00    +0.384 N 
ATOM      8  C   UNL     1      -7.578  -3.912  -7.542  0.00  0.00    -0.073 C 
ATOM      9  C   UNL     1      -6.387  -2.976  -7.307  0.00  0.00    +0.018 C 
ATOM     10  H   UNL     1      -8.874  -2.423  -7.029  0.00  0.00    -0.081 HD
ENDROOT
BRANCH   2  11
ATOM     11  C   UNL     1      -3.871  -1.865  -5.879  0.00  0.00    +0.244 C 
ATOM     12  O   UNL     1      -2.998  -2.686  -6.089  0.00  0.00    -0.270 OA
ATOM     13  N   UNL     1      -3.733  -0.603  -6.332  0.00  0.00    -0.325 N 
ATOM     14  H   UNL     1      -4.428   0.051  -6.164  0.00  0.00    +0.145 HD
ATOM     15  H   UNL     1      -2.937  -0.350  -6.825  0.00  0.00    +0.145 HD
ENDBRANCH   2  11
BRANCH   1  18
ATOM     16  C   UNL     1      -4.386  -1.629  -1.563  0.00  0.00    +0.269 C 
ATOM     17  O   UNL     1      -5.457  -1.998  -1.122  0.00  0.00    -0.268 OA
ATOM     18  N   UNL     1      -4.154  -1.669  -2.890  0.00  0.00    -0.274 N 
ATOM     19  H   UNL     1      -3.300  -1.374  -3.243  0.00  0.00    +0.156 HD
BRANCH  16  23
ATOM     20  N   UNL     1      -1.488  -0.352   0.067  0.00  0.00    -0.268 N 
ATOM     21  C   UNL     1      -2.244  -0.536   1.170  0.00  0.00    +0.109 A 
ATOM     22  C   UNL     1      -3.434  -1.034   0.763  0.00  0.00    +0.054 A 
ATOM     23  C   UNL     1      -3.340  -1.136  -0.646  0.00  0.00    +0.147 A 
ATOM     24  N   UNL     1      -2.142  -0.701  -0.983  0.00  0.00    -0.166 NA
BRANCH  20  26
ATOM     25  C   UNL     1      -0.164   1.704   0.066  0.00  0.00    +0.032 C 
ATOM     26  C   UNL     1      -0.121   0.175   0.065  0.00  0.00    +0.101 C 
ATOM     27  C   UNL     1       0.616  -0.316   1.313  0.00  0.00    +0.032 C 
ENDBRANCH  20  26
ENDBRANCH  16  23
ENDBRANCH   1  18
BRANCH   7  28
ATOM     28  C   UNL     1      -9.955  -4.131  -7.309  0.00  0.00    -0.074 C 
ATOM     29  C   UNL     1     -11.170  -3.702  -6.485  0.00  0.00    -0.014 C 
ATOM     30  C   UNL     1     -10.199  -3.807  -8.784  0.00  0.00    -0.014 C 
ENDBRANCH   7  28
TORSDOF 5
