REMARK  Name = ZINC63385431
REMARK  10 active torsions:
REMARK  status: ('A' for Active; 'I' for Inactive)
REMARK    1  A    between atoms: C_1  and  C_2
REMARK    2  A    between atoms: C_7  and  O_33
REMARK    3  A    between atoms: C_8  and  O_32
REMARK    4  A    between atoms: C_13  and  C_15
REMARK    5  A    between atoms: C_15  and  C_16
REMARK    6  A    between atoms: N_18  and  C_19
REMARK    7  A    between atoms: C_19  and  C_20
REMARK    8  A    between atoms: C_20  and  C_21
REMARK    9  A    between atoms: C_24  and  O_30
REMARK   10  A    between atoms: O_30  and  C_31
REMARK                            x       y       z     vdW  Elec       q    Type
REMARK                         _______ _______ _______ _____ _____    ______ ____
ROOT
ATOM      1  C   UNL     1       2.677  -0.121   2.744  0.00  0.00    +0.214 C 
ATOM      2  O   UNL     1       2.169  -0.983   3.430  0.00  0.00    -0.276 OA
ATOM      3  N   UNL     1       3.827   0.461   3.137  0.00  0.00    -0.315 N 
ATOM      4  H   UNL     1       4.233   1.151   2.588  0.00  0.00    +0.149 HD
ENDROOT
BRANCH   1   5
ATOM      5  C   UNL     1       2.021   0.299   1.454  0.00  0.00    +0.111 C 
BRANCH   5  17
ATOM      6  C   UNL     1      -0.019   1.526   0.010  0.00  0.00    +0.013 C 
ATOM      7  C   UNL     1       0.002  -0.004   0.002  0.00  0.00    +0.034 C 
ATOM      8  C   UNL     1       0.705  -0.489  -1.241  0.00  0.00    +0.003 A 
ATOM      9  C   UNL     1       0.474   0.181  -2.433  0.00  0.00    +0.011 A 
ATOM     10  C   UNL     1       1.088  -0.229  -3.599  0.00  0.00    +0.050 A 
ATOM     11  C   UNL     1       1.944  -1.320  -3.585  0.00  0.00    +0.162 A 
ATOM     12  C   UNL     1       2.182  -1.994  -2.394  0.00  0.00    +0.202 A 
ATOM     13  C   UNL     1       1.562  -1.574  -1.218  0.00  0.00    +0.180 A 
ATOM     14  O   UNL     1       1.835  -2.249  -0.068  0.00  0.00    -0.421 OA
ATOM     15  C   UNL     1       1.083  -1.968   1.014  0.00  0.00    +0.317 C 
ATOM     16  O   UNL     1       0.701  -2.836   1.763  0.00  0.00    -0.250 OA
ATOM     17  C   UNL     1       0.740  -0.510   1.245  0.00  0.00    +0.114 C 
BRANCH  12  18
ATOM     18  O   UNL     1       3.020  -3.065  -2.375  0.00  0.00    -0.501 OA
ATOM     19  H   UNL     1       3.944  -2.838  -2.203  0.00  0.00    +0.292 HD
ENDBRANCH  12  18
BRANCH  11  20
ATOM     20  O   UNL     1       2.548  -1.729  -4.733  0.00  0.00    -0.503 OA
ATOM     21  H   UNL     1       3.404  -1.311  -4.897  0.00  0.00    +0.292 HD
ENDBRANCH  11  20
ENDBRANCH   5  17
ENDBRANCH   1   5
BRANCH   3  22
ATOM     22  C   UNL     1       4.464   0.052   4.391  0.00  0.00    +0.108 C 
BRANCH  22  23
ATOM     23  C   UNL     1       5.746   0.862   4.599  0.00  0.00    +0.052 C 
BRANCH  23  24
ATOM     24  C   UNL     1       6.401   0.441   5.890  0.00  0.00    -0.040 C 
ATOM     25  C   UNL     1       7.388  -0.471   6.041  0.00  0.00    +0.002 A 
ATOM     26  C   UNL     1       8.119  -1.313   5.088  0.00  0.00    +0.055 A 
ATOM     27  C   UNL     1       9.080  -2.154   5.542  0.00  0.00    +0.121 A 
ATOM     28  C   UNL     1       9.408  -2.253   6.905  0.00  0.00    +0.047 A 
ATOM     29  C   UNL     1       8.791  -1.520   7.856  0.00  0.00    +0.029 A 
ATOM     30  C   UNL     1       7.735  -0.576   7.477  0.00  0.00    +0.043 A 
ATOM     31  N   UNL     1       6.992   0.238   8.185  0.00  0.00    -0.380 N 
ATOM     32  C   UNL     1       6.092   0.959   7.277  0.00  0.00    +0.144 C 
ATOM     33  H   UNL     1       7.033   0.349   9.148  0.00  0.00    +0.160 HD
BRANCH  27  34
ATOM     34  O   UNL     1       9.749  -2.929   4.647  0.00  0.00    -0.495 OA
ATOM     35  C   UNL     1      10.754  -3.801   5.169  0.00  0.00    +0.277 C 
ENDBRANCH  27  34
ENDBRANCH  23  24
ENDBRANCH  22  23
ENDBRANCH   3  22
TORSDOF 8
