REMARK  Name = ZINC16589802
REMARK  8 active torsions:
REMARK  status: ('A' for Active; 'I' for Inactive)
REMARK    1  A    between atoms: C_1  and  N_42
REMARK    2  A    between atoms: C_2  and  C_3
REMARK    3  A    between atoms: C_2  and  N_42
REMARK    4  A    between atoms: N_5  and  C_6
REMARK    5  A    between atoms: C_13  and  C_14
REMARK    6  A    between atoms: C_13  and  N_42
REMARK    7  A    between atoms: N_16  and  C_17
REMARK    8  A    between atoms: C_18  and  C_22
REMARK                            x       y       z     vdW  Elec       q    Type
REMARK                         _______ _______ _______ _____ _____    ______ ____
ROOT
ATOM      1  C   UNL     1       1.120   3.573  -0.024  0.00  0.00    +0.019 C 
ENDROOT
BRANCH   1   2
ATOM      2  C   UNL     1       1.142   2.066  -0.037  0.00  0.00    +0.201 C 
ATOM      3  O   UNL     1       2.201   1.476  -0.045  0.00  0.00    -0.278 OA
ATOM      4  N   UNL     1      -0.015   1.375  -0.041  0.00  0.00    -0.281 N 
ATOM      5  H   UNL     1      -0.862   1.848  -0.038  0.00  0.00    +0.155 HD
BRANCH   4   6
ATOM      6  C   UNL     1       0.005  -0.011  -0.053  0.00  0.00    +0.084 A 
ATOM      7  C   UNL     1      -1.071  -0.890  -0.052  0.00  0.00    +0.065 A 
ATOM      8  C   UNL     1      -0.758  -2.299  -0.071  0.00  0.00    +0.022 A 
ATOM      9  C   UNL     1       0.543  -2.639  -0.077  0.00  0.00    +0.048 A 
ATOM     10  S   UNL     1       1.378  -1.067  -0.065  0.00  0.00    -0.081 S 
BRANCH   7  11
ATOM     11  C   UNL     1      -2.457  -0.410  -0.037  0.00  0.00    +0.244 C 
ATOM     12  O   UNL     1      -2.686   0.785  -0.024  0.00  0.00    -0.270 OA
ATOM     13  N   UNL     1      -3.476  -1.292  -0.037  0.00  0.00    -0.325 N 
ATOM     14  H   UNL     1      -3.292  -2.245  -0.047  0.00  0.00    +0.145 HD
ATOM     15  H   UNL     1      -4.392  -0.975  -0.027  0.00  0.00    +0.145 HD
ENDBRANCH   7  11
ENDBRANCH   4   6
ENDBRANCH   1   2
BRANCH   1  17
ATOM     16  C   UNL     1       3.188   3.733   1.226  0.00  0.00    -0.095 C 
ATOM     17  N   UNL     1       2.511   4.071  -0.045  0.00  0.00    +0.389 N 
ATOM     18  H   UNL     1       3.014   3.623  -0.820  0.00  0.00    -0.081 HD
BRANCH  17  19
ATOM     19  C   UNL     1       2.522   5.535  -0.248  0.00  0.00    +0.019 C 
BRANCH  19  20
ATOM     20  C   UNL     1       3.941   5.982  -0.485  0.00  0.00    +0.201 C 
ATOM     21  O   UNL     1       4.843   5.172  -0.468  0.00  0.00    -0.278 OA
ATOM     22  N   UNL     1       4.207   7.283  -0.716  0.00  0.00    -0.286 N 
ATOM     23  H   UNL     1       3.480   7.921  -0.795  0.00  0.00    +0.155 HD
BRANCH  22  24
ATOM     24  C   UNL     1       5.533   7.714  -0.843  0.00  0.00    +0.052 A 
ATOM     25  C   UNL     1       6.479   6.889  -1.436  0.00  0.00    +0.025 A 
ATOM     26  C   UNL     1       7.785   7.319  -1.565  0.00  0.00    +0.002 A 
ATOM     27  C   UNL     1       8.154   8.566  -1.094  0.00  0.00    +0.002 A 
ATOM     28  C   UNL     1       7.216   9.389  -0.498  0.00  0.00    +0.022 A 
ATOM     29  C   UNL     1       5.906   8.967  -0.371  0.00  0.00    +0.062 A 
ATOM     30 CL   UNL     1       4.729  10.000   0.378  0.00  0.00    -0.082 Cl
ENDBRANCH  22  24
ENDBRANCH  19  20
ENDBRANCH  17  19
ENDBRANCH   1  17
TORSDOF 7
