REMARK  Name = ZINC43287438
REMARK  14 active torsions:
REMARK  status: ('A' for Active; 'I' for Inactive)
REMARK    1  A    between atoms: C_1  and  C_2
REMARK    2  A    between atoms: C_2  and  C_3
REMARK    3  A    between atoms: C_3  and  C_5
REMARK    4  A    between atoms: C_3  and  N_22
REMARK    5  A    between atoms: C_5  and  C_7
REMARK    6  A    between atoms: C_5  and  N_13
REMARK    7  A    between atoms: N_13  and  C_14
REMARK    8  A    between atoms: N_13  and  C_17
REMARK    9  A    between atoms: C_14  and  C_15
REMARK   10  A    between atoms: C_15  and  O_16
REMARK   11  A    between atoms: C_17  and  C_18
REMARK   12  A    between atoms: C_17  and  C_20
REMARK   13  A    between atoms: C_18  and  C_19
REMARK   14  A    between atoms: C_20  and  C_21
REMARK                            x       y       z     vdW  Elec       q    Type
REMARK                         _______ _______ _______ _____ _____    ______ ____
ROOT
ATOM      1  C   UNL     1      -1.653  -2.291  -0.254  0.00  0.00    +0.079 C 
ENDROOT
BRANCH   1   2
ATOM      2  C   UNL     1      -2.770  -3.159  -0.774  0.00  0.00    +0.006 A 
ATOM      3  C   UNL     1      -2.900  -3.746  -1.989  0.00  0.00    +0.028 A 
ATOM      4  C   UNL     1      -4.024  -4.508  -2.248  0.00  0.00    +0.025 A 
ATOM      5  C   UNL     1      -4.962  -4.647  -1.278  0.00  0.00    +0.060 A 
ATOM      6  S   UNL     1      -4.260  -3.689   0.054  0.00  0.00    -0.099 S 
ATOM      7 BR   UNL     1      -4.250  -5.345  -3.929  0.00  0.00    -0.050 Br
ENDBRANCH   1   2
BRANCH   1   8
ATOM      8  C   UNL     1      -2.156  -0.855  -0.092  0.00  0.00    -0.053 C 
BRANCH   8   9
ATOM      9  N   UNL     1      -2.735  -0.394  -1.361  0.00  0.00    +0.381 N 
ATOM     10  H   UNL     1      -2.031  -0.424  -2.083  0.00  0.00    -0.090 HD
ATOM     11  H   UNL     1      -3.506  -0.993  -1.617  0.00  0.00    -0.090 HD
ATOM     12  H   UNL     1      -3.067   0.553  -1.254  0.00  0.00    -0.090 HD
ENDBRANCH   8   9
BRANCH   8  14
ATOM     13  C   UNL     1      -1.488   1.493   0.440  0.00  0.00    +0.002 C 
ATOM     14  C   UNL     1      -0.988   0.054   0.296  0.00  0.00    -0.018 C 
ENDBRANCH   8  14
ENDBRANCH   1   8
BRANCH   1  15
ATOM     15  N   UNL     1      -1.201  -2.801   1.047  0.00  0.00    -0.291 NA
BRANCH  15  16
ATOM     16  C   UNL     1      -1.288  -4.267   1.097  0.00  0.00    +0.113 C 
BRANCH  16  17
ATOM     17  C   UNL     1      -1.095  -4.740   2.539  0.00  0.00    +0.171 C 
BRANCH  17  18
ATOM     18  O   UNL     1      -2.066  -4.113   3.380  0.00  0.00    -0.394 OA
ATOM     19  H   UNL     1      -2.002  -4.367   4.311  0.00  0.00    +0.209 HD
ENDBRANCH  17  18
ENDBRANCH  16  17
ENDBRANCH  15  16
BRANCH  15  20
ATOM     20  C   UNL     1       0.163  -2.344   1.347  0.00  0.00    +0.057 C 
BRANCH  20  21
ATOM     21  C   UNL     1       0.307  -2.125   2.854  0.00  0.00    +0.015 C 
ATOM     22  C   UNL     1      -0.657  -1.025   3.304  0.00  0.00    +0.005 C 
ENDBRANCH  20  21
BRANCH  20  23
ATOM     23  C   UNL     1       1.168  -3.402   0.887  0.00  0.00    +0.015 C 
ATOM     24  C   UNL     1       1.122  -3.520  -0.638  0.00  0.00    +0.005 C 
ENDBRANCH  20  23
ENDBRANCH  15  20
ENDBRANCH   1  15
TORSDOF 11
