REMARK  Name = ZINC67138856
REMARK  10 active torsions:
REMARK  status: ('A' for Active; 'I' for Inactive)
REMARK    1  A    between atoms: C_3  and  C_20
REMARK    2  A    between atoms: C_5  and  N_7
REMARK    3  A    between atoms: C_8  and  C_10
REMARK    4  A    between atoms: C_10  and  C_11
REMARK    5  A    between atoms: C_11  and  C_12
REMARK    6  A    between atoms: C_12  and  C_13
REMARK    7  A    between atoms: C_13  and  C_14
REMARK    8  A    between atoms: C_14  and  C_15
REMARK    9  A    between atoms: C_20  and  N_21
REMARK   10  A    between atoms: C_25  and  C_27
REMARK                            x       y       z     vdW  Elec       q    Type
REMARK                         _______ _______ _______ _____ _____    ______ ____
ROOT
ATOM      1  C   UNL     1      -0.028   1.373  -0.012  0.00  0.00    +0.002 A 
ATOM      2  C   UNL     1       1.157   2.086  -0.017  0.00  0.00    +0.002 A 
ATOM      3  C   UNL     1       2.368   1.419  -0.023  0.00  0.00    -0.062 A 
ATOM      4  C   UNL     1       2.398   0.038  -0.025  0.00  0.00    +0.025 A 
ATOM      5  C   UNL     1       1.210  -0.681  -0.020  0.00  0.00    +0.034 A 
ATOM      6  C   UNL     1      -0.005  -0.008  -0.013  0.00  0.00    +0.023 A 
ENDROOT
BRANCH   5   7
ATOM      7  N   UNL     1       1.237  -2.080  -0.021  0.00  0.00    -0.285 N 
ATOM      8  C   UNL     1       0.299  -2.773   0.653  0.00  0.00    +0.217 C 
ATOM      9  O   UNL     1      -0.617  -2.187   1.192  0.00  0.00    -0.275 OA
ATOM     10  H   UNL     1       1.932  -2.551  -0.508  0.00  0.00    +0.155 HD
BRANCH   8  11
ATOM     11  C   UNL     1       0.387  -4.275   0.738  0.00  0.00    +0.096 C 
BRANCH  11  12
ATOM     12  C   UNL     1      -0.792  -4.809   1.554  0.00  0.00    +0.009 C 
BRANCH  12  13
ATOM     13  C   UNL     1      -0.702  -6.334   1.641  0.00  0.00    +0.001 C 
BRANCH  13  14
ATOM     14  C   UNL     1      -1.881  -6.869   2.456  0.00  0.00    +0.005 C 
BRANCH  14  15
ATOM     15  C   UNL     1      -1.792  -8.394   2.543  0.00  0.00    +0.042 C 
BRANCH  15  16
ATOM     16  C   UNL     1      -2.953  -8.921   3.346  0.00  0.00    -0.010 A 
ATOM     17  C   UNL     1      -4.180  -9.307   2.920  0.00  0.00    +0.011 A 
ATOM     18  C   UNL     1      -5.098  -9.764   3.847  0.00  0.00    +0.008 A 
ATOM     19  C   UNL     1      -4.745  -9.810   5.154  0.00  0.00    +0.045 A 
ATOM     20  S   UNL     1      -3.066  -9.204   5.105  0.00  0.00    -0.102 S 
ENDBRANCH  15  16
ENDBRANCH  14  15
ENDBRANCH  13  14
ENDBRANCH  12  13
ENDBRANCH  11  12
ENDBRANCH   8  11
ENDBRANCH   5   7
BRANCH   3  21
ATOM     21  C   UNL     1       3.657   2.200  -0.029  0.00  0.00    -0.042 C 
BRANCH  21  22
ATOM     22  N   UNL     1       4.083   2.453   1.354  0.00  0.00    +0.390 N 
ATOM     23  C   UNL     1       3.110   3.347   2.018  0.00  0.00    -0.077 C 
ATOM     24  C   UNL     1       3.968   4.249   2.941  0.00  0.00    -0.020 C 
ATOM     25  C   UNL     1       5.237   4.466   2.075  0.00  0.00    -0.008 C 
ATOM     26  C   UNL     1       5.402   3.111   1.354  0.00  0.00    +0.019 C 
ATOM     27  H   UNL     1       4.138   1.581   1.858  0.00  0.00    -0.080 HD
BRANCH  26  28
ATOM     28  C   UNL     1       6.401   2.256   2.091  0.00  0.00    +0.197 C 
ATOM     29  O   UNL     1       6.055   1.198   2.573  0.00  0.00    -0.278 OA
ATOM     30  N   UNL     1       7.678   2.668   2.215  0.00  0.00    -0.331 N 
ATOM     31  H   UNL     1       7.955   3.514   1.829  0.00  0.00    +0.145 HD
ATOM     32  H   UNL     1       8.321   2.118   2.689  0.00  0.00    +0.145 HD
ENDBRANCH  26  28
ENDBRANCH  21  22
ENDBRANCH   3  21
TORSDOF 10
