REMARK  Name = ZINC20083881
REMARK  10 active torsions:
REMARK  status: ('A' for Active; 'I' for Inactive)
REMARK    1  A    between atoms: C_1  and  C_2
REMARK    2  A    between atoms: C_2  and  O_3
REMARK    3  A    between atoms: O_3  and  C_4
REMARK    4  A    between atoms: C_4  and  C_5
REMARK    5  A    between atoms: C_5  and  C_6
REMARK    6  A    between atoms: C_6  and  N_7
REMARK    7  A    between atoms: C_17  and  S_18
REMARK    8  A    between atoms: S_18  and  C_19
REMARK    9  A    between atoms: C_19  and  C_20
REMARK   10  A    between atoms: N_26  and  C_27
REMARK                            x       y       z     vdW  Elec       q    Type
REMARK                         _______ _______ _______ _____ _____    ______ ____
ROOT
ATOM      1  S   UNL     1       1.045   3.496   2.156  0.00  0.00    -0.080 S 
ENDROOT
BRANCH   1  12
ATOM      2  N   UNL     1      -0.393   1.233   2.434  0.00  0.00    -0.287 N 
ATOM      3  C   UNL     1      -0.703   0.027   2.964  0.00  0.00    +0.262 A 
ATOM      4  O   UNL     1      -1.673  -0.600   2.580  0.00  0.00    -0.267 OA
ATOM      5  C   UNL     1       0.176  -0.500   4.016  0.00  0.00    +0.065 A 
ATOM      6  C   UNL     1      -0.058  -1.735   4.620  0.00  0.00    +0.017 A 
ATOM      7  C   UNL     1       0.786  -2.180   5.598  0.00  0.00    +0.021 A 
ATOM      8  C   UNL     1       1.877  -1.416   5.999  0.00  0.00    +0.043 A 
ATOM      9  C   UNL     1       2.131  -0.192   5.419  0.00  0.00    +0.048 A 
ATOM     10  C   UNL     1       1.282   0.285   4.417  0.00  0.00    +0.080 A 
ATOM     11  N   UNL     1       1.492   1.481   3.819  0.00  0.00    -0.223 NA
ATOM     12  C   UNL     1       0.696   1.927   2.879  0.00  0.00    +0.173 A 
ATOM     13 CL   UNL     1       2.930  -2.010   7.244  0.00  0.00    -0.083 Cl
BRANCH   2  14
ATOM     14  C   UNL     1      -1.234   1.801   1.378  0.00  0.00    +0.129 C 
BRANCH  14  15
ATOM     15  C   UNL     1      -0.709   1.355   0.012  0.00  0.00    +0.050 C 
BRANCH  15  16
ATOM     16  C   UNL     1      -1.588   1.949  -1.091  0.00  0.00    +0.161 C 
BRANCH  16  17
ATOM     17  O   UNL     1      -1.097   1.533  -2.367  0.00  0.00    -0.380 OA
BRANCH  17  19
ATOM     18  C   UNL     1      -1.240   1.528  -4.779  0.00  0.00    +0.034 C 
ATOM     19  C   UNL     1      -1.852   2.035  -3.471  0.00  0.00    +0.156 C 
ENDBRANCH  17  19
ENDBRANCH  16  17
ENDBRANCH  15  16
ENDBRANCH  14  15
ENDBRANCH   2  14
ENDBRANCH   1  12
BRANCH   1  20
ATOM     20  C   UNL     1       2.532   3.946   3.085  0.00  0.00    +0.153 C 
BRANCH  20  21
ATOM     21  C   UNL     1       3.025   5.293   2.622  0.00  0.00    +0.146 A 
ATOM     22  N   UNL     1       3.894   5.371   1.630  0.00  0.00    -0.199 NA
ATOM     23  C   UNL     1       4.328   6.559   1.215  0.00  0.00    +0.217 A 
ATOM     24  N   UNL     1       3.893   7.667   1.807  0.00  0.00    -0.181 NA
ATOM     25  C   UNL     1       3.023   7.583   2.807  0.00  0.00    +0.224 A 
ATOM     26  N   UNL     1       2.590   6.392   3.213  0.00  0.00    -0.198 NA
ATOM     27  N   UNL     1       2.568   8.732   3.425  0.00  0.00    -0.284 N 
ATOM     28  N   UNL     1       5.232   6.640   0.175  0.00  0.00    -0.327 N 
ATOM     29  H   UNL     1       1.781   8.669   4.191  0.00  0.00    +0.155 HD
ATOM     30  H   UNL     1       5.589   7.622  -0.167  0.00  0.00    +0.145 HD
ATOM     31  H   UNL     1       5.594   5.723  -0.311  0.00  0.00    +0.145 HD
BRANCH  27  32
ATOM     32  C   UNL     1       3.108   9.974   3.077  0.00  0.00    +0.034 A 
ATOM     33  C   UNL     1       4.444  10.074   2.711  0.00  0.00    +0.023 A 
ATOM     34  C   UNL     1       4.973  11.301   2.362  0.00  0.00    +0.002 A 
ATOM     35  C   UNL     1       4.177  12.432   2.389  0.00  0.00    +0.000 A 
ATOM     36  C   UNL     1       2.848  12.337   2.759  0.00  0.00    +0.002 A 
ATOM     37  C   UNL     1       2.312  11.111   3.103  0.00  0.00    +0.023 A 
ENDBRANCH  27  32
ENDBRANCH  20  21
ENDBRANCH   1  20
TORSDOF 9
