REMARK  Name = ZINC25672197
REMARK  9 active torsions:
REMARK  status: ('A' for Active; 'I' for Inactive)
REMARK    1  A    between atoms: C_1  and  C_2
REMARK    2  A    between atoms: C_5  and  N_9
REMARK    3  A    between atoms: C_10  and  C_12
REMARK    4  A    between atoms: C_12  and  C_14
REMARK    5  A    between atoms: C_12  and  N_20
REMARK    6  A    between atoms: N_20  and  C_21
REMARK    7  A    between atoms: C_21  and  C_22
REMARK    8  A    between atoms: C_22  and  C_23
REMARK    9  A    between atoms: C_23  and  N_24
REMARK                            x       y       z     vdW  Elec       q    Type
REMARK                         _______ _______ _______ _____ _____    ______ ____
ROOT
ATOM      1  C   UNL     1      -0.046   0.930   4.891  0.00  0.00    +0.047 C 
ENDROOT
BRANCH   1   2
ATOM      2  C   UNL     1       0.957   2.027   5.140  0.00  0.00    -0.053 A 
ATOM      3  C   UNL     1       0.622   3.342   4.878  0.00  0.00    +0.002 A 
ATOM      4  C   UNL     1       1.540   4.349   5.110  0.00  0.00    +0.000 A 
ATOM      5  C   UNL     1       2.797   4.039   5.595  0.00  0.00    +0.000 A 
ATOM      6  C   UNL     1       3.134   2.724   5.853  0.00  0.00    +0.000 A 
ATOM      7  C   UNL     1       2.214   1.717   5.625  0.00  0.00    +0.002 A 
ENDBRANCH   1   2
BRANCH   1   9
ATOM      8  N   UNL     1      -0.568   0.621   7.290  0.00  0.00    -0.287 N 
ATOM      9  C   UNL     1      -1.016   0.866   6.043  0.00  0.00    +0.207 C 
ATOM     10  O   UNL     1      -2.201   1.036   5.847  0.00  0.00    -0.277 OA
ATOM     11  H   UNL     1       0.493   0.382   7.455  0.00  0.00    +0.155 HD
BRANCH   8  16
ATOM     12  C   UNL     1      -4.152   0.827  11.684  0.00  0.00    +0.045 C 
ATOM     13  C   UNL     1      -3.200   0.772  10.517  0.00  0.00    -0.032 A 
ATOM     14  C   UNL     1      -3.382   1.617   9.437  0.00  0.00    +0.006 A 
ATOM     15  C   UNL     1      -2.509   1.572   8.368  0.00  0.00    +0.023 A 
ATOM     16  C   UNL     1      -1.451   0.671   8.373  0.00  0.00    +0.035 A 
ATOM     17  C   UNL     1      -1.270  -0.175   9.459  0.00  0.00    +0.043 A 
ATOM     18  C   UNL     1      -2.144  -0.123  10.528  0.00  0.00    +0.046 A 
ATOM     19 CL   UNL     1      -1.918  -1.180  11.886  0.00  0.00    -0.083 Cl
ENDBRANCH   8  16
ENDBRANCH   1   9
BRANCH   1  20
ATOM     20  N   UNL     1      -0.778   1.208   3.648  0.00  0.00    +0.389 N 
ATOM     21  H   UNL     1      -1.759   0.712   3.682  0.00  0.00    -0.084 HD
ATOM     22  H   UNL     1      -0.919   2.293   3.541  0.00  0.00    -0.084 HD
BRANCH  20  23
ATOM     23  C   UNL     1      -0.039   0.711   2.480  0.00  0.00    -0.080 C 
BRANCH  23  24
ATOM     24  C   UNL     1      -0.831   1.018   1.208  0.00  0.00    +0.000 C 
BRANCH  24  25
ATOM     25  C   UNL     1      -0.061   0.500  -0.009  0.00  0.00    +0.116 C 
BRANCH  25  26
ATOM     26  N   UNL     1      -0.820   0.794  -1.228  0.00  0.00    -0.224 N 
ATOM     27  C   UNL     1      -0.690   1.929  -1.947  0.00  0.00    +0.246 C 
ATOM     28  O   UNL     1       0.046   2.865  -1.719  0.00  0.00    -0.273 OA
ATOM     29  C   UNL     1      -1.657   1.786  -3.095  0.00  0.00    +0.113 C 
ATOM     30  C   UNL     1      -0.925   1.841  -4.443  0.00  0.00    +0.035 C 
ATOM     31  C   UNL     1      -1.923   2.567  -5.382  0.00  0.00    +0.003 C 
ATOM     32  C   UNL     1      -2.562   3.628  -4.451  0.00  0.00    +0.003 C 
ATOM     33  C   UNL     1      -2.696   2.909  -3.090  0.00  0.00    +0.035 C 
ATOM     34  N   UNL     1      -2.281   0.478  -2.886  0.00  0.00    -0.285 N 
ATOM     35  C   UNL     1      -1.723  -0.033  -1.770  0.00  0.00    +0.309 C 
ATOM     36  O   UNL     1      -2.011  -1.119  -1.306  0.00  0.00    -0.252 OA
ATOM     37  H   UNL     1      -3.045   0.115  -3.590  0.00  0.00    +0.151 HD
ENDBRANCH  25  26
ENDBRANCH  24  25
ENDBRANCH  23  24
ENDBRANCH  20  23
ENDBRANCH   1  20
TORSDOF 8
