REMARK  Name = ZINC40376969
REMARK  9 active torsions:
REMARK  status: ('A' for Active; 'I' for Inactive)
REMARK    1  A    between atoms: C_1  and  C_2
REMARK    2  A    between atoms: C_2  and  C_3
REMARK    3  A    between atoms: C_3  and  C_4
REMARK    4  A    between atoms: C_3  and  C_6
REMARK    5  A    between atoms: C_3  and  N_10
REMARK    6  A    between atoms: C_4  and  C_5
REMARK    7  A    between atoms: N_7  and  O_8
REMARK    8  A    between atoms: N_10  and  S_11
REMARK    9  A    between atoms: S_11  and  C_14
REMARK                            x       y       z     vdW  Elec       q    Type
REMARK                         _______ _______ _______ _____ _____    ______ ____
ROOT
ATOM      1  N   UNL     1       2.220  -0.184  -1.028  0.00  0.00    -0.177 NA
ATOM      2  H   UNL     1       2.844   0.137  -1.698  0.00  0.00    +0.149 HD
ENDROOT
BRANCH   1   3
ATOM      3  S   UNL     1       2.772  -0.647   0.463  0.00  0.00    +0.059 S 
ATOM      4  O   UNL     1       2.139  -1.884   0.764  0.00  0.00    -0.153 OA
ATOM      5  O   UNL     1       4.185  -0.501   0.437  0.00  0.00    -0.153 OA
BRANCH   3   6
ATOM      6  C   UNL     1       2.165   0.526   1.630  0.00  0.00    +0.108 A 
ATOM      7  C   UNL     1       2.767   1.765   1.739  0.00  0.00    +0.048 A 
ATOM      8  C   UNL     1       2.291   2.687   2.655  0.00  0.00    +0.044 A 
ATOM      9  C   UNL     1       1.214   2.367   3.462  0.00  0.00    +0.040 A 
ATOM     10  C   UNL     1       0.612   1.126   3.352  0.00  0.00    +0.044 A 
ATOM     11  C   UNL     1       1.085   0.208   2.431  0.00  0.00    +0.048 A 
ATOM     12 CL   UNL     1      -0.740   0.724   4.364  0.00  0.00    -0.083 Cl
ATOM     13 CL   UNL     1       3.047   4.243   2.794  0.00  0.00    -0.083 Cl
ENDBRANCH   3   6
ENDBRANCH   1   3
BRANCH   1  14
ATOM     14  C   UNL     1       0.790  -0.260  -1.336  0.00  0.00    +0.097 C 
BRANCH  14  15
ATOM     15  C   UNL     1       0.533   0.361  -2.685  0.00  0.00    +0.153 C 
ATOM     16  N   UNL     1      -0.084  -0.312  -3.599  0.00  0.00    -0.075 NA
ATOM     17  N   UNL     1       0.957   1.646  -2.944  0.00  0.00    -0.342 N 
ATOM     18  H   UNL     1       1.485   2.124  -2.286  0.00  0.00    +0.144 HD
ATOM     19  H   UNL     1       0.726   2.073  -3.784  0.00  0.00    +0.144 HD
BRANCH  16  20
ATOM     20  O   UNL     1      -0.325   0.271  -4.867  0.00  0.00    -0.408 OA
ATOM     21  H   UNL     1      -0.793  -0.308  -5.484  0.00  0.00    +0.328 HD
ENDBRANCH  16  20
ENDBRANCH  14  15
BRANCH  14  23
ATOM     22  C   UNL     1      -1.477   0.553  -0.671  0.00  0.00    +0.006 C 
ATOM     23  C   UNL     1      -0.002   0.496  -0.268  0.00  0.00    +0.028 C 
ENDBRANCH  14  23
BRANCH  14  24
ATOM     24  C   UNL     1       0.349  -1.725  -1.357  0.00  0.00    +0.028 C 
ATOM     25  C   UNL     1       1.232  -2.510  -2.329  0.00  0.00    +0.006 C 
ENDBRANCH  14  24
ENDBRANCH   1  14
TORSDOF 7
