REMARK  Name = ZINC12507759
REMARK  5 active torsions:
REMARK  status: ('A' for Active; 'I' for Inactive)
REMARK    1  A    between atoms: C_1  and  C_2
REMARK    2  A    between atoms: C_2  and  C_3
REMARK    3  A    between atoms: C_3  and  O_4
REMARK    4  A    between atoms: O_4  and  C_5
REMARK    5  A    between atoms: C_10  and  C_11
REMARK                            x       y       z     vdW  Elec       q    Type
REMARK                         _______ _______ _______ _____ _____    ______ ____
ROOT
ATOM      1  C   UNL     1       0.787  -4.750  -1.299  0.00  0.00    +0.212 C 
ATOM      2  N   UNL     1       0.565  -6.126  -1.779  0.00  0.00    -0.294 N 
ATOM      3  C   UNL     1       1.599  -7.024  -1.779  0.00  0.00    +0.160 C 
ATOM      4  N   UNL     1       2.576  -6.950  -0.892  0.00  0.00    -0.302 N 
ATOM      5  C   UNL     1       2.568  -5.923  -0.009  0.00  0.00    +0.213 A 
ATOM      6  N   UNL     1       1.713  -4.845  -0.165  0.00  0.00    -0.286 N 
ATOM      7  C   UNL     1       1.925  -3.983   0.885  0.00  0.00    +0.076 A 
ATOM      8  C   UNL     1       1.369  -2.770   1.271  0.00  0.00    +0.077 A 
ATOM      9  C   UNL     1       1.818  -2.141   2.416  0.00  0.00    +0.164 A 
ATOM     10  C   UNL     1       2.824  -2.714   3.189  0.00  0.00    +0.164 A 
ATOM     11  C   UNL     1       3.388  -3.917   2.819  0.00  0.00    +0.079 A 
ATOM     12  C   UNL     1       2.945  -4.565   1.662  0.00  0.00    +0.095 A 
ATOM     13  N   UNL     1       3.301  -5.738   1.057  0.00  0.00    -0.212 NA
ATOM     14  O   UNL     1       3.251  -2.077   4.319  0.00  0.00    -0.488 OA
ATOM     15  C   UNL     1       3.960  -0.853   4.118  0.00  0.00    +0.232 C 
ATOM     16  C   UNL     1       2.993   0.310   3.964  0.00  0.00    +0.082 C 
ATOM     17  C   UNL     1       2.135   0.188   2.714  0.00  0.00    +0.232 C 
ATOM     18  O   UNL     1       1.273  -0.948   2.799  0.00  0.00    -0.488 OA
ATOM     19  N   UNL     1       1.622  -8.019  -2.719  0.00  0.00    -0.332 N 
ATOM     20  H   UNL     1       0.911  -8.083  -3.375  0.00  0.00    +0.145 HD
ATOM     21  H   UNL     1       2.350  -8.660  -2.729  0.00  0.00    +0.145 HD
ATOM     22  H   UNL     1      -0.312  -6.396  -2.094  0.00  0.00    +0.151 HD
ATOM     23  H   UNL     1       3.282  -7.616  -0.873  0.00  0.00    +0.171 HD
ENDROOT
BRANCH   1  29
ATOM     24  C   UNL     1       1.341  -2.529  -2.322  0.00  0.00    +0.127 A 
ATOM     25  C   UNL     1       1.909  -1.761  -3.329  0.00  0.00    +0.047 A 
ATOM     26  C   UNL     1       2.522  -2.376  -4.403  0.00  0.00    +0.019 A 
ATOM     27  C   UNL     1       2.570  -3.757  -4.476  0.00  0.00    +0.018 A 
ATOM     28  C   UNL     1       2.005  -4.525  -3.474  0.00  0.00    +0.026 A 
ATOM     29  C   UNL     1       1.396  -3.913  -2.394  0.00  0.00    +0.036 A 
ATOM     30 BR   UNL     1       3.410  -4.596  -5.948  0.00  0.00    -0.050 Br
BRANCH  24  31
ATOM     31  O   UNL     1       0.738  -1.926  -1.265  0.00  0.00    -0.492 OA
BRANCH  31  32
ATOM     32  C   UNL     1       0.718  -0.497  -1.257  0.00  0.00    +0.229 C 
BRANCH  32  34
ATOM     33  C   UNL     1      -0.019   1.526   0.010  0.00  0.00    +0.007 C 
ATOM     34  C   UNL     1       0.002  -0.004   0.002  0.00  0.00    +0.038 C 
ENDBRANCH  32  34
ENDBRANCH  31  32
ENDBRANCH  24  31
ENDBRANCH   1  29
TORSDOF 4
