REMARK  Name = ZINC38511350
REMARK  7 active torsions:
REMARK  status: ('A' for Active; 'I' for Inactive)
REMARK    1  A    between atoms: C_1  and  C_2
REMARK    2  A    between atoms: C_5  and  C_38
REMARK    3  A    between atoms: N_8  and  S_10
REMARK    4  A    between atoms: S_10  and  C_13
REMARK    5  A    between atoms: C_16  and  C_19
REMARK    6  A    between atoms: N_21  and  C_22
REMARK    7  A    between atoms: N_34  and  C_37
REMARK                            x       y       z     vdW  Elec       q    Type
REMARK                         _______ _______ _______ _____ _____    ______ ____
ROOT
ATOM      1  C   UNL     1       3.752  -4.035  -4.233  0.00  0.00    +0.248 C 
ATOM      2  O   UNL     1       3.241  -4.931  -4.877  0.00  0.00    -0.270 OA
ATOM      3  N   UNL     1       4.743  -3.298  -4.774  0.00  0.00    -0.281 N 
ATOM      4  H   UNL     1       5.098  -2.535  -4.291  0.00  0.00    +0.155 HD
ENDROOT
BRANCH   3   5
ATOM      5  C   UNL     1       5.259  -3.633  -6.031  0.00  0.00    +0.035 A 
ATOM      6  C   UNL     1       5.723  -2.640  -6.891  0.00  0.00    +0.025 A 
ATOM      7  C   UNL     1       6.229  -2.939  -8.117  0.00  0.00    +0.031 A 
ATOM      8  C   UNL     1       6.301  -4.278  -8.567  0.00  0.00    +0.080 A 
ATOM      9  C   UNL     1       5.824  -5.265  -7.675  0.00  0.00    +0.043 A 
ATOM     10  C   UNL     1       5.320  -4.961  -6.436  0.00  0.00    +0.040 A 
ATOM     11  S   UNL     1       6.085  -6.763  -8.592  0.00  0.00    -0.052 S 
ATOM     12  C   UNL     1       6.789  -6.013 -10.054  0.00  0.00    +0.162 A 
ATOM     13  N   UNL     1       6.773  -4.736  -9.749  0.00  0.00    -0.225 NA
ATOM     14  N   UNL     1       7.236  -6.621 -11.210  0.00  0.00    -0.313 N 
ATOM     15  C   UNL     1       7.166  -8.082 -11.372  0.00  0.00    +0.088 C 
ATOM     16  C   UNL     1       6.496  -8.390 -12.715  0.00  0.00    -0.060 C 
ATOM     17  N   UNL     1       7.215  -7.695 -13.790  0.00  0.00    +0.380 N 
ATOM     18  C   UNL     1       7.096  -6.242 -13.614  0.00  0.00    -0.060 C 
ATOM     19  C   UNL     1       7.790  -5.827 -12.317  0.00  0.00    +0.088 C 
ATOM     20  C   UNL     1       6.641  -8.077 -15.087  0.00  0.00    -0.096 C 
ATOM     21  H   UNL     1       8.189  -7.956 -13.766  0.00  0.00    -0.082 HD
ENDBRANCH   3   5
BRANCH   1  25
ATOM     22  C   UNL     1       2.417  -3.229  -0.283  0.00  0.00    +0.106 A 
ATOM     23  C   UNL     1       1.833  -4.249  -1.012  0.00  0.00    +0.029 A 
ATOM     24  C   UNL     1       2.262  -4.516  -2.296  0.00  0.00    +0.015 A 
ATOM     25  C   UNL     1       3.287  -3.754  -2.858  0.00  0.00    +0.037 A 
ATOM     26  C   UNL     1       3.872  -2.726  -2.117  0.00  0.00    +0.015 A 
ATOM     27  C   UNL     1       3.430  -2.466  -0.836  0.00  0.00    +0.029 A 
BRANCH  22  28
ATOM     28  S   UNL     1       1.863  -2.894   1.356  0.00  0.00    +0.061 S 
ATOM     29  O   UNL     1       2.935  -2.242   2.022  0.00  0.00    -0.153 OA
ATOM     30  O   UNL     1       1.282  -4.096   1.842  0.00  0.00    -0.153 OA
BRANCH  28  36
ATOM     31  C   UNL     1       0.462   1.832   0.144  0.00  0.00    +0.009 C 
ATOM     32  C   UNL     1       0.292   0.314   0.051  0.00  0.00    +0.002 C 
ATOM     33  C   UNL     1      -1.198  -0.031  -0.005  0.00  0.00    +0.009 C 
ATOM     34  C   UNL     1      -1.368  -1.546  -0.131  0.00  0.00    +0.002 C 
ATOM     35  C   UNL     1      -0.759  -2.229   1.098  0.00  0.00    +0.112 C 
ATOM     36  N   UNL     1       0.635  -1.788   1.241  0.00  0.00    -0.176 NA
ATOM     37  C   UNL     1       0.921  -0.347   1.281  0.00  0.00    +0.112 C 
ATOM     38  C   UNL     1      -2.857  -1.888  -0.220  0.00  0.00    +0.009 C 
ENDBRANCH  28  36
ENDBRANCH  22  28
ENDBRANCH   1  25
TORSDOF 4
