REMARK  Name = ZINC59403341
REMARK  8 active torsions:
REMARK  status: ('A' for Active; 'I' for Inactive)
REMARK    1  A    between atoms: C_1  and  C_2
REMARK    2  A    between atoms: C_2  and  N_3
REMARK    3  A    between atoms: N_3  and  C_4
REMARK    4  A    between atoms: N_3  and  C_12
REMARK    5  A    between atoms: C_4  and  C_5
REMARK    6  A    between atoms: C_12  and  C_13
REMARK    7  A    between atoms: N_15  and  C_16
REMARK    8  A    between atoms: C_17  and  C_25
REMARK                            x       y       z     vdW  Elec       q    Type
REMARK                         _______ _______ _______ _____ _____    ______ ____
ROOT
ATOM      1  C   UNL     1       1.923  -2.225  -0.185  0.00  0.00    +0.201 C 
ATOM      2  O   UNL     1       2.230  -1.315  -0.926  0.00  0.00    -0.278 OA
ATOM      3  N   UNL     1       2.315  -3.484  -0.464  0.00  0.00    -0.281 N 
ATOM      4  H   UNL     1       2.069  -4.211   0.128  0.00  0.00    +0.155 HD
ENDROOT
BRANCH   3   5
ATOM      5  C   UNL     1       3.069  -3.739  -1.599  0.00  0.00    +0.084 A 
ATOM      6  C   UNL     1       3.551  -4.959  -2.045  0.00  0.00    +0.068 A 
ATOM      7  C   UNL     1       4.323  -4.959  -3.276  0.00  0.00    -0.023 A 
ATOM      8  C   UNL     1       4.471  -3.739  -3.835  0.00  0.00    -0.004 A 
ATOM      9  S   UNL     1       3.602  -2.642  -2.754  0.00  0.00    -0.077 S 
ATOM     10  C   UNL     1       5.210  -3.410  -5.095  0.00  0.00    +0.043 C 
ATOM     11  C   UNL     1       6.095  -4.610  -5.462  0.00  0.00    +0.005 C 
ATOM     12  C   UNL     1       5.256  -5.889  -5.377  0.00  0.00    +0.005 C 
ATOM     13  C   UNL     1       4.929  -6.200  -3.915  0.00  0.00    +0.037 C 
BRANCH   6  14
ATOM     14  C   UNL     1       3.294  -6.199  -1.306  0.00  0.00    +0.244 C 
ATOM     15  O   UNL     1       2.303  -6.861  -1.553  0.00  0.00    -0.270 OA
ATOM     16  N   UNL     1       4.155  -6.605  -0.351  0.00  0.00    -0.325 N 
ATOM     17  H   UNL     1       4.944  -6.078  -0.154  0.00  0.00    +0.145 HD
ATOM     18  H   UNL     1       3.984  -7.425   0.138  0.00  0.00    +0.145 HD
ENDBRANCH   6  14
ENDBRANCH   3   5
BRANCH   1  19
ATOM     19  C   UNL     1       1.103  -1.947   1.049  0.00  0.00    +0.019 C 
BRANCH  19  20
ATOM     20  N   UNL     1       0.807  -0.511   1.127  0.00  0.00    +0.388 N 
ATOM     21  H   UNL     1       1.668   0.013   1.090  0.00  0.00    -0.081 HD
BRANCH  20  23
ATOM     22  C   UNL     1      -0.233   1.394  -0.008  0.00  0.00    -0.017 C 
ATOM     23  C   UNL     1      -0.049  -0.125  -0.003  0.00  0.00    -0.081 C 
ENDBRANCH  20  23
BRANCH  20  24
ATOM     24  C   UNL     1       0.111  -0.222   2.389  0.00  0.00    -0.041 C 
BRANCH  24  25
ATOM     25  C   UNL     1       1.038  -0.490   3.546  0.00  0.00    -0.046 A 
ATOM     26  C   UNL     1       0.884  -1.636   4.304  0.00  0.00    +0.003 A 
ATOM     27  C   UNL     1       1.734  -1.882   5.366  0.00  0.00    +0.000 A 
ATOM     28  C   UNL     1       2.740  -0.983   5.670  0.00  0.00    +0.001 A 
ATOM     29  C   UNL     1       2.895   0.162   4.912  0.00  0.00    +0.020 A 
ATOM     30  C   UNL     1       2.048   0.406   3.846  0.00  0.00    +0.042 A 
ATOM     31 CL   UNL     1       2.247   1.842   2.890  0.00  0.00    -0.083 Cl
ENDBRANCH  24  25
ENDBRANCH  20  24
ENDBRANCH  19  20
ENDBRANCH   1  19
TORSDOF 7
