REMARK  Name = ZINC66906350
REMARK  8 active torsions:
REMARK  status: ('A' for Active; 'I' for Inactive)
REMARK    1  A    between atoms: C_1  and  O_2
REMARK    2  A    between atoms: O_2  and  C_3
REMARK    3  A    between atoms: C_6  and  C_10
REMARK    4  A    between atoms: C_7  and  O_9
REMARK    5  A    between atoms: C_10  and  N_11
REMARK    6  A    between atoms: N_11  and  C_12
REMARK    7  A    between atoms: C_12  and  C_13
REMARK    8  A    between atoms: C_13  and  O_23
REMARK                            x       y       z     vdW  Elec       q    Type
REMARK                         _______ _______ _______ _____ _____    ______ ____
ROOT
ATOM      1  N   UNL     1       1.493  -2.765  -5.460  0.00  0.00    +0.384 N 
ATOM      2  H   UNL     1       0.789  -3.314  -4.990  0.00  0.00    -0.085 HD
ATOM      3  H   UNL     1       1.062  -1.959  -5.887  0.00  0.00    -0.085 HD
ENDROOT
BRANCH   1   4
ATOM      4  C   UNL     1       2.500  -2.323  -4.486  0.00  0.00    -0.043 C 
BRANCH   4   8
ATOM      5  C   UNL     1       0.619   0.053  -1.469  0.00  0.00    +0.124 A 
ATOM      6  C   UNL     1       1.306   0.663  -2.510  0.00  0.00    +0.046 A 
ATOM      7  C   UNL     1       1.913  -0.107  -3.483  0.00  0.00    +0.009 A 
ATOM      8  C   UNL     1       1.838  -1.486  -3.423  0.00  0.00    -0.023 A 
ATOM      9  C   UNL     1       1.153  -2.100  -2.384  0.00  0.00    +0.122 A 
ATOM     10  C   UNL     1       0.547  -1.329  -1.403  0.00  0.00    +0.091 A 
BRANCH   5  12
ATOM     11  C   UNL     1       0.136   2.230  -0.643  0.00  0.00    +0.277 C 
ATOM     12  O   UNL     1       0.022   0.812  -0.512  0.00  0.00    -0.495 OA
ENDBRANCH   5  12
BRANCH   9  13
ATOM     13  O   UNL     1       1.079  -3.456  -2.325  0.00  0.00    -0.506 OA
ATOM     14  H   UNL     1       1.800  -3.868  -1.830  0.00  0.00    +0.292 HD
ENDBRANCH   9  13
ENDBRANCH   4   8
ENDBRANCH   1   4
BRANCH   1  15
ATOM     15  C   UNL     1       2.139  -3.581  -6.497  0.00  0.00    -0.042 C 
BRANCH  15  16
ATOM     16  C   UNL     1       1.073  -4.147  -7.437  0.00  0.00    +0.076 C 
ATOM     17  C   UNL     1       0.244  -2.999  -8.008  0.00  0.00    +0.038 C 
ATOM     18  C   UNL     1      -0.668  -3.559  -9.106  0.00  0.00    +0.008 C 
ATOM     19  C   UNL     1       0.202  -3.950 -10.300  0.00  0.00    +0.035 C 
ATOM     20  C   UNL     1       1.343  -4.828  -9.858  0.00  0.00    -0.042 A 
ATOM     21  C   UNL     1       1.746  -4.916  -8.544  0.00  0.00    -0.015 A 
ATOM     22  C   UNL     1       2.811  -5.740  -8.205  0.00  0.00    +0.006 A 
ATOM     23  C   UNL     1       3.466  -6.474  -9.173  0.00  0.00    +0.000 A 
ATOM     24  C   UNL     1       3.059  -6.389 -10.491  0.00  0.00    +0.000 A 
ATOM     25  C   UNL     1       2.002  -5.569 -10.831  0.00  0.00    +0.004 A 
BRANCH  16  26
ATOM     26  O   UNL     1       0.218  -5.027  -6.705  0.00  0.00    -0.386 OA
ATOM     27  H   UNL     1       0.677  -5.778  -6.305  0.00  0.00    +0.211 HD
ENDBRANCH  16  26
ENDBRANCH  15  16
ENDBRANCH   1  15
TORSDOF 7
