REMARK  Name = ZINC17967918
REMARK  8 active torsions:
REMARK  status: ('A' for Active; 'I' for Inactive)
REMARK    1  A    between atoms: C_4  and  C_7
REMARK    2  A    between atoms: N_9  and  C_28
REMARK    3  A    between atoms: C_13  and  N_14
REMARK    4  A    between atoms: N_14  and  C_15
REMARK    5  A    between atoms: C_15  and  C_16
REMARK    6  A    between atoms: C_16  and  N_17
REMARK    7  A    between atoms: C_23  and  C_25
REMARK    8  A    between atoms: C_31  and  N_34
REMARK                            x       y       z     vdW  Elec       q    Type
REMARK                         _______ _______ _______ _____ _____    ______ ____
ROOT
ATOM      1  C   UNL     1       3.701  -0.718  -0.259  0.00  0.00    +0.103 C 
ATOM      2  N   UNL     1       4.886  -0.166  -0.270  0.00  0.00    -0.171 NA
ATOM      3  N   UNL     1       5.865  -1.121   0.010  0.00  0.00    -0.156 N 
ATOM      4  C   UNL     1       5.293  -2.324   0.207  0.00  0.00    +0.274 C 
ATOM      5  O   UNL     1       5.869  -3.367   0.470  0.00  0.00    -0.268 OA
ATOM      6  C   UNL     1       3.889  -2.148   0.056  0.00  0.00    +0.080 C 
ATOM      7  C   UNL     1       2.908  -3.114   0.177  0.00  0.00    +0.083 C 
ENDROOT
BRANCH   1  11
ATOM      8  C   UNL     1      -0.003   1.240  -0.979  0.00  0.00    +0.000 A 
ATOM      9  C   UNL     1       0.143  -0.097  -1.300  0.00  0.00    +0.001 A 
ATOM     10  C   UNL     1       1.343  -0.739  -1.069  0.00  0.00    +0.010 A 
ATOM     11  C   UNL     1       2.410  -0.035  -0.510  0.00  0.00    +0.003 A 
ATOM     12  C   UNL     1       2.257   1.313  -0.189  0.00  0.00    +0.010 A 
ATOM     13  C   UNL     1       1.052   1.943  -0.424  0.00  0.00    +0.001 A 
ENDBRANCH   1  11
BRANCH   3  14
ATOM     14  C   UNL     1       7.240  -0.866   0.076  0.00  0.00    +0.060 A 
ATOM     15  C   UNL     1       8.127  -1.897   0.357  0.00  0.00    +0.028 A 
ATOM     16  C   UNL     1       9.482  -1.642   0.421  0.00  0.00    +0.034 A 
ATOM     17  C   UNL     1       9.957  -0.361   0.206  0.00  0.00    +0.126 A 
ATOM     18  C   UNL     1       9.077   0.668  -0.074  0.00  0.00    +0.034 A 
ATOM     19  C   UNL     1       7.721   0.418  -0.145  0.00  0.00    +0.028 A 
BRANCH  17  20
ATOM     20  N   UNL     1      11.411  -0.091   0.275  0.00  0.00    +0.056 N 
ATOM     21  O   UNL     1      12.182  -0.990   0.520  0.00  0.00    -0.126 OA
ATOM     22  O   UNL     1      11.828   1.028   0.087  0.00  0.00    -0.126 OA
ENDBRANCH  17  20
ENDBRANCH   3  14
BRANCH   7  23
ATOM     23  N   UNL     1       3.252  -4.407   0.353  0.00  0.00    -0.348 N 
ATOM     24  H   UNL     1       4.188  -4.658   0.395  0.00  0.00    +0.146 HD
BRANCH  23  25
ATOM     25  C   UNL     1       2.212  -5.431   0.481  0.00  0.00    +0.116 C 
BRANCH  25  26
ATOM     26  C   UNL     1       2.865  -6.801   0.670  0.00  0.00    +0.103 C 
BRANCH  26  27
ATOM     27  N   UNL     1       1.823  -7.827   0.798  0.00  0.00    -0.298 NA
ATOM     28  C   UNL     1       1.041  -7.633   2.027  0.00  0.00    +0.103 C 
ATOM     29  C   UNL     1      -0.144  -8.605   2.034  0.00  0.00    +0.123 C 
ATOM     30  N   UNL     1       0.370  -9.969   1.833  0.00  0.00    -0.299 N 
ATOM     31  C   UNL     1       1.273 -10.212   0.698  0.00  0.00    +0.123 C 
ATOM     32  C   UNL     1       2.402  -9.176   0.744  0.00  0.00    +0.103 C 
ATOM     33  C   UNL     1       0.022 -10.969   2.667  0.00  0.00    +0.219 C 
ATOM     34  O   UNL     1      -0.725 -10.750   3.598  0.00  0.00    -0.275 OA
BRANCH  33  35
ATOM     35  C   UNL     1       0.560 -12.358   2.443  0.00  0.00    +0.075 C 
ATOM     36  C   UNL     1      -0.431 -13.436   1.999  0.00  0.00    +0.013 C 
ATOM     37  C   UNL     1       0.127 -13.450   3.424  0.00  0.00    +0.013 C 
ENDBRANCH  33  35
ENDBRANCH  26  27
ENDBRANCH  25  26
ENDBRANCH  23  25
ENDBRANCH   7  23
TORSDOF 8
