REMARK  Name = ZINC44051632
REMARK  10 active torsions:
REMARK  status: ('A' for Active; 'I' for Inactive)
REMARK    1  A    between atoms: C_1  and  C_2
REMARK    2  A    between atoms: C_2  and  C_4
REMARK    3  A    between atoms: C_2  and  N_10
REMARK    4  A    between atoms: N_10  and  C_11
REMARK    5  A    between atoms: C_11  and  N_13
REMARK    6  A    between atoms: N_13  and  C_14
REMARK    7  A    between atoms: C_16  and  C_22
REMARK    8  A    between atoms: C_16  and  C_23
REMARK    9  A    between atoms: C_18  and  C_20
REMARK   10  A    between atoms: C_18  and  C_21
REMARK                            x       y       z     vdW  Elec       q    Type
REMARK                         _______ _______ _______ _____ _____    ______ ____
ROOT
ATOM      1  N   UNL     1       2.767  -1.244   1.994  0.00  0.00    -0.324 N 
ATOM      2  H   UNL     1       2.282  -1.423   2.814  0.00  0.00    +0.148 HD
ENDROOT
BRANCH   1   3
ATOM      3  C   UNL     1       4.227  -1.400   1.956  0.00  0.00    +0.069 C 
ATOM      4  C   UNL     1       4.570  -2.810   1.472  0.00  0.00    +0.009 C 
ATOM      5  C   UNL     1       6.087  -2.991   1.439  0.00  0.00    -0.072 C 
ATOM      6  N   UNL     1       6.705  -2.675   2.718  0.00  0.00    +0.386 N 
ATOM      7  C   UNL     1       6.298  -1.446   3.380  0.00  0.00    -0.072 C 
ATOM      8  C   UNL     1       4.789  -1.228   3.367  0.00  0.00    +0.009 C 
ATOM      9  C   UNL     1       7.007  -0.224   2.789  0.00  0.00    -0.010 C 
ATOM     10  C   UNL     1       6.734  -1.548   4.861  0.00  0.00    -0.010 C 
ATOM     11  C   UNL     1       6.692  -2.183   0.292  0.00  0.00    -0.010 C 
ATOM     12  C   UNL     1       6.364  -4.484   1.143  0.00  0.00    -0.010 C 
ATOM     13  H   UNL     1       6.536  -3.456   3.358  0.00  0.00    -0.084 HD
ATOM     14  H   UNL     1       7.719  -2.651   2.588  0.00  0.00    -0.084 HD
ENDBRANCH   1   3
BRANCH   1  15
ATOM     15  C   UNL     1       2.103  -0.854   0.888  0.00  0.00    +0.131 C 
ATOM     16  S   UNL     1       2.960  -0.539  -0.559  0.00  0.00    -0.019 S 
BRANCH  15  17
ATOM     17  N   UNL     1       0.763  -0.712   0.923  0.00  0.00    -0.320 N 
ATOM     18  H   UNL     1       0.277  -0.890   1.744  0.00  0.00    +0.148 HD
BRANCH  17  20
ATOM     19  C   UNL     1       0.053   1.240  -0.369  0.00  0.00    +0.033 C 
ATOM     20  C   UNL     1       0.040  -0.287  -0.279  0.00  0.00    +0.099 C 
BRANCH  20  21
ATOM     21  C   UNL     1      -1.384  -0.774  -0.206  0.00  0.00    -0.028 A 
ATOM     22  C   UNL     1      -2.071  -0.726   0.993  0.00  0.00    +0.005 A 
ATOM     23  C   UNL     1      -3.377  -1.172   1.059  0.00  0.00    +0.000 A 
ATOM     24  C   UNL     1      -3.998  -1.666  -0.074  0.00  0.00    +0.000 A 
ATOM     25  C   UNL     1      -3.311  -1.713  -1.273  0.00  0.00    +0.000 A 
ATOM     26  C   UNL     1      -2.006  -1.263  -1.340  0.00  0.00    +0.005 A 
ENDBRANCH  20  21
ENDBRANCH  17  20
ENDBRANCH  15  17
ENDBRANCH   1  15
TORSDOF 5
