REMARK  Name = ZINC59119272
REMARK  11 active torsions:
REMARK  status: ('A' for Active; 'I' for Inactive)
REMARK    1  A    between atoms: C_1  and  N_2
REMARK    2  A    between atoms: N_2  and  C_3
REMARK    3  A    between atoms: N_2  and  C_21
REMARK    4  A    between atoms: C_3  and  C_4
REMARK    5  A    between atoms: C_4  and  C_5
REMARK    6  A    between atoms: C_5  and  N_6
REMARK    7  A    between atoms: N_9  and  C_10
REMARK    8  A    between atoms: C_10  and  C_11
REMARK    9  A    between atoms: C_11  and  C_13
REMARK   10  A    between atoms: C_11  and  O_20
REMARK   11  A    between atoms: C_21  and  C_22
REMARK                            x       y       z     vdW  Elec       q    Type
REMARK                         _______ _______ _______ _____ _____    ______ ____
ROOT
ATOM      1  N   UNL     1       4.282  -0.140  -2.368  0.00  0.00    -0.299 N 
ATOM      2  C   UNL     1       5.112  -0.467  -3.378  0.00  0.00    +0.300 C 
ATOM      3  O   UNL     1       4.694  -1.099  -4.329  0.00  0.00    -0.253 OA
ATOM      4  N   UNL     1       6.406  -0.093  -3.335  0.00  0.00    -0.297 N 
ATOM      5  H   UNL     1       4.615   0.364  -1.610  0.00  0.00    +0.150 HD
ATOM      6  H   UNL     1       6.740   0.411  -2.576  0.00  0.00    +0.150 HD
ENDROOT
BRANCH   1   7
ATOM      7  C   UNL     1       2.875  -0.547  -2.416  0.00  0.00    +0.104 C 
BRANCH   7   8
ATOM      8  C   UNL     1       2.159  -0.053  -1.157  0.00  0.00    +0.000 C 
BRANCH   8   9
ATOM      9  C   UNL     1       0.690  -0.478  -1.207  0.00  0.00    -0.077 C 
BRANCH   9  11
ATOM     10  C   UNL     1      -0.018   1.465   0.010  0.00  0.00    -0.096 C 
ATOM     11  N   UNL     1       0.002  -0.004   0.002  0.00  0.00    +0.381 N 
ATOM     12  H   UNL     1       0.490  -0.338   0.820  0.00  0.00    -0.082 HD
BRANCH  11  13
ATOM     13  C   UNL     1      -1.376  -0.512   0.012  0.00  0.00    -0.043 C 
BRANCH  13  14
ATOM     14  C   UNL     1      -2.043  -0.130   1.309  0.00  0.00    -0.064 A 
ATOM     15  C   UNL     1      -1.964  -0.973   2.402  0.00  0.00    +0.002 A 
ATOM     16  C   UNL     1      -2.575  -0.622   3.591  0.00  0.00    +0.000 A 
ATOM     17  C   UNL     1      -3.266   0.572   3.687  0.00  0.00    +0.000 A 
ATOM     18  C   UNL     1      -3.344   1.415   2.594  0.00  0.00    +0.000 A 
ATOM     19  C   UNL     1      -2.729   1.066   1.406  0.00  0.00    +0.002 A 
ENDBRANCH  13  14
ENDBRANCH  11  13
ENDBRANCH   9  11
ENDBRANCH   8   9
ENDBRANCH   7   8
ENDBRANCH   1   7
BRANCH   4  20
ATOM     20  C   UNL     1       7.309  -0.449  -4.433  0.00  0.00    +0.141 C 
BRANCH  20  21
ATOM     21  C   UNL     1       8.709   0.092  -4.137  0.00  0.00    +0.162 C 
BRANCH  21  22
ATOM     22  C   UNL     1       9.637  -0.274  -5.266  0.00  0.00    -0.017 A 
ATOM     23  C   UNL     1       9.713   0.533  -6.387  0.00  0.00    +0.009 A 
ATOM     24  C   UNL     1      10.564   0.199  -7.423  0.00  0.00    +0.039 A 
ATOM     25  C   UNL     1      11.342  -0.944  -7.339  0.00  0.00    +0.123 A 
ATOM     26  C   UNL     1      11.265  -1.750  -6.216  0.00  0.00    +0.039 A 
ATOM     27  C   UNL     1      10.417  -1.412  -5.179  0.00  0.00    +0.009 A 
ATOM     28  F   UNL     1      12.174  -1.271  -8.351  0.00  0.00    -0.205 F 
ENDBRANCH  21  22
BRANCH  21  29
ATOM     29  O   UNL     1       8.653   1.514  -4.007  0.00  0.00    -0.386 OA
ATOM     30  H   UNL     1       8.333   1.969  -4.798  0.00  0.00    +0.210 HD
ENDBRANCH  21  29
ENDBRANCH  20  21
ENDBRANCH   4  20
TORSDOF 10
