REMARK  Name = ZINC37612092
REMARK  7 active torsions:
REMARK  status: ('A' for Active; 'I' for Inactive)
REMARK    1  A    between atoms: C_1  and  C_2
REMARK    2  A    between atoms: C_6  and  C_17
REMARK    3  A    between atoms: C_7  and  N_8
REMARK    4  A    between atoms: C_9  and  C_11
REMARK    5  A    between atoms: C_11  and  N_12
REMARK    6  A    between atoms: N_12  and  C_13
REMARK    7  A    between atoms: C_13  and  C_14
REMARK                            x       y       z     vdW  Elec       q    Type
REMARK                         _______ _______ _______ _____ _____    ______ ____
ROOT
ATOM      1  N   UNL     1       0.083   0.040   2.397  0.00  0.00    -0.287 N 
ATOM      2  C   UNL     1      -0.062  -0.613   3.567  0.00  0.00    +0.200 C 
ATOM      3  O   UNL     1      -0.127  -1.824   3.581  0.00  0.00    -0.278 OA
ATOM      4  H   UNL     1       0.200   1.003   2.390  0.00  0.00    +0.155 HD
ENDROOT
BRANCH   1  11
ATOM      5  C   UNL     1       2.549  -0.363   1.036  0.00  0.00    +0.046 C 
ATOM      6  C   UNL     1       1.245  -0.890   0.495  0.00  0.00    -0.028 A 
ATOM      7  C   UNL     1       1.225  -1.597  -0.692  0.00  0.00    +0.020 A 
ATOM      8  C   UNL     1       0.028  -2.082  -1.189  0.00  0.00    +0.018 A 
ATOM      9  C   UNL     1      -1.151  -1.859  -0.500  0.00  0.00    +0.020 A 
ATOM     10  C   UNL     1      -1.136  -1.153   0.686  0.00  0.00    -0.028 A 
ATOM     11  C   UNL     1       0.064  -0.671   1.191  0.00  0.00    +0.039 A 
ATOM     12  C   UNL     1      -2.421  -0.911   1.436  0.00  0.00    +0.046 C 
ATOM     13 BR   UNL     1       0.004  -3.049  -2.814  0.00  0.00    -0.050 Br
ENDBRANCH   1  11
BRANCH   2  14
ATOM     14  C   UNL     1      -0.144   0.161   4.857  0.00  0.00    +0.015 C 
BRANCH  14  15
ATOM     15  N   UNL     1      -0.299  -0.773   5.980  0.00  0.00    +0.385 N 
ATOM     16  H   UNL     1      -1.144  -1.310   5.856  0.00  0.00    -0.085 HD
ATOM     17  H   UNL     1       0.494  -1.396   6.011  0.00  0.00    -0.085 HD
BRANCH  15  18
ATOM     18  C   UNL     1      -0.379  -0.018   7.237  0.00  0.00    -0.079 C 
BRANCH  18  19
ATOM     19  C   UNL     1      -0.540  -0.991   8.407  0.00  0.00    -0.028 C 
ATOM     20  C   UNL     1      -1.836  -0.913   9.217  0.00  0.00    +0.002 C 
ATOM     21  C   UNL     1      -0.524  -0.406   9.820  0.00  0.00    +0.002 C 
ENDBRANCH  18  19
ENDBRANCH  15  18
ENDBRANCH  14  15
ENDBRANCH   2  14
TORSDOF 5
