REMARK  Name = ZINC10129398
REMARK  14 active torsions:
REMARK  status: ('A' for Active; 'I' for Inactive)
REMARK    1  A    between atoms: C_1  and  C_2
REMARK    2  A    between atoms: C_2  and  C_3
REMARK    3  A    between atoms: C_2  and  C_4
REMARK    4  A    between atoms: C_4  and  C_5
REMARK    5  A    between atoms: C_5  and  C_7
REMARK    6  A    between atoms: C_5  and  N_66
REMARK    7  A    between atoms: C_13  and  C_15
REMARK    8  A    between atoms: C_18  and  C_20
REMARK    9  A    between atoms: C_18  and  N_24
REMARK   10  A    between atoms: C_18  and  N_66
REMARK   11  A    between atoms: C_20  and  C_21
REMARK   12  A    between atoms: C_21  and  C_22
REMARK   13  A    between atoms: C_21  and  C_23
REMARK   14  A    between atoms: C_25  and  C_27
REMARK                            x       y       z     vdW  Elec       q    Type
REMARK                         _______ _______ _______ _____ _____    ______ ____
ROOT
ATOM      1  N   UNL     1      -1.941   3.951   0.037  0.00  0.00    +0.399 N 
ATOM      2  H   UNL     1      -2.728   3.293   0.076  0.00  0.00    -0.082 HD
ATOM      3  H   UNL     1      -2.297   4.901  -0.121  0.00  0.00    -0.082 HD
ENDROOT
BRANCH   1   4
ATOM      4  C   UNL     1      -1.046   3.575  -1.074  0.00  0.00    +0.019 C 
BRANCH   4   5
ATOM      5  C   UNL     1      -1.488   4.287  -2.327  0.00  0.00    +0.202 C 
ATOM      6  O   UNL     1      -2.516   4.930  -2.329  0.00  0.00    -0.277 OA
ATOM      7  N   UNL     1      -0.740   4.208  -3.445  0.00  0.00    -0.291 N 
ATOM      8  C   UNL     1       0.562   3.527  -3.562  0.00  0.00    +0.108 C 
ATOM      9  C   UNL     1       0.691   3.179  -5.069  0.00  0.00    +0.021 C 
ATOM     10  C   UNL     1       0.049   4.428  -5.730  0.00  0.00    +0.033 C 
ATOM     11  C   UNL     1      -1.085   4.793  -4.749  0.00  0.00    +0.162 C 
BRANCH  11  12
ATOM     12  C   UNL     1      -1.196   6.291  -4.625  0.00  0.00    +0.231 C 
ATOM     13  O   UNL     1      -1.007   6.827  -3.554  0.00  0.00    -0.274 OA
ATOM     14  N   UNL     1      -1.506   7.036  -5.705  0.00  0.00    -0.328 N 
ATOM     15  H   UNL     1      -1.657   6.607  -6.562  0.00  0.00    +0.145 HD
ATOM     16  H   UNL     1      -1.577   8.000  -5.626  0.00  0.00    +0.145 HD
ENDBRANCH  11  12
ENDBRANCH   4   5
BRANCH   4  17
ATOM     17  C   UNL     1      -1.115   2.063  -1.295  0.00  0.00    -0.004 C 
BRANCH  17  19
ATOM     18  C   UNL     1      -2.543   0.198  -2.147  0.00  0.00    +0.007 C 
ATOM     19  C   UNL     1      -2.519   1.680  -1.768  0.00  0.00    -0.018 C 
ATOM     20  C   UNL     1      -3.524   1.935  -0.642  0.00  0.00    +0.007 C 
ENDBRANCH  17  19
ENDBRANCH   4  17
ENDBRANCH   1   4
BRANCH   1  21
ATOM     21  C   UNL     1      -1.210   3.912   1.318  0.00  0.00    +0.017 C 
BRANCH  21  22
ATOM     22  N   UNL     1      -1.603   2.715   2.066  0.00  0.00    -0.328 N 
ATOM     23  C   UNL     1      -0.758   1.668   2.155  0.00  0.00    +0.232 C 
ATOM     24  O   UNL     1       0.361   1.752   1.695  0.00  0.00    -0.274 OA
ATOM     25  H   UNL     1      -2.471   2.675   2.497  0.00  0.00    +0.147 HD
BRANCH  23  26
ATOM     26  C   UNL     1      -1.204   0.394   2.825  0.00  0.00    +0.159 C 
ATOM     27  C   UNL     1      -1.140   0.548   4.361  0.00  0.00    +0.041 C 
ATOM     28  C   UNL     1       0.266  -0.013   4.675  0.00  0.00    +0.098 C 
ATOM     29  C   UNL     1       0.560  -0.946   3.521  0.00  0.00    +0.214 C 
ATOM     30  O   UNL     1       1.428  -1.793   3.517  0.00  0.00    -0.276 OA
ATOM     31  N   UNL     1      -0.281  -0.700   2.502  0.00  0.00    -0.304 N 
ATOM     32  H   UNL     1      -0.278  -1.183   1.661  0.00  0.00    +0.149 HD
ENDBRANCH  23  26
ENDBRANCH  21  22
BRANCH  21  33
ATOM     33  C   UNL     1      -1.557   5.159   2.134  0.00  0.00    +0.005 C 
BRANCH  33  34
ATOM     34  C   UNL     1      -0.771   5.144   3.447  0.00  0.00    -0.017 C 
ATOM     35  C   UNL     1       0.725   5.265   3.147  0.00  0.00    +0.007 C 
ATOM     36  C   UNL     1      -1.213   6.321   4.319  0.00  0.00    +0.007 C 
ENDBRANCH  33  34
ENDBRANCH  21  33
ENDBRANCH   1  21
TORSDOF 10
