REMARK  Name = ZINC21652428
REMARK  10 active torsions:
REMARK  status: ('A' for Active; 'I' for Inactive)
REMARK    1  A    between atoms: C_1  and  O_2
REMARK    2  A    between atoms: O_2  and  C_3
REMARK    3  A    between atoms: C_3  and  C_5
REMARK    4  A    between atoms: N_8  and  C_11
REMARK    5  A    between atoms: C_9  and  N_10
REMARK    6  A    between atoms: C_14  and  C_17
REMARK    7  A    between atoms: N_19  and  C_20
REMARK    8  A    between atoms: C_20  and  C_21
REMARK    9  A    between atoms: C_21  and  C_22
REMARK   10  A    between atoms: C_22  and  N_23
REMARK                            x       y       z     vdW  Elec       q    Type
REMARK                         _______ _______ _______ _____ _____    ______ ____
ROOT
ATOM      1  C   UNL     1      -0.017   1.393   0.010  0.00  0.00    +0.067 A 
ATOM      2  C   UNL     1      -1.232   2.071   0.019  0.00  0.00    +0.028 A 
ATOM      3  C   UNL     1      -1.254   3.447   0.032  0.00  0.00    +0.015 A 
ATOM      4  C   UNL     1      -0.054   4.164   0.024  0.00  0.00    +0.037 A 
ATOM      5  C   UNL     1       1.164   3.480   0.009  0.00  0.00    +0.015 A 
ATOM      6  C   UNL     1       1.179   2.103   0.002  0.00  0.00    +0.028 A 
ENDROOT
BRANCH   1  10
ATOM      7  C   UNL     1      -0.498  -2.124   0.368  0.00  0.00    +0.118 A 
ATOM      8  C   UNL     1       0.653  -2.060  -0.454  0.00  0.00    +0.151 A 
ATOM      9  N   UNL     1       0.933  -0.805  -0.667  0.00  0.00    -0.172 NA
ATOM     10  N   UNL     1       0.002  -0.004   0.002  0.00  0.00    -0.218 N 
ATOM     11  C   UNL     1      -0.880  -0.810   0.635  0.00  0.00    +0.134 A 
BRANCH  11  12
ATOM     12  N   UNL     1      -1.954  -0.408   1.401  0.00  0.00    -0.342 N 
ATOM     13  H   UNL     1      -2.158   0.663   1.543  0.00  0.00    +0.144 HD
ATOM     14  H   UNL     1      -2.606  -1.159   1.870  0.00  0.00    +0.144 HD
ENDBRANCH  11  12
BRANCH   7  15
ATOM     15  C   UNL     1      -1.162  -3.340   0.847  0.00  0.00    +0.344 C 
ATOM     16  O   UNL     1      -2.149  -3.256   1.552  0.00  0.00    -0.245 OA
BRANCH  15  18
ATOM     17  C   UNL     1      -1.385  -5.712   1.016  0.00  0.00    +0.280 C 
ATOM     18  O   UNL     1      -0.677  -4.551   0.506  0.00  0.00    -0.464 OA
ENDBRANCH  15  18
ENDBRANCH   7  15
ENDBRANCH   1  10
BRANCH   4  19
ATOM     19  C   UNL     1      -0.074   5.640   0.030  0.00  0.00    +0.244 C 
ATOM     20  O   UNL     1       0.970   6.262   0.023  0.00  0.00    -0.270 OA
ATOM     21  N   UNL     1      -1.251   6.298   0.044  0.00  0.00    -0.311 N 
ATOM     22  H   UNL     1      -2.196   5.735   0.051  0.00  0.00    +0.149 HD
BRANCH  21  23
ATOM     23  C   UNL     1      -1.271   7.763   0.051  0.00  0.00    +0.102 C 
BRANCH  23  24
ATOM     24  C   UNL     1      -2.720   8.253   0.067  0.00  0.00    +0.000 C 
BRANCH  24  25
ATOM     25  C   UNL     1      -2.740   9.783   0.074  0.00  0.00    -0.077 C 
BRANCH  25  26
ATOM     26  N   UNL     1      -4.132  10.254   0.090  0.00  0.00    +0.383 N 
ATOM     27  C   UNL     1      -4.196  11.704   0.335  0.00  0.00    -0.074 C 
ATOM     28  C   UNL     1      -5.599  12.195  -0.020  0.00  0.00    +0.017 C 
ATOM     29  C   UNL     1      -6.633  11.331   0.655  0.00  0.00    -0.048 A 
ATOM     30  C   UNL     1      -7.932  11.806   0.752  0.00  0.00    +0.004 A 
ATOM     31  C   UNL     1      -8.911  11.045   1.359  0.00  0.00    +0.000 A 
ATOM     32  C   UNL     1      -8.594   9.801   1.873  0.00  0.00    +0.000 A 
ATOM     33  C   UNL     1      -7.301   9.328   1.779  0.00  0.00    +0.002 A 
ATOM     34  C   UNL     1      -6.316  10.092   1.171  0.00  0.00    -0.061 A 
ATOM     35  C   UNL     1      -4.919   9.534   1.096  0.00  0.00    -0.043 C 
ATOM     36  H   UNL     1      -4.565  10.047  -0.900  0.00  0.00    -0.081 HD
ENDBRANCH  25  26
ENDBRANCH  24  25
ENDBRANCH  23  24
ENDBRANCH  21  23
ENDBRANCH   4  19
TORSDOF 9
