REMARK  Name = ZINC36591330
REMARK  13 active torsions:
REMARK  status: ('A' for Active; 'I' for Inactive)
REMARK    1  A    between atoms: C_1  and  C_2
REMARK    2  A    between atoms: C_5  and  S_8
REMARK    3  A    between atoms: S_8  and  C_11
REMARK    4  A    between atoms: C_11  and  N_12
REMARK    5  A    between atoms: C_13  and  C_15
REMARK    6  A    between atoms: C_15  and  C_17
REMARK    7  A    between atoms: C_15  and  N_24
REMARK    8  A    between atoms: C_21  and  O_23
REMARK    9  A    between atoms: N_24  and  C_34
REMARK   10  A    between atoms: C_25  and  C_27
REMARK   11  A    between atoms: C_34  and  C_35
REMARK   12  A    between atoms: C_34  and  C_36
REMARK   13  A    between atoms: C_34  and  C_37
REMARK                            x       y       z     vdW  Elec       q    Type
REMARK                         _______ _______ _______ _____ _____    ______ ____
ROOT
ATOM      1  C   UNL     1       3.204  -4.584   3.871  0.00  0.00    +0.193 C 
ENDROOT
BRANCH   1   2
ATOM      2  C   UNL     1       1.969  -3.760   3.618  0.00  0.00    -0.015 A 
ATOM      3  C   UNL     1       0.749  -4.383   3.431  0.00  0.00    +0.006 A 
ATOM      4  C   UNL     1      -0.387  -3.629   3.199  0.00  0.00    +0.004 A 
ATOM      5  C   UNL     1      -0.305  -2.250   3.153  0.00  0.00    +0.045 A 
ATOM      6  C   UNL     1       0.918  -1.623   3.340  0.00  0.00    +0.117 A 
ATOM      7  C   UNL     1       2.055  -2.382   3.579  0.00  0.00    +0.051 A 
BRANCH   6   8
ATOM      8  O   UNL     1       1.001  -0.267   3.296  0.00  0.00    -0.507 OA
ATOM      9  H   UNL     1       0.873   0.163   4.152  0.00  0.00    +0.292 HD
ENDBRANCH   6   8
ENDBRANCH   1   2
BRANCH   1  11
ATOM     10  N   UNL     1       4.444  -3.287   2.168  0.00  0.00    -0.294 N 
ATOM     11  C   UNL     1       4.122  -4.492   2.679  0.00  0.00    +0.239 C 
ATOM     12  O   UNL     1       4.572  -5.502   2.181  0.00  0.00    -0.273 OA
ATOM     13  H   UNL     1       4.084  -2.480   2.567  0.00  0.00    +0.150 HD
BRANCH  10  14
ATOM     14  C   UNL     1       5.336  -3.198   1.010  0.00  0.00    +0.278 C 
BRANCH  14  15
ATOM     15  S   UNL     1       4.349  -3.096  -0.508  0.00  0.00    +0.013 S 
ATOM     16  O   UNL     1       3.330  -4.086  -0.497  0.00  0.00    -0.168 OA
ATOM     17  O   UNL     1       5.199  -2.945  -1.637  0.00  0.00    -0.168 OA
BRANCH  15  22
ATOM     18  C   UNL     1       1.398   2.151  -0.093  0.00  0.00    +0.044 C 
ATOM     19  C   UNL     1       2.135   0.840  -0.197  0.00  0.00    -0.050 A 
ATOM     20  C   UNL     1       3.380   0.793  -0.796  0.00  0.00    +0.005 A 
ATOM     21  C   UNL     1       4.056  -0.409  -0.891  0.00  0.00    +0.027 A 
ATOM     22  C   UNL     1       3.487  -1.564  -0.386  0.00  0.00    +0.090 A 
ATOM     23  C   UNL     1       2.243  -1.516   0.214  0.00  0.00    +0.027 A 
ATOM     24  C   UNL     1       1.569  -0.313   0.313  0.00  0.00    +0.005 A 
ENDBRANCH  15  22
ENDBRANCH  14  15
ENDBRANCH  10  14
ENDBRANCH   1  11
BRANCH   1  25
ATOM     25  N   UNL     1       2.823  -5.982   4.086  0.00  0.00    -0.279 N 
ATOM     26  C   UNL     1       2.335  -6.713   3.064  0.00  0.00    +0.237 C 
ATOM     27  O   UNL     1       2.126  -6.189   1.990  0.00  0.00    -0.274 OA
BRANCH  26  28
ATOM     28  C   UNL     1       2.051  -8.181   3.255  0.00  0.00    +0.159 C 
ATOM     29  C   UNL     1       3.273  -9.022   2.826  0.00  0.00    +0.041 C 
ATOM     30  C   UNL     1       2.930  -9.350   1.355  0.00  0.00    +0.098 C 
ATOM     31  C   UNL     1       1.421  -9.259   1.297  0.00  0.00    +0.214 C 
ATOM     32  O   UNL     1       0.732  -9.711   0.407  0.00  0.00    -0.276 OA
ATOM     33  N   UNL     1       0.954  -8.604   2.376  0.00  0.00    -0.304 N 
ATOM     34  H   UNL     1       0.016  -8.434   2.551  0.00  0.00    +0.149 HD
ENDBRANCH  26  28
BRANCH  25  35
ATOM     35  C   UNL     1       2.971  -6.586   5.413  0.00  0.00    +0.030 C 
ATOM     36  C   UNL     1       3.675  -5.600   6.346  0.00  0.00    +0.031 C 
ATOM     37  C   UNL     1       1.589  -6.923   5.976  0.00  0.00    +0.031 C 
ATOM     38  C   UNL     1       3.802  -7.865   5.301  0.00  0.00    +0.031 C 
ENDBRANCH  25  35
ENDBRANCH   1  25
TORSDOF 9
