REMARK  Name = ZINC38550611
REMARK  7 active torsions:
REMARK  status: ('A' for Active; 'I' for Inactive)
REMARK    1  A    between atoms: C_1  and  O_2
REMARK    2  A    between atoms: O_2  and  C_3
REMARK    3  A    between atoms: C_8  and  C_9
REMARK    4  A    between atoms: C_9  and  C_11
REMARK    5  A    between atoms: C_9  and  N_28
REMARK    6  A    between atoms: C_15  and  N_16
REMARK    7  A    between atoms: C_17  and  C_19
REMARK                            x       y       z     vdW  Elec       q    Type
REMARK                         _______ _______ _______ _____ _____    ______ ____
ROOT
ATOM      1  C   UNL     1       0.051  -2.843  -0.004  0.00  0.00    +0.138 C 
ENDROOT
BRANCH   1   2
ATOM      2  C   UNL     1       1.101  -2.911  -1.084  0.00  0.00    +0.009 A 
ATOM      3  C   UNL     1       0.977  -2.125  -2.230  0.00  0.00    -0.030 A 
ATOM      4  C   UNL     1       1.964  -2.242  -3.158  0.00  0.00    -0.005 A 
ATOM      5  S   UNL     1       3.071  -3.435  -2.456  0.00  0.00    -0.078 S 
ATOM      6  C   UNL     1       2.174  -3.733  -0.940  0.00  0.00    +0.078 A 
ATOM      7  C   UNL     1       2.075  -1.524  -4.465  0.00  0.00    +0.043 C 
ATOM      8  C   UNL     1       0.712  -0.892  -4.786  0.00  0.00    +0.005 C 
ATOM      9  C   UNL     1       0.205  -0.160  -3.540  0.00  0.00    +0.005 C 
ATOM     10  C   UNL     1      -0.192  -1.172  -2.464  0.00  0.00    +0.036 C 
BRANCH   6  11
ATOM     11  N   UNL     1       2.491  -4.590   0.116  0.00  0.00    -0.273 N 
ATOM     12  C   UNL     1       3.556  -5.410   0.022  0.00  0.00    +0.284 C 
ATOM     13  O   UNL     1       4.241  -5.405  -0.984  0.00  0.00    -0.266 OA
ATOM     14  H   UNL     1       1.945  -4.594   0.918  0.00  0.00    +0.156 HD
BRANCH  12  15
ATOM     15  C   UNL     1       3.889  -6.310   1.131  0.00  0.00    +0.189 A 
ATOM     16  C   UNL     1       4.938  -7.184   1.168  0.00  0.00    +0.054 A 
ATOM     17  C   UNL     1       4.876  -7.835   2.410  0.00  0.00    +0.042 A 
ATOM     18  C   UNL     1       3.806  -7.337   3.068  0.00  0.00    +0.196 A 
ATOM     19  O   UNL     1       3.217  -6.414   2.296  0.00  0.00    -0.458 OA
ENDBRANCH  12  15
ENDBRANCH   6  11
ENDBRANCH   1   2
BRANCH   1  20
ATOM     20  N   UNL     1      -0.364  -4.200   0.359  0.00  0.00    -0.319 N 
ATOM     21  C   UNL     1      -1.608  -4.414   0.941  0.00  0.00    +0.097 A 
ATOM     22  C   UNL     1      -2.456  -3.335   1.171  0.00  0.00    +0.041 A 
ATOM     23  C   UNL     1      -3.691  -3.562   1.751  0.00  0.00    +0.005 A 
ATOM     24  C   UNL     1      -4.038  -4.866   2.083  0.00  0.00    +0.018 A 
ATOM     25  C   UNL     1      -3.147  -5.888   1.826  0.00  0.00    +0.084 A 
ATOM     26  N   UNL     1      -1.978  -5.643   1.267  0.00  0.00    -0.350 N 
ATOM     27  H   UNL     1       0.229  -4.950   0.193  0.00  0.00    +0.148 HD
ATOM     28  H   UNL     1      -1.372  -6.381   1.093  0.00  0.00    +0.166 HD
ENDBRANCH   1  20
BRANCH   1  34
ATOM     29  C   UNL     1       0.706  -0.767   1.240  0.00  0.00    +0.125 A 
ATOM     30  C   UNL     1       1.225  -0.133   2.360  0.00  0.00    +0.046 A 
ATOM     31  C   UNL     1       1.662  -0.881   3.436  0.00  0.00    +0.004 A 
ATOM     32  C   UNL     1       1.581  -2.261   3.398  0.00  0.00    +0.001 A 
ATOM     33  C   UNL     1       1.064  -2.895   2.284  0.00  0.00    +0.009 A 
ATOM     34  C   UNL     1       0.621  -2.151   1.207  0.00  0.00    +0.019 A 
BRANCH  29  36
ATOM     35  C   UNL     1       0.393   1.387   0.284  0.00  0.00    +0.277 C 
ATOM     36  O   UNL     1       0.275  -0.033   0.180  0.00  0.00    -0.495 OA
ENDBRANCH  29  36
ENDBRANCH   1  34
TORSDOF 6
