REMARK  Name = ZINC63661046
REMARK  11 active torsions:
REMARK  status: ('A' for Active; 'I' for Inactive)
REMARK    1  A    between atoms: C_1  and  C_2
REMARK    2  A    between atoms: N_6  and  C_7
REMARK    3  A    between atoms: C_7  and  C_8
REMARK    4  A    between atoms: C_8  and  C_9
REMARK    5  A    between atoms: C_8  and  C_10
REMARK    6  A    between atoms: C_10  and  N_11
REMARK    7  A    between atoms: C_12  and  C_14
REMARK    8  A    between atoms: C_19  and  N_20
REMARK    9  A    between atoms: N_23  and  C_24
REMARK   10  A    between atoms: C_24  and  C_25
REMARK   11  A    between atoms: C_24  and  C_26
REMARK                            x       y       z     vdW  Elec       q    Type
REMARK                         _______ _______ _______ _____ _____    ______ ____
ROOT
ATOM      1  N   UNL     1      -3.211   0.269   4.724  0.00  0.00    -0.311 N 
ATOM      2  C   UNL     1      -3.555   0.637   5.974  0.00  0.00    +0.246 C 
ATOM      3  O   UNL     1      -2.702   1.018   6.753  0.00  0.00    -0.270 OA
ATOM      4  H   UNL     1      -3.892  -0.035   4.103  0.00  0.00    +0.149 HD
ENDROOT
BRANCH   2   5
ATOM      5  C   UNL     1      -4.967   0.580   6.397  0.00  0.00    +0.058 A 
ATOM      6  C   UNL     1      -5.933   0.028   5.551  0.00  0.00    +0.015 A 
ATOM      7  C   UNL     1      -7.250  -0.023   5.953  0.00  0.00    +0.001 A 
ATOM      8  C   UNL     1      -7.623   0.469   7.193  0.00  0.00    +0.002 A 
ATOM      9  C   UNL     1      -6.681   1.017   8.040  0.00  0.00    +0.024 A 
ATOM     10  C   UNL     1      -5.348   1.073   7.654  0.00  0.00    +0.047 A 
BRANCH  10  11
ATOM     11  N   UNL     1      -4.394   1.620   8.509  0.00  0.00    -0.269 N 
ATOM     12  C   UNL     1      -4.517   1.467   9.843  0.00  0.00    +0.304 C 
ATOM     13  O   UNL     1      -5.408   0.773  10.295  0.00  0.00    -0.253 OA
ATOM     14  N   UNL     1      -3.654   2.082  10.674  0.00  0.00    -0.297 N 
ATOM     15  H   UNL     1      -3.642   2.112   8.145  0.00  0.00    +0.156 HD
ATOM     16  H   UNL     1      -2.943   2.635  10.313  0.00  0.00    +0.151 HD
BRANCH  14  17
ATOM     17  C   UNL     1      -3.787   1.915  12.124  0.00  0.00    +0.068 C 
ATOM     18  C   UNL     1      -3.068   0.637  12.559  0.00  0.00    +0.027 C 
ATOM     19  C   UNL     1      -3.165   3.118  12.835  0.00  0.00    +0.027 C 
ENDBRANCH  14  17
ENDBRANCH  10  11
ENDBRANCH   2   5
BRANCH   1  20
ATOM     20  C   UNL     1      -1.809   0.326   4.304  0.00  0.00    +0.109 C 
BRANCH  20  21
ATOM     21  C   UNL     1      -1.692  -0.142   2.852  0.00  0.00    +0.023 C 
ATOM     22  C   UNL     1      -2.429   0.839   1.939  0.00  0.00    +0.011 C 
BRANCH  21  23
ATOM     23  C   UNL     1      -0.217  -0.202   2.452  0.00  0.00    +0.127 C 
BRANCH  23  29
ATOM     24  C   UNL     1      -0.432  -3.208   1.737  0.00  0.00    +0.084 C 
ATOM     25  C   UNL     1      -0.188  -2.074   0.775  0.00  0.00    +0.084 A 
ATOM     26  N   UNL     1      -0.036  -2.190  -0.515  0.00  0.00    -0.350 N 
ATOM     27  C   UNL     1       0.161  -0.975  -1.049  0.00  0.00    +0.101 A 
ATOM     28  C   UNL     1       0.129  -0.072  -0.051  0.00  0.00    +0.104 A 
ATOM     29  N   UNL     1      -0.098  -0.768   1.106  0.00  0.00    -0.336 N 
ATOM     30  H   UNL     1      -0.061  -3.023  -1.011  0.00  0.00    +0.166 HD
ENDBRANCH  23  29
ENDBRANCH  21  23
ENDBRANCH  20  21
ENDBRANCH   1  20
TORSDOF 7
