REMARK  Name = ZINC63557186
REMARK  6 active torsions:
REMARK  status: ('A' for Active; 'I' for Inactive)
REMARK    1  A    between atoms: C_1  and  C_2
REMARK    2  A    between atoms: C_9  and  N_12
REMARK    3  A    between atoms: C_13  and  C_15
REMARK    4  A    between atoms: N_20  and  C_22
REMARK    5  A    between atoms: C_22  and  C_23
REMARK    6  A    between atoms: C_23  and  C_24
REMARK                            x       y       z     vdW  Elec       q    Type
REMARK                         _______ _______ _______ _____ _____    ______ ____
ROOT
ATOM      1  C   UNL     1       2.668  -7.165   2.945  0.00  0.00    +0.101 C 
ATOM      2  C   UNL     1       2.825  -8.253   1.858  0.00  0.00    +0.110 C 
ATOM      3  C   UNL     1       3.404  -9.438   2.599  0.00  0.00    +0.216 C 
ATOM      4  O   UNL     1       3.935 -10.393   2.074  0.00  0.00    -0.276 OA
ATOM      5  N   UNL     1       3.245  -9.277   3.924  0.00  0.00    -0.300 N 
ATOM      6  C   UNL     1       2.557  -8.017   4.230  0.00  0.00    +0.121 C 
ENDROOT
BRANCH   1   8
ATOM      7  N   UNL     1       1.291  -5.596   1.619  0.00  0.00    -0.288 N 
ATOM      8  C   UNL     1       1.415  -6.358   2.724  0.00  0.00    +0.220 C 
ATOM      9  O   UNL     1       0.518  -6.394   3.539  0.00  0.00    -0.275 OA
ATOM     10  H   UNL     1       2.008  -5.567   0.967  0.00  0.00    +0.151 HD
BRANCH   7  19
ATOM     11  C   UNL     1      -0.018   1.503   0.010  0.00  0.00    +0.044 C 
ATOM     12  C   UNL     1       0.002  -0.004   0.002  0.00  0.00    -0.049 A 
ATOM     13  C   UNL     1       0.006  -0.700  -1.193  0.00  0.00    +0.005 A 
ATOM     14  C   UNL     1       0.025  -2.075  -1.215  0.00  0.00    +0.024 A 
ATOM     15  C   UNL     1       0.040  -2.822  -0.023  0.00  0.00    +0.043 A 
ATOM     16  C   UNL     1       0.035  -2.090   1.168  0.00  0.00    +0.032 A 
ATOM     17  C   UNL     1       0.023  -0.714   1.191  0.00  0.00    +0.020 A 
ATOM     18  S   UNL     1       0.057  -3.310   2.462  0.00  0.00    -0.082 S 
ATOM     19  C   UNL     1       0.072  -4.811   1.404  0.00  0.00    +0.224 C 
ATOM     20  N   UNL     1       0.059  -4.213   0.062  0.00  0.00    -0.316 N 
ATOM     21  H   UNL     1       0.062  -4.766  -0.735  0.00  0.00    +0.149 HD
ENDBRANCH   7  19
ENDBRANCH   1   8
BRANCH   5  22
ATOM     22  C   UNL     1       3.701 -10.236   4.934  0.00  0.00    +0.112 C 
BRANCH  22  23
ATOM     23  C   UNL     1       5.130  -9.891   5.356  0.00  0.00    +0.052 C 
BRANCH  23  24
ATOM     24  C   UNL     1       5.599 -10.877   6.395  0.00  0.00    -0.040 C 
ATOM     25  C   UNL     1       6.323 -12.000   6.182  0.00  0.00    +0.002 A 
ATOM     26  C   UNL     1       6.869 -12.615   4.966  0.00  0.00    +0.048 A 
ATOM     27  C   UNL     1       7.569 -13.769   5.072  0.00  0.00    +0.124 A 
ATOM     28  C   UNL     1       7.784 -14.390   6.313  0.00  0.00    +0.040 A 
ATOM     29  C   UNL     1       7.312 -13.884   7.472  0.00  0.00    +0.029 A 
ATOM     30  C   UNL     1       6.564 -12.675   7.477  0.00  0.00    +0.043 A 
ATOM     31  N   UNL     1       6.010 -11.996   8.453  0.00  0.00    -0.380 N 
ATOM     32  C   UNL     1       5.361 -10.809   7.886  0.00  0.00    +0.144 C 
ATOM     33  F   UNL     1       8.073 -14.338   3.955  0.00  0.00    -0.205 F 
ATOM     34  H   UNL     1       6.030 -12.237   9.392  0.00  0.00    +0.160 HD
ENDBRANCH  23  24
ENDBRANCH  22  23
ENDBRANCH   5  22
TORSDOF 5
