REMARK  Name = ZINC54016415
REMARK  8 active torsions:
REMARK  status: ('A' for Active; 'I' for Inactive)
REMARK    1  A    between atoms: C_5  and  C_7
REMARK    2  A    between atoms: C_7  and  C_9
REMARK    3  A    between atoms: C_7  and  N_21
REMARK    4  A    between atoms: C_9  and  C_10
REMARK    5  A    between atoms: C_10  and  N_11
REMARK    6  A    between atoms: C_16  and  C_18
REMARK    7  A    between atoms: C_18  and  C_19
REMARK    8  A    between atoms: C_19  and  O_20
REMARK                            x       y       z     vdW  Elec       q    Type
REMARK                         _______ _______ _______ _____ _____    ______ ____
ROOT
ATOM      1  C   UNL     1       1.813  -2.566   1.738  0.00  0.00    +0.005 C 
ENDROOT
BRANCH   1   2
ATOM      2  C   UNL     1       1.772  -1.901   0.360  0.00  0.00    +0.080 C 
BRANCH   2   7
ATOM      3  C   UNL     1       1.101   1.796   0.728  0.00  0.00    +0.000 A 
ATOM      4  C   UNL     1       2.385   2.305   0.788  0.00  0.00    +0.001 A 
ATOM      5  C   UNL     1       3.471   1.454   0.710  0.00  0.00    +0.015 A 
ATOM      6  C   UNL     1       3.273   0.092   0.572  0.00  0.00    +0.023 A 
ATOM      7  C   UNL     1       1.988  -0.417   0.512  0.00  0.00    -0.017 A 
ATOM      8  C   UNL     1       0.903   0.435   0.590  0.00  0.00    +0.006 A 
ATOM      9 BR   UNL     1       4.758  -1.074   0.464  0.00  0.00    -0.050 Br
ENDBRANCH   2   7
BRANCH   2  10
ATOM     10  N   UNL     1       0.463  -2.144  -0.262  0.00  0.00    -0.324 NA
ATOM     11  H   UNL     1      -0.282  -1.764   0.303  0.00  0.00    +0.119 HD
ATOM     12  H   UNL     1       0.433  -1.770  -1.198  0.00  0.00    +0.119 HD
ENDBRANCH   2  10
ENDBRANCH   1   2
BRANCH   1  13
ATOM     13  C   UNL     1       1.718  -4.084   1.574  0.00  0.00    -0.077 C 
BRANCH  13  14
ATOM     14  N   UNL     1       1.758  -4.722   2.897  0.00  0.00    +0.382 N 
ATOM     15  C   UNL     1       0.567  -4.334   3.662  0.00  0.00    -0.078 C 
ATOM     16  C   UNL     1       0.643  -4.931   5.069  0.00  0.00    -0.019 C 
ATOM     17  C   UNL     1       0.712  -6.457   4.967  0.00  0.00    -0.003 C 
ATOM     18  C   UNL     1       1.916  -6.848   4.106  0.00  0.00    -0.015 C 
ATOM     19  C   UNL     1       1.793  -6.180   2.734  0.00  0.00    -0.066 C 
ATOM     20  H   UNL     1       2.585  -4.420   3.390  0.00  0.00    -0.081 HD
BRANCH  19  21
ATOM     21  C   UNL     1       2.994  -6.568   1.869  0.00  0.00    +0.012 C 
BRANCH  21  22
ATOM     22  C   UNL     1       2.993  -8.081   1.644  0.00  0.00    +0.154 C 
BRANCH  22  23
ATOM     23  O   UNL     1       4.168  -8.456   0.923  0.00  0.00    -0.395 OA
ATOM     24  H   UNL     1       4.235  -9.404   0.744  0.00  0.00    +0.209 HD
ENDBRANCH  22  23
ENDBRANCH  21  22
ENDBRANCH  19  21
ENDBRANCH  13  14
ENDBRANCH   1  13
TORSDOF 8
