REMARK  Name = ZINC39631674
REMARK  11 active torsions:
REMARK  status: ('A' for Active; 'I' for Inactive)
REMARK    1  A    between atoms: C_1  and  C_2
REMARK    2  A    between atoms: C_2  and  C_4
REMARK    3  A    between atoms: C_2  and  N_11
REMARK    4  A    between atoms: C_4  and  C_5
REMARK    5  A    between atoms: C_5  and  C_6
REMARK    6  A    between atoms: C_6  and  C_7
REMARK    7  A    between atoms: C_7  and  C_8
REMARK    8  A    between atoms: C_7  and  C_9
REMARK    9  A    between atoms: C_7  and  O_10
REMARK   10  A    between atoms: C_12  and  C_14
REMARK   11  A    between atoms: C_25  and  C_27
REMARK                            x       y       z     vdW  Elec       q    Type
REMARK                         _______ _______ _______ _____ _____    ______ ____
ROOT
ATOM      1  C   UNL     1      11.166  14.415  -6.348  0.00  0.00    +0.100 C 
ATOM      2  C   UNL     1      10.902  14.690  -7.845  0.00  0.00    +0.121 C 
ATOM      3  N   UNL     1      10.340  16.061  -7.880  0.00  0.00    -0.296 N 
ATOM      4  C   UNL     1      11.125  16.807  -6.868  0.00  0.00    +0.115 C 
ATOM      5  C   UNL     1      11.316  15.807  -5.711  0.00  0.00    -0.004 C 
ATOM      6  C   UNL     1      12.706  15.963  -5.102  0.00  0.00    -0.010 C 
ATOM      7  C   UNL     1      12.811  17.332  -4.424  0.00  0.00    -0.082 C 
ATOM      8  N   UNL     1      11.783  17.444  -3.382  0.00  0.00    +0.379 N 
ATOM      9  C   UNL     1      10.448  17.387  -3.989  0.00  0.00    -0.082 C 
ATOM     10  C   UNL     1      10.243  16.020  -4.648  0.00  0.00    -0.010 C 
ATOM     11  C   UNL     1       9.341  16.524  -8.657  0.00  0.00    +0.249 C 
ATOM     12  O   UNL     1       9.071  17.709  -8.657  0.00  0.00    -0.270 OA
ATOM     13  H   UNL     1      11.886  16.685  -2.726  0.00  0.00    -0.086 HD
ATOM     14  H   UNL     1      11.893  18.322  -2.897  0.00  0.00    -0.086 HD
ENDROOT
BRANCH  11  15
ATOM     15  C   UNL     1       8.575  15.592  -9.509  0.00  0.00    +0.073 A 
ATOM     16  C   UNL     1       7.592  14.774  -8.948  0.00  0.00    +0.016 A 
ATOM     17  C   UNL     1       6.880  13.907  -9.748  0.00  0.00    +0.002 A 
ATOM     18  C   UNL     1       7.136  13.843 -11.107  0.00  0.00    +0.023 A 
ATOM     19  C   UNL     1       8.107  14.649 -11.674  0.00  0.00    +0.077 A 
ATOM     20  C   UNL     1       8.826  15.529 -10.883  0.00  0.00    +0.154 A 
ATOM     21  F   UNL     1       9.772  16.320 -11.437  0.00  0.00    -0.203 F 
ATOM     22 CL   UNL     1       8.420  14.561 -13.379  0.00  0.00    -0.081 Cl
ENDBRANCH  11  15
BRANCH   1  24
ATOM     23  N   UNL     1      10.189  12.910  -4.646  0.00  0.00    -0.312 N 
ATOM     24  C   UNL     1      10.002  13.681  -5.735  0.00  0.00    +0.218 C 
ATOM     25  O   UNL     1       8.896  13.783  -6.223  0.00  0.00    -0.275 OA
ATOM     26  H   UNL     1      11.062  12.869  -4.225  0.00  0.00    +0.149 HD
BRANCH  23  28
ATOM     27  C   UNL     1       8.307  12.987  -3.086  0.00  0.00    +0.028 C 
ATOM     28  C   UNL     1       9.074  12.133  -4.097  0.00  0.00    +0.070 C 
BRANCH  28  29
ATOM     29  C   UNL     1       9.617  10.883  -3.402  0.00  0.00    +0.022 C 
BRANCH  29  30
ATOM     30  C   UNL     1      11.070  10.656  -3.822  0.00  0.00    +0.005 C 
BRANCH  30  31
ATOM     31  C   UNL     1      11.556   9.313  -3.272  0.00  0.00    +0.034 C 
BRANCH  31  32
ATOM     32  C   UNL     1      13.002   9.075  -3.712  0.00  0.00    +0.061 C 
ATOM     33  C   UNL     1      13.885  10.217  -3.203  0.00  0.00    +0.041 C 
ATOM     34  C   UNL     1      13.499   7.749  -3.134  0.00  0.00    +0.041 C 
BRANCH  32  35
ATOM     35  O   UNL     1      13.064   9.026  -5.139  0.00  0.00    -0.389 OA
ATOM     36  H   UNL     1      12.844   9.862  -5.572  0.00  0.00    +0.210 HD
ENDBRANCH  32  35
ENDBRANCH  31  32
ENDBRANCH  30  31
ENDBRANCH  29  30
ENDBRANCH  28  29
ENDBRANCH  23  28
ENDBRANCH   1  24
TORSDOF 8
