REMARK  Name = ZINC35908107
REMARK  11 active torsions:
REMARK  status: ('A' for Active; 'I' for Inactive)
REMARK    1  A    between atoms: C_1  and  C_2
REMARK    2  A    between atoms: C_2  and  C_3
REMARK    3  A    between atoms: C_2  and  C_4
REMARK    4  A    between atoms: C_4  and  C_5
REMARK    5  A    between atoms: C_5  and  N_6
REMARK    6  A    between atoms: C_7  and  C_9
REMARK    7  A    between atoms: C_14  and  C_34
REMARK    8  A    between atoms: N_22  and  C_25
REMARK    9  A    between atoms: C_25  and  C_26
REMARK   10  A    between atoms: C_26  and  O_27
REMARK   11  A    between atoms: O_27  and  C_28
REMARK                            x       y       z     vdW  Elec       q    Type
REMARK                         _______ _______ _______ _____ _____    ______ ____
ROOT
ATOM      1  C   UNL     1      -5.737  -0.925  -2.313  0.00  0.00    +0.098 C 
ATOM      2  C   UNL     1      -5.716  -2.448  -2.196  0.00  0.00    +0.051 C 
ATOM      3  C   UNL     1      -5.096  -3.038  -3.436  0.00  0.00    -0.025 A 
ATOM      4  C   UNL     1      -4.491  -4.281  -3.364  0.00  0.00    +0.017 A 
ATOM      5  C   UNL     1      -3.911  -4.837  -4.488  0.00  0.00    +0.055 A 
ATOM      6  C   UNL     1      -3.934  -4.154  -5.691  0.00  0.00    +0.014 A 
ATOM      7  C   UNL     1      -4.539  -2.915  -5.770  0.00  0.00    +0.024 A 
ATOM      8  C   UNL     1      -5.125  -2.354  -4.639  0.00  0.00    +0.033 A 
ATOM      9  N   UNL     1      -5.743  -1.099  -4.753  0.00  0.00    -0.329 N 
ATOM     10  C   UNL     1      -6.440  -0.522  -3.614  0.00  0.00    +0.069 C 
ATOM     11  C   UNL     1      -6.541   0.994  -3.671  0.00  0.00    -0.055 C 
ATOM     12  N   UNL     1      -6.785   1.475  -5.030  0.00  0.00    +0.384 N 
ATOM     13  C   UNL     1      -5.653   1.084  -5.883  0.00  0.00    -0.059 C 
ATOM     14  C   UNL     1      -5.679  -0.432  -6.057  0.00  0.00    +0.087 C 
ATOM     15  H   UNL     1      -7.635   1.064  -5.386  0.00  0.00    -0.082 HD
ENDROOT
BRANCH   1  17
ATOM     16  N   UNL     1      -3.510  -0.638  -1.275  0.00  0.00    -0.315 N 
ATOM     17  C   UNL     1      -4.323  -0.403  -2.324  0.00  0.00    +0.218 C 
ATOM     18  O   UNL     1      -3.916   0.228  -3.277  0.00  0.00    -0.275 OA
ATOM     19  H   UNL     1      -3.834  -1.143  -0.513  0.00  0.00    +0.149 HD
BRANCH  16  20
ATOM     20  C   UNL     1      -2.135  -0.131  -1.286  0.00  0.00    +0.104 C 
BRANCH  20  21
ATOM     21  C   UNL     1      -1.433  -0.534   0.013  0.00  0.00    +0.022 C 
BRANCH  21  23
ATOM     22  C   UNL     1      -0.019   1.526   0.010  0.00  0.00    +0.007 C 
ATOM     23  C   UNL     1       0.002  -0.004   0.002  0.00  0.00    -0.016 C 
ATOM     24  C   UNL     1       0.742  -0.511   1.242  0.00  0.00    +0.007 C 
ENDBRANCH  21  23
ENDBRANCH  20  21
ENDBRANCH  16  20
ENDBRANCH   1  17
BRANCH   5  25
ATOM     25  C   UNL     1      -3.252  -6.189  -4.404  0.00  0.00    +0.417 C 
ATOM     26  F   UNL     1      -4.194  -7.185  -4.684  0.00  0.00    -0.166 F 
ATOM     27  F   UNL     1      -2.210  -6.259  -5.335  0.00  0.00    -0.166 F 
ATOM     28  F   UNL     1      -2.741  -6.380  -3.116  0.00  0.00    -0.166 F 
ENDBRANCH   5  25
BRANCH  12  29
ATOM     29  C   UNL     1      -6.911   2.939  -5.019  0.00  0.00    -0.037 C 
BRANCH  29  30
ATOM     30  C   UNL     1      -7.289   3.429  -6.418  0.00  0.00    +0.210 C 
BRANCH  30  31
ATOM     31  O   UNL     1      -8.588   2.941  -6.758  0.00  0.00    -0.494 OA
BRANCH  31  32
ATOM     32  C   UNL     1      -9.078   3.288  -7.978  0.00  0.00    +0.120 A 
ATOM     33  C   UNL     1      -8.321   4.077  -8.831  0.00  0.00    +0.045 A 
ATOM     34  C   UNL     1      -8.820   4.428 -10.070  0.00  0.00    +0.004 A 
ATOM     35  C   UNL     1     -10.074   3.994 -10.460  0.00  0.00    +0.000 A 
ATOM     36  C   UNL     1     -10.830   3.207  -9.611  0.00  0.00    +0.004 A 
ATOM     37  C   UNL     1     -10.333   2.849  -8.373  0.00  0.00    +0.045 A 
ENDBRANCH  31  32
ENDBRANCH  30  31
ENDBRANCH  29  30
ENDBRANCH  12  29
TORSDOF 9
