REMARK  Name = ZINC41678626
REMARK  6 active torsions:
REMARK  status: ('A' for Active; 'I' for Inactive)
REMARK    1  A    between atoms: C_5  and  CA_6
REMARK    2  A    between atoms: CA_6  and  C_8
REMARK    3  A    between atoms: CA_6  and  N_10
REMARK    4  A    between atoms: C_8  and  O_9
REMARK    5  A    between atoms: N_10  and  C_11
REMARK    6  A    between atoms: C_11  and  C_12
REMARK                            x       y       z     vdW  Elec       q    Type
REMARK                         _______ _______ _______ _____ _____    ______ ____
ROOT
ATOM      1  CA  UNL     1      -1.156  -0.969   0.008  0.00  0.00    -0.008 C 
ENDROOT
BRANCH   1   6
ATOM      2  C   UNL     1      -0.016   1.351   0.009  0.00  0.00    +0.025 A 
ATOM      3  C   UNL     1       1.184   2.038   0.002  0.00  0.00    +0.025 A 
ATOM      4  C   UNL     1       2.343   1.335  -0.013  0.00  0.00    +0.060 A 
ATOM      5  S   UNL     1       1.753  -0.350  -0.017  0.00  0.00    -0.102 S 
ATOM      6  C   UNL     1       0.002  -0.004   0.002  0.00  0.00    -0.021 A 
ATOM      7 BR   UNL     1       1.208   3.929   0.011  0.00  0.00    -0.050 Br
ENDBRANCH   1   6
BRANCH   1   8
ATOM      8  N   UNL     1      -0.862  -2.093  -0.891  0.00  0.00    +0.387 N 
ATOM      9  H1  UNL     1      -0.637  -1.739  -1.809  0.00  0.00    -0.085 HD
ATOM     10  H2  UNL     1      -0.077  -2.615  -0.531  0.00  0.00    -0.085 HD
BRANCH   8  11
ATOM     11  C   UNL     1      -2.036  -2.971  -0.978  0.00  0.00    -0.050 C 
BRANCH  11  12
ATOM     12  C   UNL     1      -1.730  -4.141  -1.914  0.00  0.00    +0.101 C 
ATOM     13  C   UNL     1      -2.969  -5.062  -2.047  0.00  0.00    +0.032 C 
ATOM     14  C   UNL     1      -2.700  -5.719  -3.429  0.00  0.00    +0.030 C 
ATOM     15  C   UNL     1      -2.009  -4.578  -4.206  0.00  0.00    +0.160 C 
ATOM     16  O   UNL     1      -1.472  -3.662  -3.244  0.00  0.00    -0.378 OA
ENDBRANCH  11  12
ENDBRANCH   8  11
ENDBRANCH   1   8
BRANCH   1  17
ATOM     17  C   UNL     1      -1.373  -1.495   1.428  0.00  0.00    +0.145 C 
BRANCH  17  18
ATOM     18  O   UNL     1      -0.156  -2.062   1.917  0.00  0.00    -0.396 OA
ATOM     19  H   UNL     1      -0.220  -2.417   2.815  0.00  0.00    +0.209 HD
ENDBRANCH  17  18
ENDBRANCH   1  17
TORSDOF 6
