REMARK  Name = ZINC67216024
REMARK  11 active torsions:
REMARK  status: ('A' for Active; 'I' for Inactive)
REMARK    1  A    between atoms: C_1  and  N_2
REMARK    2  A    between atoms: C_3  and  C_5
REMARK    3  A    between atoms: C_5  and  O_6
REMARK    4  A    between atoms: O_6  and  C_7
REMARK    5  A    between atoms: C_12  and  C_13
REMARK    6  A    between atoms: C_13  and  N_14
REMARK    7  A    between atoms: N_14  and  C_15
REMARK    8  A    between atoms: C_15  and  C_16
REMARK    9  A    between atoms: C_16  and  C_17
REMARK   10  A    between atoms: C_17  and  C_18
REMARK   11  A    between atoms: N_20  and  C_21
REMARK                            x       y       z     vdW  Elec       q    Type
REMARK                         _______ _______ _______ _____ _____    ______ ____
ROOT
ATOM      1  N   UNL     1      -5.385  -3.208  -1.329  0.00  0.00    +0.382 N 
ATOM      2  H   UNL     1      -4.585  -2.686  -1.653  0.00  0.00    -0.085 HD
ATOM      3  H   UNL     1      -5.552  -3.987  -1.948  0.00  0.00    -0.085 HD
ENDROOT
BRANCH   1   4
ATOM      4  C   UNL     1      -5.128  -3.706   0.028  0.00  0.00    -0.043 C 
BRANCH   4  10
ATOM      5  C   UNL     1      -2.645  -4.051   0.013  0.00  0.00    +0.123 A 
ATOM      6  C   UNL     1      -1.532  -4.880   0.004  0.00  0.00    +0.046 A 
ATOM      7  C   UNL     1      -1.693  -6.251  -0.009  0.00  0.00    +0.004 A 
ATOM      8  C   UNL     1      -2.963  -6.799  -0.014  0.00  0.00    +0.000 A 
ATOM      9  C   UNL     1      -4.074  -5.976  -0.006  0.00  0.00    +0.005 A 
ATOM     10  C   UNL     1      -3.917  -4.603   0.013  0.00  0.00    -0.023 A 
BRANCH   5  11
ATOM     11  O   UNL     1      -2.488  -2.701   0.026  0.00  0.00    -0.483 OA
BRANCH  11  12
ATOM     12  C   UNL     1      -1.149  -2.203   0.025  0.00  0.00    +0.324 C 
BRANCH  12  15
ATOM     13  C   UNL     1      -0.041   1.461   0.059  0.00  0.00    +0.128 C 
ATOM     14  N   UNL     1      -0.017  -0.004   0.043  0.00  0.00    -0.316 N 
ATOM     15  C   UNL     1      -1.173  -0.696   0.041  0.00  0.00    +0.250 C 
ATOM     16  O   UNL     1      -2.233  -0.107   0.053  0.00  0.00    -0.272 OA
ATOM     17  H   UNL     1       0.831  -0.475   0.034  0.00  0.00    +0.148 HD
ENDBRANCH  12  15
ENDBRANCH  11  12
ENDBRANCH   5  11
ENDBRANCH   4  10
ENDBRANCH   1   4
BRANCH   1  18
ATOM     18  C   UNL     1      -6.566  -2.333  -1.315  0.00  0.00    -0.082 C 
BRANCH  18  19
ATOM     19  C   UNL     1      -6.833  -1.814  -2.729  0.00  0.00    -0.010 C 
BRANCH  19  20
ATOM     20  C   UNL     1      -8.063  -0.903  -2.713  0.00  0.00    +0.094 C 
BRANCH  20  21
ATOM     21  C   UNL     1      -8.326  -0.392  -4.106  0.00  0.00    +0.217 C 
ATOM     22  O   UNL     1      -7.602  -0.723  -5.021  0.00  0.00    -0.275 OA
ATOM     23  N   UNL     1      -9.367   0.433  -4.335  0.00  0.00    -0.285 N 
ATOM     24  H   UNL     1      -9.985   0.645  -3.618  0.00  0.00    +0.155 HD
BRANCH  23  25
ATOM     25  C   UNL     1      -9.555   0.986  -5.608  0.00  0.00    +0.033 A 
ATOM     26  C   UNL     1     -10.053   2.275  -5.739  0.00  0.00    +0.025 A 
ATOM     27  C   UNL     1     -10.238   2.818  -6.996  0.00  0.00    +0.022 A 
ATOM     28  C   UNL     1      -9.928   2.077  -8.123  0.00  0.00    +0.041 A 
ATOM     29  C   UNL     1      -9.431   0.792  -7.995  0.00  0.00    +0.022 A 
ATOM     30  C   UNL     1      -9.239   0.247  -6.740  0.00  0.00    +0.025 A 
ATOM     31 CL   UNL     1     -10.162   2.762  -9.701  0.00  0.00    -0.084 Cl
ENDBRANCH  23  25
ENDBRANCH  20  21
ENDBRANCH  19  20
ENDBRANCH  18  19
ENDBRANCH   1  18
TORSDOF 10
