REMARK  Name = ZINC42813957
REMARK  4 active torsions:
REMARK  status: ('A' for Active; 'I' for Inactive)
REMARK    1  A    between atoms: C_8  and  N_13
REMARK    2  A    between atoms: C_9  and  N_12
REMARK    3  A    between atoms: N_13  and  C_14
REMARK    4  A    between atoms: C_14  and  C_15
REMARK                            x       y       z     vdW  Elec       q    Type
REMARK                         _______ _______ _______ _____ _____    ______ ____
ROOT
ATOM      1  C   UNL     1       8.738   1.655  -6.347  0.00  0.00    +0.017 A 
ATOM      2  C   UNL     1       7.581   1.695  -7.062  0.00  0.00    +0.027 A 
ATOM      3  C   UNL     1       6.449   1.002  -6.598  0.00  0.00    +0.048 A 
ATOM      4  C   UNL     1       6.538   0.273  -5.387  0.00  0.00    +0.022 A 
ATOM      5  C   UNL     1       7.746   0.253  -4.675  0.00  0.00    +0.027 A 
ATOM      6  C   UNL     1       8.823   0.937  -5.156  0.00  0.00    +0.019 A 
ATOM      7 BR   UNL     1      10.452   0.911  -4.196  0.00  0.00    -0.050 Br
ATOM      8  C   UNL     1       5.400  -0.423  -4.921  0.00  0.00    +0.059 A 
ATOM      9  C   UNL     1       4.239  -0.355  -5.683  0.00  0.00    +0.062 A 
ATOM     10  C   UNL     1       4.234   0.384  -6.864  0.00  0.00    +0.107 A 
ATOM     11  N   UNL     1       5.300   1.025  -7.283  0.00  0.00    -0.359 N 
ATOM     12  H   UNL     1       5.254   1.529  -8.110  0.00  0.00    +0.165 HD
ENDROOT
BRANCH   9  13
ATOM     13  N   UNL     1       3.081  -1.028  -5.266  0.00  0.00    -0.355 N 
ATOM     14  H   UNL     1       3.060  -1.466  -4.401  0.00  0.00    +0.142 HD
ATOM     15  H   UNL     1       2.302  -1.055  -5.843  0.00  0.00    +0.142 HD
ENDBRANCH   9  13
BRANCH   8  16
ATOM     16  N   UNL     1       5.440  -1.153  -3.737  0.00  0.00    -0.339 N 
ATOM     17  H   UNL     1       5.793  -2.056  -3.736  0.00  0.00    +0.146 HD
BRANCH  16  18
ATOM     18  C   UNL     1       4.949  -0.557  -2.492  0.00  0.00    +0.133 C 
BRANCH  18  19
ATOM     19  C   UNL     1       6.087  -0.500  -1.470  0.00  0.00    +0.135 C 
ATOM     20  C   UNL     1       5.545   0.006  -0.131  0.00  0.00    +0.033 C 
ATOM     21  C   UNL     1       6.700   0.117   0.869  0.00  0.00    +0.005 C 
ATOM     22  C   UNL     1       7.776   1.042   0.289  0.00  0.00    +0.028 C 
ATOM     23  C   UNL     1       8.231   0.495  -1.066  0.00  0.00    +0.160 C 
ATOM     24  O   UNL     1       7.104   0.387  -1.938  0.00  0.00    -0.375 OA
ENDBRANCH  18  19
ENDBRANCH  16  18
ENDBRANCH   8  16
TORSDOF 4
