REMARK  Name = ZINC36192157
REMARK  7 active torsions:
REMARK  status: ('A' for Active; 'I' for Inactive)
REMARK    1  A    between atoms: C_1  and  N_2
REMARK    2  A    between atoms: N_2  and  C_3
REMARK    3  A    between atoms: N_2  and  C_4
REMARK    4  A    between atoms: N_7  and  C_10
REMARK    5  A    between atoms: C_10  and  C_11
REMARK    6  A    between atoms: C_13  and  C_18
REMARK    7  A    between atoms: C_18  and  N_20
REMARK                            x       y       z     vdW  Elec       q    Type
REMARK                         _______ _______ _______ _____ _____    ______ ____
ROOT
ATOM      1  C   UNL     1       0.400  -2.163   6.047  0.00  0.00    +0.002 A 
ATOM      2  C   UNL     1       0.769  -1.059   6.785  0.00  0.00    +0.018 A 
ATOM      3  C   UNL     1      -0.012  -0.656   7.871  0.00  0.00    +0.003 A 
ATOM      4  C   UNL     1      -1.162  -1.376   8.203  0.00  0.00    +0.013 A 
ATOM      5  C   UNL     1      -1.521  -2.478   7.458  0.00  0.00    +0.039 A 
ATOM      6  C   UNL     1      -0.745  -2.871   6.377  0.00  0.00    +0.128 A 
ATOM      7  F   UNL     1      -1.104  -3.949   5.647  0.00  0.00    -0.205 F 
ENDROOT
BRANCH   3   8
ATOM      8  C   UNL     1       0.378   0.525   8.665  0.00  0.00    +0.077 C 
ATOM      9  S   UNL     1       1.115   1.867   7.899  0.00  0.00    -0.035 S 
BRANCH   8  10
ATOM     10  N   UNL     1       0.153   0.547   9.994  0.00  0.00    -0.352 N 
ATOM     11  H   UNL     1      -0.265  -0.213  10.428  0.00  0.00    +0.143 HD
ATOM     12  H   UNL     1       0.409   1.324  10.516  0.00  0.00    +0.143 HD
ENDBRANCH   8  10
ENDBRANCH   3   8
BRANCH   1  13
ATOM     13  C   UNL     1       1.241  -2.599   4.874  0.00  0.00    +0.122 C 
BRANCH  13  17
ATOM     14  C   UNL     1       0.314  -1.170   0.953  0.00  0.00    -0.067 C 
ATOM     15  C   UNL     1       0.316  -2.676   1.225  0.00  0.00    +0.000 C 
ATOM     16  C   UNL     1       1.140  -2.961   2.483  0.00  0.00    +0.083 C 
ATOM     17  N   UNL     1       0.560  -2.240   3.623  0.00  0.00    -0.298 NA
ATOM     18  C   UNL     1       0.590  -0.788   3.405  0.00  0.00    +0.083 C 
ATOM     19  C   UNL     1      -0.250  -0.439   2.174  0.00  0.00    +0.000 C 
BRANCH  14  21
ATOM     20  C   UNL     1      -0.531   0.563  -0.476  0.00  0.00    -0.096 C 
ATOM     21  N   UNL     1      -0.524  -0.884  -0.220  0.00  0.00    +0.378 N 
ATOM     22  C   UNL     1       0.018  -1.586  -1.391  0.00  0.00    -0.096 C 
ATOM     23  H   UNL     1      -1.466  -1.199  -0.045  0.00  0.00    -0.082 HD
ENDBRANCH  14  21
ENDBRANCH  13  17
ENDBRANCH   1  13
TORSDOF 5
