REMARK  Name = ZINC67486459
REMARK  9 active torsions:
REMARK  status: ('A' for Active; 'I' for Inactive)
REMARK    1  A    between atoms: C_1  and  C_2
REMARK    2  A    between atoms: N_5  and  C_8
REMARK    3  A    between atoms: C_8  and  C_9
REMARK    4  A    between atoms: C_9  and  C_11
REMARK    5  A    between atoms: C_9  and  O_28
REMARK    6  A    between atoms: C_11  and  N_12
REMARK    7  A    between atoms: C_15  and  C_18
REMARK    8  A    between atoms: C_18  and  C_20
REMARK    9  A    between atoms: C_18  and  O_27
REMARK                            x       y       z     vdW  Elec       q    Type
REMARK                         _______ _______ _______ _____ _____    ______ ____
ROOT
ATOM      1  N   UNL     1       0.527  -6.332   4.082  0.00  0.00    -0.300 NA
ATOM      2  C   UNL     1       1.931  -5.910   4.176  0.00  0.00    +0.085 C 
ATOM      3  C   UNL     1       2.470  -6.232   5.571  0.00  0.00    +0.022 C 
ATOM      4  C   UNL     1       2.353  -7.737   5.824  0.00  0.00    +0.024 C 
ATOM      5  C   UNL     1       0.889  -8.159   5.673  0.00  0.00    +0.022 C 
ATOM      6  C   UNL     1       0.395  -7.782   4.275  0.00  0.00    +0.085 C 
ENDROOT
BRANCH   1   7
ATOM      7  C   UNL     1      -0.065  -5.914   2.804  0.00  0.00    +0.113 C 
BRANCH   7   8
ATOM      8  C   UNL     1      -0.134  -4.387   2.750  0.00  0.00    +0.112 C 
BRANCH   8   9
ATOM      9  O   UNL     1      -0.941  -3.908   3.828  0.00  0.00    -0.392 OA
ATOM     10  H   UNL     1      -1.850  -4.235   3.814  0.00  0.00    +0.210 HD
ENDBRANCH   8   9
BRANCH   8  11
ATOM     11  C   UNL     1      -0.750  -3.952   1.419  0.00  0.00    -0.046 C 
BRANCH  11  16
ATOM     12  C   UNL     1      -0.019   1.526   0.010  0.00  0.00    +0.007 C 
ATOM     13  C   UNL     1       0.002  -0.004   0.002  0.00  0.00    -0.018 C 
ATOM     14  C   UNL     1      -1.434  -0.536   0.023  0.00  0.00    -0.016 C 
ATOM     15  C   UNL     1      -1.405  -2.064   0.095  0.00  0.00    -0.078 C 
ATOM     16  N   UNL     1      -0.707  -2.487   1.315  0.00  0.00    +0.381 N 
ATOM     17  C   UNL     1       0.691  -2.042   1.269  0.00  0.00    -0.078 C 
ATOM     18  C   UNL     1       0.743  -0.513   1.242  0.00  0.00    -0.016 C 
ATOM     19  H   UNL     1      -1.162  -2.082   2.119  0.00  0.00    -0.082 HD
ENDBRANCH  11  16
ENDBRANCH   8  11
ENDBRANCH   7   8
ENDBRANCH   1   7
BRANCH   4  20
ATOM     20  C   UNL     1       2.834  -8.057   7.240  0.00  0.00    +0.148 C 
BRANCH  20  21
ATOM     21  C   UNL     1       2.718  -9.539   7.488  0.00  0.00    -0.019 A 
ATOM     22  C   UNL     1       3.739 -10.386   7.098  0.00  0.00    +0.007 A 
ATOM     23  C   UNL     1       3.633 -11.746   7.324  0.00  0.00    +0.020 A 
ATOM     24  C   UNL     1       2.506 -12.258   7.941  0.00  0.00    +0.041 A 
ATOM     25  C   UNL     1       1.485 -11.410   8.331  0.00  0.00    +0.020 A 
ATOM     26  C   UNL     1       1.594 -10.050   8.109  0.00  0.00    +0.007 A 
ATOM     27 CL   UNL     1       2.372 -13.966   8.226  0.00  0.00    -0.084 Cl
ENDBRANCH  20  21
BRANCH  20  28
ATOM     28  O   UNL     1       4.198  -7.656   7.382  0.00  0.00    -0.387 OA
ATOM     29  H   UNL     1       4.803  -8.096   6.769  0.00  0.00    +0.210 HD
ENDBRANCH  20  28
ENDBRANCH   4  20
TORSDOF 8
