REMARK  Name = ZINC36011801
REMARK  7 active torsions:
REMARK  status: ('A' for Active; 'I' for Inactive)
REMARK    1  A    between atoms: C_1  and  C_2
REMARK    2  A    between atoms: C_2  and  P_18
REMARK    3  A    between atoms: C_4  and  N_12
REMARK    4  A    between atoms: C_4  and  P_14
REMARK    5  A    between atoms: N_12  and  C_13
REMARK    6  A    between atoms: P_14  and  O_17
REMARK    7  A    between atoms: P_18  and  O_21
REMARK                            x       y       z     vdW  Elec       q    Type
REMARK                         _______ _______ _______ _____ _____    ______ ____
ROOT
ATOM      1  C   UNL     1       0.735   0.489   0.502  0.00  0.00    +0.037 C 
ATOM      2  C   UNL     1       0.324  -0.973   0.321  0.00  0.00    +0.174 C 
ATOM      3  C   UNL     1      -1.179  -1.141   0.237  0.00  0.00    +0.043 C 
ATOM      4  C   UNL     1      -2.045  -0.819   1.434  0.00  0.00    +0.145 C 
ATOM      5  P   UNL     1      -1.570  -1.808   2.898  0.00  0.00    +0.368 P 
ATOM      6  O   UNL     1      -2.054  -3.266   2.735  0.00  0.00    -0.257 OA
ATOM      7  O   UNL     1       0.062  -1.762   2.969  0.00  0.00    -0.227 OA
ATOM      8  P   UNL     1       1.038  -1.976   1.675  0.00  0.00    +0.384 P 
ATOM      9  O   UNL     1       2.467  -1.487   2.001  0.00  0.00    -0.255 OA
ATOM     10  O   UNL     1       1.067  -3.468   1.273  0.00  0.00    -0.139 OA
ATOM     11  O   UNL     1      -2.175  -1.189   4.178  0.00  0.00    -0.141 OA
ENDROOT
BRANCH   4  12
ATOM     12  N   UNL     1      -3.445  -1.180   1.085  0.00  0.00    +0.397 N 
ATOM     13  C   UNL     1      -4.335  -0.823   2.198  0.00  0.00    -0.098 C 
ATOM     14  H   UNL     1      -3.725  -0.678   0.256  0.00  0.00    -0.084 HD
ATOM     15  H   UNL     1      -3.503  -2.173   0.913  0.00  0.00    -0.084 HD
ENDBRANCH   4  12
BRANCH   4  16
ATOM     16  P   UNL     1      -2.025   0.953   1.853  0.00  0.00    +0.359 P 
ATOM     17  O   UNL     1      -0.590   1.373   2.244  0.00  0.00    -0.257 OA
ATOM     18  O   UNL     1      -2.487   1.776   0.630  0.00  0.00    -0.142 OA
BRANCH  16  19
ATOM     19  O   UNL     1      -3.019   1.224   3.089  0.00  0.00    -0.323 OA
ATOM     20  H   UNL     1      -3.059   2.149   3.367  0.00  0.00    +0.220 HD
ENDBRANCH  16  19
ENDBRANCH   4  16
BRANCH   2  21
ATOM     21  P   UNL     1       1.050  -1.558  -1.262  0.00  0.00    +0.375 P 
ATOM     22  O   UNL     1       0.769  -3.068  -1.430  0.00  0.00    -0.255 OA
ATOM     23  O   UNL     1       0.415  -0.782  -2.438  0.00  0.00    -0.140 OA
BRANCH  21  24
ATOM     24  O   UNL     1       2.640  -1.307  -1.248  0.00  0.00    -0.322 OA
ATOM     25  H   UNL     1       3.090  -1.593  -2.055  0.00  0.00    +0.220 HD
ENDBRANCH  21  24
ENDBRANCH   2  21
TORSDOF 5
