REMARK  Name = ZINC66566582
REMARK  7 active torsions:
REMARK  status: ('A' for Active; 'I' for Inactive)
REMARK    1  A    between atoms: C_1  and  C_2
REMARK    2  A    between atoms: C_7  and  N_10
REMARK    3  A    between atoms: C_11  and  C_13
REMARK    4  A    between atoms: C_13  and  N_14
REMARK    5  A    between atoms: N_17  and  C_20
REMARK    6  A    between atoms: C_20  and  C_21
REMARK    7  A    between atoms: C_21  and  C_22
REMARK                            x       y       z     vdW  Elec       q    Type
REMARK                         _______ _______ _______ _____ _____    ______ ____
ROOT
ATOM      1  N   UNL     1       1.472  -5.609   4.456  0.00  0.00    -0.298 NA
ATOM      2  C   UNL     1       0.064  -5.596   4.876  0.00  0.00    +0.066 C 
ATOM      3  C   UNL     1      -0.397  -7.029   5.150  0.00  0.00    -0.063 C 
ATOM      4  N   UNL     1       0.441  -7.620   6.202  0.00  0.00    +0.382 N 
ATOM      5  C   UNL     1       1.841  -7.649   5.757  0.00  0.00    -0.063 C 
ATOM      6  C   UNL     1       2.320  -6.220   5.489  0.00  0.00    +0.066 C 
ATOM      7  H   UNL     1       0.367  -7.067   7.042  0.00  0.00    -0.082 HD
ENDROOT
BRANCH   1   8
ATOM      8  C   UNL     1       1.936  -4.254   4.128  0.00  0.00    +0.180 C 
BRANCH   8  10
ATOM      9  N   UNL     1       1.471  -2.526   2.420  0.00  0.00    -0.311 N 
ATOM     10  C   UNL     1       1.207  -3.754   2.907  0.00  0.00    +0.227 C 
ATOM     11  O   UNL     1       0.382  -4.458   2.364  0.00  0.00    -0.274 OA
ATOM     12  H   UNL     1       2.131  -1.963   2.855  0.00  0.00    +0.149 HD
BRANCH   9  18
ATOM     13  C   UNL     1      -0.019   1.526   0.010  0.00  0.00    +0.007 C 
ATOM     14  C   UNL     1       0.002  -0.004   0.002  0.00  0.00    -0.012 C 
ATOM     15  C   UNL     1       0.718  -0.497  -1.257  0.00  0.00    +0.003 C 
ATOM     16  C   UNL     1       0.739  -2.027  -1.265  0.00  0.00    +0.002 C 
ATOM     17  C   UNL     1       1.479  -2.534  -0.026  0.00  0.00    +0.022 C 
ATOM     18  C   UNL     1       0.763  -2.041   1.233  0.00  0.00    +0.073 C 
ATOM     19  C   UNL     1       0.742  -0.511   1.242  0.00  0.00    +0.025 C 
ENDBRANCH   9  18
ENDBRANCH   8  10
ENDBRANCH   1   8
BRANCH   4  20
ATOM     20  C   UNL     1      -0.013  -8.990   6.477  0.00  0.00    -0.069 C 
BRANCH  20  21
ATOM     21  C   UNL     1       0.777  -9.562   7.656  0.00  0.00    +0.078 C 
BRANCH  21  22
ATOM     22  C   UNL     1       0.312 -10.967   7.938  0.00  0.00    +0.219 C 
ATOM     23  O   UNL     1      -0.565 -11.463   7.263  0.00  0.00    -0.275 OA
ATOM     24  N   UNL     1       0.870 -11.673   8.941  0.00  0.00    -0.240 N 
ATOM     25  C   UNL     1       0.454 -12.930   9.194  0.00  0.00    +0.303 C 
ATOM     26  O   UNL     1      -0.425 -13.427   8.517  0.00  0.00    -0.253 OA
ATOM     27  N   UNL     1       1.012 -13.636  10.197  0.00  0.00    -0.313 N 
ATOM     28  H   UNL     1       1.571 -11.277   9.482  0.00  0.00    +0.159 HD
ATOM     29  H   UNL     1       1.713 -13.240  10.737  0.00  0.00    +0.146 HD
ATOM     30  H   UNL     1       0.712 -14.541  10.379  0.00  0.00    +0.146 HD
ENDBRANCH  21  22
ENDBRANCH  20  21
ENDBRANCH   4  20
TORSDOF 6
