REMARK  Name = ZINC35226539
REMARK  14 active torsions:
REMARK  status: ('A' for Active; 'I' for Inactive)
REMARK    1  A    between atoms: C_1  and  C_2
REMARK    2  A    between atoms: C_2  and  C_3
REMARK    3  A    between atoms: C_2  and  C_4
REMARK    4  A    between atoms: C_2  and  C_5
REMARK    5  A    between atoms: C_8  and  C_11
REMARK    6  A    between atoms: C_11  and  N_12
REMARK    7  A    between atoms: N_12  and  C_13
REMARK    8  A    between atoms: N_12  and  C_31
REMARK    9  A    between atoms: C_13  and  C_14
REMARK   10  A    between atoms: C_17  and  C_19
REMARK   11  A    between atoms: N_21  and  C_22
REMARK   12  A    between atoms: C_22  and  C_23
REMARK   13  A    between atoms: C_23  and  C_24
REMARK   14  A    between atoms: C_24  and  N_25
REMARK                            x       y       z     vdW  Elec       q    Type
REMARK                         _______ _______ _______ _____ _____    ______ ____
ROOT
ATOM      1  N   UNL     1       1.875  -1.490  -6.011  0.00  0.00    +0.389 N 
ATOM      2  H   UNL     1       1.034  -1.463  -6.568  0.00  0.00    -0.080 HD
ENDROOT
BRANCH   1   3
ATOM      3  C   UNL     1       1.888  -0.347  -5.088  0.00  0.00    -0.068 C 
ATOM      4  C   UNL     1       3.242  -0.280  -4.379  0.00  0.00    -0.015 C 
ATOM      5  C   UNL     1       3.255   0.910  -3.417  0.00  0.00    -0.002 C 
ATOM      6  C   UNL     1       3.026   2.203  -4.203  0.00  0.00    -0.000 C 
ATOM      7  C   UNL     1       1.673   2.136  -4.912  0.00  0.00    -0.002 C 
ATOM      8  C   UNL     1       1.659   0.946  -5.874  0.00  0.00    -0.015 C 
ENDBRANCH   1   3
BRANCH   1   9
ATOM      9  C   UNL     1       1.915  -2.741  -5.243  0.00  0.00    -0.042 C 
BRANCH   9  13
ATOM     10  C   UNL     1      -1.741  -3.204  -3.082  0.00  0.00    -0.042 A 
ATOM     11  C   UNL     1      -1.683  -3.537  -4.423  0.00  0.00    +0.004 A 
ATOM     12  C   UNL     1      -0.500  -3.387  -5.122  0.00  0.00    +0.002 A 
ATOM     13  C   UNL     1       0.625  -2.903  -4.481  0.00  0.00    -0.064 A 
ATOM     14  C   UNL     1       0.567  -2.569  -3.141  0.00  0.00    +0.002 A 
ATOM     15  C   UNL     1      -0.617  -2.715  -2.442  0.00  0.00    +0.004 A 
BRANCH  10  17
ATOM     16  C   UNL     1      -3.477  -2.009  -1.775  0.00  0.00    +0.015 C 
ATOM     17  C   UNL     1      -3.030  -3.368  -2.320  0.00  0.00    -0.013 C 
ATOM     18  C   UNL     1      -2.816  -4.338  -1.157  0.00  0.00    +0.015 C 
ATOM     19  C   UNL     1      -4.108  -3.921  -3.254  0.00  0.00    +0.015 C 
ENDBRANCH  10  17
ENDBRANCH   9  13
ENDBRANCH   1   9
BRANCH   1  20
ATOM     20  C   UNL     1       3.047  -1.419  -6.894  0.00  0.00    -0.002 C 
BRANCH  20  21
ATOM     21  C   UNL     1       2.871  -0.289  -7.875  0.00  0.00    +0.090 A 
ATOM     22  C   UNL     1       3.748   0.717  -8.083  0.00  0.00    +0.043 A 
ATOM     23  C   UNL     1       3.200   1.546  -9.074  0.00  0.00    +0.055 A 
ATOM     24  C   UNL     1       2.000   0.996  -9.425  0.00  0.00    +0.189 A 
ATOM     25  O   UNL     1       1.821  -0.120  -8.689  0.00  0.00    -0.457 OA
BRANCH  24  26
ATOM     26  C   UNL     1       1.071   1.525 -10.429  0.00  0.00    +0.279 C 
ATOM     27  O   UNL     1       1.345   2.544 -11.035  0.00  0.00    -0.267 OA
ATOM     28  N   UNL     1      -0.086   0.882 -10.681  0.00  0.00    -0.309 N 
ATOM     29  H   UNL     1      -0.305   0.069 -10.198  0.00  0.00    +0.149 HD
BRANCH  28  30
ATOM     30  C   UNL     1      -1.014   1.410 -11.684  0.00  0.00    +0.106 C 
BRANCH  30  31
ATOM     31  C   UNL     1      -2.240   0.499 -11.775  0.00  0.00    +0.034 C 
BRANCH  31  32
ATOM     32  C   UNL     1      -3.209   1.050 -12.822  0.00  0.00    +0.086 C 
BRANCH  32  33
ATOM     33  N   UNL     1      -4.386   0.175 -12.909  0.00  0.00    -0.298 NA
ATOM     34  C   UNL     1      -4.022  -1.146 -13.440  0.00  0.00    +0.112 C 
ATOM     35  C   UNL     1      -5.263  -2.043 -13.458  0.00  0.00    +0.175 C 
ATOM     36  O   UNL     1      -6.289  -1.413 -14.230  0.00  0.00    -0.377 OA
ATOM     37  C   UNL     1      -6.669  -0.124 -13.740  0.00  0.00    +0.175 C 
ATOM     38  C   UNL     1      -5.442   0.792 -13.725  0.00  0.00    +0.112 C 
ENDBRANCH  32  33
ENDBRANCH  31  32
ENDBRANCH  30  31
ENDBRANCH  28  30
ENDBRANCH  24  26
ENDBRANCH  20  21
ENDBRANCH   1  20
TORSDOF 11
