REMARK  Name = ZINC63515131
REMARK  8 active torsions:
REMARK  status: ('A' for Active; 'I' for Inactive)
REMARK    1  A    between atoms: C_1  and  C_2
REMARK    2  A    between atoms: C_5  and  N_8
REMARK    3  A    between atoms: C_10  and  C_16
REMARK    4  A    between atoms: C_12  and  C_14
REMARK    5  A    between atoms: C_14  and  O_15
REMARK    6  A    between atoms: N_18  and  C_19
REMARK    7  A    between atoms: C_19  and  C_20
REMARK    8  A    between atoms: C_20  and  C_21
REMARK                            x       y       z     vdW  Elec       q    Type
REMARK                         _______ _______ _______ _____ _____    ______ ____
ROOT
ATOM      1  N   UNL     1       0.057  -4.167  -0.021  0.00  0.00    -0.156 N 
ATOM      2  N   UNL     1       0.068  -4.952   1.099  0.00  0.00    -0.202 NA
ATOM      3  C   UNL     1       0.085  -6.344   0.603  0.00  0.00    +0.208 C 
ATOM      4  C   UNL     1       0.083  -6.202  -0.903  0.00  0.00    +0.091 C 
ATOM      5  N   UNL     1       0.061  -4.954  -1.170  0.00  0.00    -0.169 NA
ATOM      6  H   UNL     1      -0.748  -4.781   1.668  0.00  0.00    +0.148 HD
ENDROOT
BRANCH   1  11
ATOM      7  C   UNL     1      -0.018   1.503   0.010  0.00  0.00    +0.044 C 
ATOM      8  C   UNL     1       0.002  -0.004   0.002  0.00  0.00    -0.050 A 
ATOM      9  C   UNL     1       0.006  -0.687  -1.200  0.00  0.00    +0.005 A 
ATOM     10  C   UNL     1       0.024  -2.068  -1.212  0.00  0.00    +0.027 A 
ATOM     11  C   UNL     1       0.039  -2.771  -0.013  0.00  0.00    +0.069 A 
ATOM     12  C   UNL     1       0.036  -2.081   1.193  0.00  0.00    +0.027 A 
ATOM     13  C   UNL     1       0.023  -0.700   1.197  0.00  0.00    +0.005 A 
ENDBRANCH   1  11
BRANCH   3  14
ATOM     14  C   UNL     1       1.332  -7.053   1.067  0.00  0.00    +0.237 C 
ATOM     15  O   UNL     1       2.288  -6.411   1.449  0.00  0.00    -0.274 OA
ATOM     16  N   UNL     1       1.384  -8.399   1.057  0.00  0.00    -0.313 N 
ATOM     17  H   UNL     1       0.620  -8.912   0.752  0.00  0.00    +0.149 HD
BRANCH  16  18
ATOM     18  C   UNL     1       2.596  -9.089   1.508  0.00  0.00    +0.108 C 
BRANCH  18  19
ATOM     19  C   UNL     1       2.393 -10.601   1.397  0.00  0.00    +0.052 C 
BRANCH  19  20
ATOM     20  C   UNL     1       3.639 -11.310   1.861  0.00  0.00    -0.040 C 
ATOM     21  C   UNL     1       3.883 -11.803   3.097  0.00  0.00    -0.001 A 
ATOM     22  C   UNL     1       3.090 -11.824   4.332  0.00  0.00    +0.010 A 
ATOM     23  C   UNL     1       3.613 -12.403   5.437  0.00  0.00    +0.001 A 
ATOM     24  C   UNL     1       4.890 -12.980   5.432  0.00  0.00    +0.002 A 
ATOM     25  C   UNL     1       5.678 -13.000   4.336  0.00  0.00    +0.026 A 
ATOM     26  C   UNL     1       5.228 -12.420   3.117  0.00  0.00    +0.043 A 
ATOM     27  N   UNL     1       5.795 -12.313   1.940  0.00  0.00    -0.380 N 
ATOM     28  C   UNL     1       4.869 -11.621   1.036  0.00  0.00    +0.144 C 
ATOM     29  H   UNL     1       6.676 -12.641   1.704  0.00  0.00    +0.160 HD
ENDBRANCH  19  20
ENDBRANCH  18  19
ENDBRANCH  16  18
ENDBRANCH   3  14
BRANCH   4  30
ATOM     30  C   UNL     1       0.098  -7.328  -1.905  0.00  0.00    +0.210 C 
BRANCH  30  31
ATOM     31  O   UNL     1       0.090  -6.788  -3.228  0.00  0.00    -0.389 OA
ATOM     32  H   UNL     1       0.099  -7.457  -3.926  0.00  0.00    +0.210 HD
ENDBRANCH  30  31
ENDBRANCH   4  30
TORSDOF 7
