REMARK  Name = ZINC49147318
REMARK  8 active torsions:
REMARK  status: ('A' for Active; 'I' for Inactive)
REMARK    1  A    between atoms: C_1  and  C_2
REMARK    2  A    between atoms: C_2  and  C_4
REMARK    3  A    between atoms: C_2  and  N_23
REMARK    4  A    between atoms: C_8  and  S_10
REMARK    5  A    between atoms: S_10  and  N_13
REMARK    6  A    between atoms: N_13  and  C_14
REMARK    7  A    between atoms: C_14  and  C_16
REMARK    8  A    between atoms: C_14  and  C_17
REMARK                            x       y       z     vdW  Elec       q    Type
REMARK                         _______ _______ _______ _____ _____    ______ ____
ROOT
ATOM      1  S   UNL     1       4.399  -1.879   2.118  0.00  0.00    +0.059 S 
ATOM      2  O   UNL     1       4.941  -1.217   0.984  0.00  0.00    -0.153 OA
ATOM      3  O   UNL     1       4.961  -1.749   3.417  0.00  0.00    -0.153 OA
ENDROOT
BRANCH   1   8
ATOM      4  C   UNL     1       0.731  -0.503   1.223  0.00  0.00    -0.060 A 
ATOM      5  C   UNL     1       0.081  -0.558   2.442  0.00  0.00    +0.002 A 
ATOM      6  C   UNL     1       0.749  -1.016   3.562  0.00  0.00    +0.002 A 
ATOM      7  C   UNL     1       2.068  -1.420   3.463  0.00  0.00    +0.028 A 
ATOM      8  C   UNL     1       2.718  -1.365   2.244  0.00  0.00    +0.105 A 
ATOM      9  C   UNL     1       2.048  -0.911   1.123  0.00  0.00    +0.030 A 
BRANCH   4  11
ATOM     10  C   UNL     1      -0.019   1.526   0.010  0.00  0.00    -0.009 C 
ATOM     11  C   UNL     1       0.002  -0.004   0.002  0.00  0.00    -0.047 C 
BRANCH  11  12
ATOM     12  N   UNL     1      -1.376  -0.512   0.012  0.00  0.00    +0.382 N 
ATOM     13  H   UNL     1      -1.362  -1.521   0.007  0.00  0.00    -0.089 HD
ATOM     14  H   UNL     1      -1.848  -0.187   0.843  0.00  0.00    -0.089 HD
ATOM     15  H   UNL     1      -1.864  -0.178  -0.805  0.00  0.00    -0.089 HD
ENDBRANCH  11  12
ENDBRANCH   4  11
ENDBRANCH   1   8
BRANCH   1  16
ATOM     16  N   UNL     1       4.391  -3.496   1.764  0.00  0.00    -0.182 NA
ATOM     17  H   UNL     1       4.750  -4.134   2.401  0.00  0.00    +0.149 HD
BRANCH  16  18
ATOM     18  C   UNL     1       3.843  -3.965   0.489  0.00  0.00    +0.110 C 
ATOM     19  C   UNL     1       2.381  -4.373   0.682  0.00  0.00    +0.031 C 
BRANCH  18  20
ATOM     20  C   UNL     1       4.636  -5.152   0.007  0.00  0.00    +0.009 A 
ATOM     21  C   UNL     1       5.038  -5.455  -1.251  0.00  0.00    +0.014 A 
ATOM     22  C   UNL     1       5.766  -6.612  -1.462  0.00  0.00    +0.028 A 
ATOM     23  C   UNL     1       6.056  -7.408  -0.403  0.00  0.00    +0.078 A 
ATOM     24  S   UNL     1       5.297  -6.519   0.946  0.00  0.00    -0.080 S 
ATOM     25 CL   UNL     1       6.940  -8.902  -0.368  0.00  0.00    -0.076 Cl
ENDBRANCH  18  20
ENDBRANCH  16  18
ENDBRANCH   1  16
TORSDOF 6
