REMARK  Name = ZINC39567409
REMARK  11 active torsions:
REMARK  status: ('A' for Active; 'I' for Inactive)
REMARK    1  A    between atoms: C_1  and  C_2
REMARK    2  A    between atoms: C_2  and  C_4
REMARK    3  A    between atoms: C_2  and  N_32
REMARK    4  A    between atoms: C_7  and  S_16
REMARK    5  A    between atoms: N_8  and  C_9
REMARK    6  A    between atoms: S_16  and  C_17
REMARK    7  A    between atoms: C_17  and  C_18
REMARK    8  A    between atoms: C_18  and  C_20
REMARK    9  A    between atoms: C_20  and  C_30
REMARK   10  A    between atoms: N_32  and  C_33
REMARK   11  A    between atoms: N_32  and  C_34
REMARK                            x       y       z     vdW  Elec       q    Type
REMARK                         _______ _______ _______ _____ _____    ______ ____
ROOT
ATOM      1  C   UNL     1       0.731  -0.503   1.223  0.00  0.00    +0.125 A 
ATOM      2  N   UNL     1       0.272  -0.523   2.442  0.00  0.00    -0.135 NA
ATOM      3  N   UNL     1       1.153  -1.012   3.239  0.00  0.00    -0.122 NA
ATOM      4  C   UNL     1       2.234  -1.336   2.567  0.00  0.00    +0.196 A 
ATOM      5  N   UNL     1       1.996  -1.026   1.256  0.00  0.00    -0.275 N 
ENDROOT
BRANCH   5   6
ATOM      6  C   UNL     1       2.869  -1.204   0.171  0.00  0.00    +0.050 A 
ATOM      7  C   UNL     1       2.541  -2.090  -0.846  0.00  0.00    +0.028 A 
ATOM      8  C   UNL     1       3.401  -2.263  -1.913  0.00  0.00    +0.022 A 
ATOM      9  C   UNL     1       4.589  -1.555  -1.968  0.00  0.00    +0.041 A 
ATOM     10  C   UNL     1       4.917  -0.671  -0.955  0.00  0.00    +0.022 A 
ATOM     11  C   UNL     1       4.058  -0.490   0.111  0.00  0.00    +0.028 A 
ATOM     12 CL   UNL     1       5.668  -1.775  -3.309  0.00  0.00    -0.084 Cl
ENDBRANCH   5   6
BRANCH   1  14
ATOM     13  C   UNL     1      -0.019   1.526   0.010  0.00  0.00    -0.005 C 
ATOM     14  C   UNL     1       0.002  -0.004   0.002  0.00  0.00    -0.003 C 
BRANCH  14  15
ATOM     15  N   UNL     1      -1.376  -0.512   0.012  0.00  0.00    +0.382 N 
ATOM     16  C   UNL     1      -2.087  -0.026  -1.178  0.00  0.00    -0.096 C 
ATOM     17  C   UNL     1      -1.356  -1.981   0.004  0.00  0.00    -0.096 C 
ATOM     18  H   UNL     1      -1.848  -0.187   0.843  0.00  0.00    -0.082 HD
ENDBRANCH  14  15
ENDBRANCH   1  14
BRANCH   4  19
ATOM     19  S   UNL     1       3.707  -2.041   3.227  0.00  0.00    -0.078 S 
BRANCH  19  20
ATOM     20  C   UNL     1       3.361  -2.200   5.001  0.00  0.00    +0.157 C 
BRANCH  20  21
ATOM     21  C   UNL     1       4.557  -2.799   5.694  0.00  0.00    +0.186 C 
ATOM     22  O   UNL     1       5.548  -3.091   5.053  0.00  0.00    -0.290 OA
BRANCH  21  23
ATOM     23  C   UNL     1       4.527  -3.021   7.081  0.00  0.00    +0.123 C 
ATOM     24  C   UNL     1       5.645  -3.580   7.728  0.00  0.00    +0.091 C 
ATOM     25  N   UNL     1       5.785  -3.865   9.047  0.00  0.00    -0.307 N 
ATOM     26  C   UNL     1       6.964  -4.418   9.509  0.00  0.00    +0.046 A 
ATOM     27  C   UNL     1       7.317  -4.785  10.816  0.00  0.00    +0.024 A 
ATOM     28  C   UNL     1       8.554  -5.326  11.081  0.00  0.00    +0.002 A 
ATOM     29  C   UNL     1       9.482  -5.523  10.071  0.00  0.00    +0.001 A 
ATOM     30  C   UNL     1       9.158  -5.169   8.773  0.00  0.00    +0.017 A 
ATOM     31  C   UNL     1       7.922  -4.629   8.507  0.00  0.00    +0.035 A 
ATOM     32  S   UNL     1       7.104  -4.054   7.042  0.00  0.00    -0.071 S 
ATOM     33  H   UNL     1       5.060  -3.681   9.664  0.00  0.00    +0.153 HD
BRANCH  23  34
ATOM     34  C   UNL     1       3.360  -2.677   7.836  0.00  0.00    +0.105 C 
ATOM     35  N   UNL     1       2.434  -2.404   8.434  0.00  0.00    -0.191 NA
ENDBRANCH  23  34
ENDBRANCH  21  23
ENDBRANCH  20  21
ENDBRANCH  19  20
ENDBRANCH   4  19
TORSDOF 8
