REMARK  Name = ZINC39198079
REMARK  6 active torsions:
REMARK  status: ('A' for Active; 'I' for Inactive)
REMARK    1  A    between atoms: C_1  and  C_2
REMARK    2  A    between atoms: C_5  and  S_8
REMARK    3  A    between atoms: S_8  and  N_11
REMARK    4  A    between atoms: C_13  and  C_20
REMARK    5  A    between atoms: C_21  and  C_22
REMARK    6  A    between atoms: C_27  and  N_30
REMARK                            x       y       z     vdW  Elec       q    Type
REMARK                         _______ _______ _______ _____ _____    ______ ____
ROOT
ATOM      1  C   UNL     1       4.277  -6.599   1.453  0.00  0.00    +0.015 C 
ATOM      2  C   UNL     1       4.009  -7.128   2.671  0.00  0.00    +0.068 C 
ENDROOT
BRANCH   1   5
ATOM      3  N   UNL     1       1.215  -5.178   0.078  0.00  0.00    -0.218 N 
ATOM      4  C   UNL     1       1.902  -5.822   1.053  0.00  0.00    +0.121 A 
ATOM      5  C   UNL     1       3.210  -5.960   0.682  0.00  0.00    +0.002 A 
ATOM      6  C   UNL     1       3.333  -5.340  -0.651  0.00  0.00    +0.009 A 
ATOM      7  C   UNL     1       2.049  -4.873  -0.978  0.00  0.00    +0.073 A 
ATOM      8  C   UNL     1       1.846  -4.235  -2.197  0.00  0.00    +0.028 A 
ATOM      9  C   UNL     1       2.899  -4.071  -3.072  0.00  0.00    +0.002 A 
ATOM     10  C   UNL     1       4.165  -4.536  -2.748  0.00  0.00    +0.001 A 
ATOM     11  C   UNL     1       4.388  -5.163  -1.541  0.00  0.00    +0.010 A 
BRANCH   3  12
ATOM     12  S   UNL     1      -0.399  -4.814   0.142  0.00  0.00    +0.084 S 
ATOM     13  O   UNL     1      -0.870  -5.275   1.401  0.00  0.00    -0.148 OA
ATOM     14  O   UNL     1      -0.963  -5.249  -1.088  0.00  0.00    -0.148 OA
BRANCH  12  19
ATOM     15  C   UNL     1      -0.875   1.200   0.221  0.00  0.00    +0.044 C 
ATOM     16  C   UNL     1      -0.756  -0.302   0.201  0.00  0.00    -0.050 A 
ATOM     17  C   UNL     1      -0.745  -0.978  -1.004  0.00  0.00    +0.005 A 
ATOM     18  C   UNL     1      -0.636  -2.356  -1.022  0.00  0.00    +0.029 A 
ATOM     19  C   UNL     1      -0.537  -3.057   0.165  0.00  0.00    +0.111 A 
ATOM     20  C   UNL     1      -0.547  -2.381   1.370  0.00  0.00    +0.029 A 
ATOM     21  C   UNL     1      -0.652  -1.002   1.388  0.00  0.00    +0.005 A 
ENDBRANCH  12  19
ENDBRANCH   3  12
ENDBRANCH   1   5
BRANCH   2  22
ATOM     22  C   UNL     1       5.041  -7.745   3.417  0.00  0.00    +0.239 C 
ATOM     23  O   UNL     1       6.146  -7.888   2.925  0.00  0.00    -0.271 OA
ATOM     24  N   UNL     1       4.802  -8.175   4.671  0.00  0.00    -0.298 N 
ATOM     25  C   UNL     1       5.890  -8.712   5.500  0.00  0.00    +0.106 C 
ATOM     26  C   UNL     1       5.917  -7.953   6.830  0.00  0.00    +0.004 C 
ATOM     27  C   UNL     1       4.534  -8.028   7.483  0.00  0.00    -0.066 C 
ATOM     28  C   UNL     1       3.500  -7.365   6.570  0.00  0.00    +0.004 C 
ATOM     29  C   UNL     1       3.448  -8.112   5.238  0.00  0.00    +0.106 C 
BRANCH  27  30
ATOM     30  N   UNL     1       4.565  -7.330   8.775  0.00  0.00    +0.383 N 
ATOM     31  C   UNL     1       3.339  -7.638   9.493  0.00  0.00    -0.069 C 
ATOM     32  C   UNL     1       3.418  -7.155  10.944  0.00  0.00    +0.077 C 
ATOM     33  C   UNL     1       3.015  -5.694  10.981  0.00  0.00    +0.211 C 
ATOM     34  O   UNL     1       1.967  -5.366  11.495  0.00  0.00    -0.276 OA
ATOM     35  N   UNL     1       3.818  -4.770  10.447  0.00  0.00    -0.317 N 
ATOM     36  C   UNL     1       5.094  -5.170   9.828  0.00  0.00    +0.085 C 
ATOM     37  C   UNL     1       4.790  -5.915   8.527  0.00  0.00    -0.059 C 
ATOM     38  H   UNL     1       3.561  -3.835  10.466  0.00  0.00    +0.149 HD
ATOM     39  H   UNL     1       5.343  -7.686   9.310  0.00  0.00    -0.081 HD
ENDBRANCH  27  30
ENDBRANCH   2  22
TORSDOF 5
