REMARK  Name = ZINC09429678
REMARK  7 active torsions:
REMARK  status: ('A' for Active; 'I' for Inactive)
REMARK    1  A    between atoms: C_1  and  C_2
REMARK    2  A    between atoms: C_3  and  N_9
REMARK    3  A    between atoms: C_10  and  C_12
REMARK    4  A    between atoms: C_22  and  S_25
REMARK    5  A    between atoms: S_25  and  C_28
REMARK    6  A    between atoms: C_31  and  O_34
REMARK    7  A    between atoms: O_34  and  C_35
REMARK                            x       y       z     vdW  Elec       q    Type
REMARK                         _______ _______ _______ _____ _____    ______ ____
ROOT
ATOM      1  C   UNL     1       0.189   0.096  -4.852  0.00  0.00    +0.039 A 
ATOM      2  C   UNL     1       0.175   1.496  -4.838  0.00  0.00    +0.014 A 
ATOM      3  C   UNL     1       0.261   2.199  -6.005  0.00  0.00    +0.014 A 
ATOM      4  C   UNL     1       0.365   1.521  -7.220  0.00  0.00    +0.047 A 
ATOM      5  C   UNL     1       0.382   0.117  -7.248  0.00  0.00    +0.054 A 
ATOM      6  C   UNL     1       0.298  -0.593  -6.056  0.00  0.00    +0.039 A 
ATOM      7  N   UNL     1       0.484  -0.540  -8.458  0.00  0.00    -0.320 N 
ATOM      8  H   UNL     1       0.495  -1.510  -8.472  0.00  0.00    +0.169 HD
ATOM      9  C   UNL     1       0.570   0.141  -9.630  0.00  0.00    +0.278 A 
ATOM     10  O   UNL     1       0.668  -0.555 -10.783  0.00  0.00    -0.266 OA
ATOM     11  C   UNL     1       0.561   1.503  -9.682  0.00  0.00    +0.204 A 
ATOM     12  C   UNL     1       0.460   2.253  -8.498  0.00  0.00    +0.218 A 
ATOM     13  O   UNL     1       0.450   3.474  -8.527  0.00  0.00    -0.285 OA
ENDROOT
BRANCH   1  15
ATOM     14  N   UNL     1      -0.010   0.011  -2.413  0.00  0.00    -0.281 N 
ATOM     15  C   UNL     1       0.095  -0.654  -3.580  0.00  0.00    +0.248 C 
ATOM     16  O   UNL     1       0.113  -1.869  -3.589  0.00  0.00    -0.270 OA
ATOM     17  H   UNL     1      -0.105   0.976  -2.411  0.00  0.00    +0.155 HD
BRANCH  14  20
ATOM     18  C   UNL     1      -1.264   1.189  -0.146  0.00  0.00    +0.047 C 
ATOM     19  C   UNL     1      -0.583  -0.154  -0.073  0.00  0.00    -0.011 A 
ATOM     20  C   UNL     1       0.017  -0.692  -1.204  0.00  0.00    +0.038 A 
ATOM     21  C   UNL     1       0.644  -1.929  -1.132  0.00  0.00    +0.023 A 
ATOM     22  C   UNL     1       0.669  -2.621   0.063  0.00  0.00    +0.003 A 
ATOM     23  C   UNL     1       0.071  -2.084   1.188  0.00  0.00    +0.020 A 
ATOM     24  C   UNL     1      -0.550  -0.848   1.122  0.00  0.00    +0.046 A 
ATOM     25 CL   UNL     1      -1.294  -0.174   2.538  0.00  0.00    -0.083 Cl
ENDBRANCH  14  20
ENDBRANCH   1  15
BRANCH  11  26
ATOM     26  S   UNL     1       0.677   2.324 -11.237  0.00  0.00    +0.034 S 
ATOM     27  O   UNL     1       1.685   3.316 -11.099  0.00  0.00    -0.164 OA
ATOM     28  O   UNL     1       0.739   1.308 -12.229  0.00  0.00    -0.164 OA
BRANCH  26  29
ATOM     29  C   UNL     1      -0.842   3.180 -11.488  0.00  0.00    +0.094 A 
ATOM     30  C   UNL     1      -1.894   2.549 -12.126  0.00  0.00    +0.031 A 
ATOM     31  C   UNL     1      -3.086   3.218 -12.324  0.00  0.00    +0.047 A 
ATOM     32  C   UNL     1      -3.227   4.526 -11.883  0.00  0.00    +0.120 A 
ATOM     33  C   UNL     1      -2.170   5.158 -11.243  0.00  0.00    +0.047 A 
ATOM     34  C   UNL     1      -0.982   4.482 -11.043  0.00  0.00    +0.031 A 
BRANCH  32  35
ATOM     35  O   UNL     1      -4.398   5.187 -12.077  0.00  0.00    -0.495 OA
ATOM     36  C   UNL     1      -4.472   6.531 -11.597  0.00  0.00    +0.277 C 
ENDBRANCH  32  35
ENDBRANCH  26  29
ENDBRANCH  11  26
TORSDOF 5
