REMARK  Name = ZINC49634647
REMARK  12 active torsions:
REMARK  status: ('A' for Active; 'I' for Inactive)
REMARK    1  A    between atoms: C_1  and  C_2
REMARK    2  A    between atoms: C_2  and  C_4
REMARK    3  A    between atoms: C_2  and  N_34
REMARK    4  A    between atoms: C_7  and  S_16
REMARK    5  A    between atoms: N_8  and  C_9
REMARK    6  A    between atoms: S_16  and  C_17
REMARK    7  A    between atoms: C_17  and  C_19
REMARK    8  A    between atoms: C_17  and  C_20
REMARK    9  A    between atoms: C_20  and  N_22
REMARK   10  A    between atoms: C_25  and  C_28
REMARK   11  A    between atoms: N_34  and  C_35
REMARK   12  A    between atoms: N_34  and  C_36
REMARK                            x       y       z     vdW  Elec       q    Type
REMARK                         _______ _______ _______ _____ _____    ______ ____
ROOT
ATOM      1  C   UNL     1       0.707  -0.490  -1.238  0.00  0.00    +0.125 A 
ATOM      2  N   UNL     1       0.230  -0.486  -2.450  0.00  0.00    -0.135 NA
ATOM      3  N   UNL     1       1.094  -0.971  -3.268  0.00  0.00    -0.122 NA
ATOM      4  C   UNL     1       2.182  -1.314  -2.618  0.00  0.00    +0.197 A 
ATOM      5  N   UNL     1       1.972  -1.012  -1.300  0.00  0.00    -0.275 N 
ENDROOT
BRANCH   5   6
ATOM      6  C   UNL     1       2.865  -1.202  -0.235  0.00  0.00    +0.050 A 
ATOM      7  C   UNL     1       3.363  -0.107   0.457  0.00  0.00    +0.029 A 
ATOM      8  C   UNL     1       4.242  -0.295   1.506  0.00  0.00    +0.040 A 
ATOM      9  C   UNL     1       4.626  -1.576   1.867  0.00  0.00    +0.124 A 
ATOM     10  C   UNL     1       4.130  -2.670   1.178  0.00  0.00    +0.040 A 
ATOM     11  C   UNL     1       3.246  -2.485   0.133  0.00  0.00    +0.029 A 
ATOM     12  F   UNL     1       5.487  -1.758   2.893  0.00  0.00    -0.205 F 
ENDBRANCH   5   6
BRANCH   1  14
ATOM     13  C   UNL     1      -0.019   1.526   0.010  0.00  0.00    -0.005 C 
ATOM     14  C   UNL     1       0.002  -0.004   0.002  0.00  0.00    -0.003 C 
BRANCH  14  15
ATOM     15  N   UNL     1      -1.376  -0.512   0.012  0.00  0.00    +0.382 N 
ATOM     16  C   UNL     1      -1.356  -1.981   0.004  0.00  0.00    -0.096 C 
ATOM     17  C   UNL     1      -2.064  -0.039   1.221  0.00  0.00    -0.096 C 
ATOM     18  H   UNL     1      -1.864  -0.178  -0.805  0.00  0.00    -0.082 HD
ENDBRANCH  14  15
ENDBRANCH   1  14
BRANCH   4  19
ATOM     19  S   UNL     1       3.638  -2.022  -3.312  0.00  0.00    -0.073 S 
BRANCH  19  20
ATOM     20  C   UNL     1       3.264  -2.149  -5.082  0.00  0.00    +0.139 C 
ATOM     21  C   UNL     1       3.099  -0.746  -5.671  0.00  0.00    +0.029 C 
BRANCH  20  22
ATOM     22  C   UNL     1       4.392  -2.859  -5.785  0.00  0.00    +0.251 C 
ATOM     23  O   UNL     1       5.490  -2.921  -5.264  0.00  0.00    -0.272 OA
BRANCH  22  24
ATOM     24  N   UNL     1       4.189  -3.417  -6.972  0.00  0.00    -0.156 NA
ATOM     25  C   UNL     1       5.188  -4.045  -7.594  0.00  0.00    +0.163 A 
ATOM     26  N   UNL     1       5.168  -4.665  -8.804  0.00  0.00    -0.335 N 
ATOM     27  C   UNL     1       6.314  -5.253  -9.261  0.00  0.00    +0.055 A 
ATOM     28  C   UNL     1       7.401  -5.175  -8.462  0.00  0.00    +0.074 A 
ATOM     29  S   UNL     1       6.771  -4.254  -7.071  0.00  0.00    -0.060 S 
ATOM     30  H   UNL     1       4.356  -4.689  -9.333  0.00  0.00    +0.168 HD
BRANCH  27  31
ATOM     31  C   UNL     1       6.361  -5.944 -10.569  0.00  0.00    -0.001 A 
ATOM     32  C   UNL     1       5.222  -6.002 -11.372  0.00  0.00    +0.010 A 
ATOM     33  C   UNL     1       5.273  -6.648 -12.591  0.00  0.00    +0.001 A 
ATOM     34  C   UNL     1       6.451  -7.236 -13.016  0.00  0.00    +0.000 A 
ATOM     35  C   UNL     1       7.584  -7.182 -12.224  0.00  0.00    +0.001 A 
ATOM     36  C   UNL     1       7.547  -6.535 -11.006  0.00  0.00    +0.010 A 
ENDBRANCH  27  31
ENDBRANCH  22  24
ENDBRANCH  20  22
ENDBRANCH  19  20
ENDBRANCH   4  19
TORSDOF 8
