REMARK  Name = ZINC42452703
REMARK  8 active torsions:
REMARK  status: ('A' for Active; 'I' for Inactive)
REMARK    1  A    between atoms: C_1  and  C_2
REMARK    2  A    between atoms: C_2  and  N_3
REMARK    3  A    between atoms: N_3  and  C_4
REMARK    4  A    between atoms: N_3  and  C_10
REMARK    5  A    between atoms: C_4  and  C_5
REMARK    6  A    between atoms: C_5  and  C_6
REMARK    7  A    between atoms: N_7  and  O_8
REMARK    8  A    between atoms: C_10  and  C_11
REMARK                            x       y       z     vdW  Elec       q    Type
REMARK                         _______ _______ _______ _____ _____    ______ ____
ROOT
ATOM      1  N   UNL     1       0.817  -0.478   1.126  0.00  0.00    +0.382 N 
ATOM      2  H   UNL     1       1.671   0.059   1.103  0.00  0.00    -0.081 HD
ENDROOT
BRANCH   1   4
ATOM      3  C   UNL     1      -0.254   1.430   0.026  0.00  0.00    -0.017 C 
ATOM      4  C   UNL     1      -0.038  -0.085  -0.002  0.00  0.00    -0.082 C 
ENDBRANCH   1   4
BRANCH   1   5
ATOM      5  C   UNL     1       0.111  -0.222   2.389  0.00  0.00    -0.071 C 
BRANCH   5   6
ATOM      6  C   UNL     1       1.053  -0.495   3.563  0.00  0.00    +0.056 C 
BRANCH   6   7
ATOM      7  C   UNL     1       0.374  -0.104   4.851  0.00  0.00    +0.130 C 
ATOM      8  N   UNL     1      -0.825   0.377   4.830  0.00  0.00    -0.077 NA
ATOM      9  N   UNL     1       1.032  -0.261   6.051  0.00  0.00    -0.344 N 
ATOM     10  H   UNL     1       1.932  -0.622   6.067  0.00  0.00    +0.143 HD
ATOM     11  H   UNL     1       0.596  -0.010   6.880  0.00  0.00    +0.143 HD
BRANCH   8  12
ATOM     12  O   UNL     1      -1.462   0.743   6.040  0.00  0.00    -0.408 OA
ATOM     13  H   UNL     1      -2.356   1.093   5.924  0.00  0.00    +0.328 HD
ENDBRANCH   8  12
ENDBRANCH   6   7
ENDBRANCH   5   6
ENDBRANCH   1   5
BRANCH   1  14
ATOM     14  C   UNL     1       1.135  -1.909   1.024  0.00  0.00    -0.043 C 
BRANCH  14  15
ATOM     15  C   UNL     1       1.965  -2.152  -0.210  0.00  0.00    -0.063 A 
ATOM     16  C   UNL     1       1.347  -2.434  -1.414  0.00  0.00    +0.004 A 
ATOM     17  C   UNL     1       2.107  -2.658  -2.546  0.00  0.00    +0.039 A 
ATOM     18  C   UNL     1       3.488  -2.598  -2.475  0.00  0.00    +0.137 A 
ATOM     19  C   UNL     1       4.107  -2.316  -1.269  0.00  0.00    +0.053 A 
ATOM     20  C   UNL     1       3.344  -2.087  -0.138  0.00  0.00    +0.020 A 
ATOM     21 BR   UNL     1       5.994  -2.234  -1.169  0.00  0.00    -0.047 Br
ATOM     22  F   UNL     1       4.232  -2.817  -3.582  0.00  0.00    -0.204 F 
ENDBRANCH  14  15
ENDBRANCH   1  14
TORSDOF 7
