REMARK  Name = ZINC61595143
REMARK  10 active torsions:
REMARK  status: ('A' for Active; 'I' for Inactive)
REMARK    1  A    between atoms: C_1  and  C_2
REMARK    2  A    between atoms: C_2  and  C_3
REMARK    3  A    between atoms: C_3  and  C_5
REMARK    4  A    between atoms: C_3  and  N_24
REMARK    5  A    between atoms: C_5  and  C_7
REMARK    6  A    between atoms: C_5  and  S_13
REMARK    7  A    between atoms: S_13  and  C_14
REMARK    8  A    between atoms: N_20  and  C_21
REMARK    9  A    between atoms: C_21  and  C_22
REMARK   10  A    between atoms: C_21  and  C_23
REMARK                            x       y       z     vdW  Elec       q    Type
REMARK                         _______ _______ _______ _____ _____    ______ ____
ROOT
ATOM      1  C   UNL     1       0.550  -2.023   1.374  0.00  0.00    +0.076 C 
ENDROOT
BRANCH   1   2
ATOM      2  C   UNL     1       1.131  -2.327   2.731  0.00  0.00    +0.003 A 
ATOM      3  C   UNL     1       2.123  -3.189   3.061  0.00  0.00    +0.013 A 
ATOM      4  C   UNL     1       2.497  -3.306   4.387  0.00  0.00    +0.023 A 
ATOM      5  C   UNL     1       1.859  -2.554   5.318  0.00  0.00    +0.055 A 
ATOM      6  S   UNL     1       0.696  -1.639   4.319  0.00  0.00    -0.085 S 
ATOM      7 BR   UNL     1       2.134  -2.487   7.187  0.00  0.00    -0.043 Br
ENDBRANCH   1   2
BRANCH   1   8
ATOM      8  C   UNL     1       0.748  -0.540   1.054  0.00  0.00    -0.057 C 
BRANCH   8   9
ATOM      9  N   UNL     1       2.177  -0.208   1.135  0.00  0.00    +0.381 N 
ATOM     10  H   UNL     1       2.308   0.770   0.925  0.00  0.00    -0.090 HD
ATOM     11  H   UNL     1       2.515  -0.400   2.067  0.00  0.00    -0.090 HD
ATOM     12  H   UNL     1       2.690  -0.767   0.470  0.00  0.00    -0.090 HD
ENDBRANCH   8   9
BRANCH   8  14
ATOM     13  C   UNL     1       0.310   1.255  -0.628  0.00  0.00    +0.002 C 
ATOM     14  C   UNL     1       0.236  -0.249  -0.358  0.00  0.00    -0.018 C 
ENDBRANCH   8  14
ENDBRANCH   1   8
BRANCH   1  15
ATOM     15  S   UNL     1      -1.222  -2.410   1.374  0.00  0.00    -0.079 S 
BRANCH  15  16
ATOM     16  C   UNL     1      -1.275  -4.165   1.522  0.00  0.00    +0.193 A 
ATOM     17  N   UNL     1      -0.243  -4.959   1.517  0.00  0.00    -0.145 NA
ATOM     18  N   UNL     1      -0.707  -6.274   1.657  0.00  0.00    -0.226 N 
ATOM     19  H   UNL     1      -0.161  -7.076   1.686  0.00  0.00    +0.194 HD
ATOM     20  C   UNL     1      -2.052  -6.221   1.743  0.00  0.00    +0.345 A 
ATOM     21  O   UNL     1      -2.803  -7.171   1.872  0.00  0.00    -0.245 OA
ATOM     22  N   UNL     1      -2.413  -4.925   1.667  0.00  0.00    -0.268 N 
BRANCH  22  23
ATOM     23  C   UNL     1      -3.785  -4.412   1.726  0.00  0.00    +0.088 C 
ATOM     24  C   UNL     1      -4.601  -5.008   0.578  0.00  0.00    +0.031 C 
ATOM     25  C   UNL     1      -4.420  -4.805   3.061  0.00  0.00    +0.031 C 
ENDBRANCH  22  23
ENDBRANCH  15  16
ENDBRANCH   1  15
TORSDOF 7
