REMARK  Name = ZINC20155118
REMARK  8 active torsions:
REMARK  status: ('A' for Active; 'I' for Inactive)
REMARK    1  A    between atoms: C_1  and  C_2
REMARK    2  A    between atoms: C_2  and  O_3
REMARK    3  A    between atoms: O_3  and  C_4
REMARK    4  A    between atoms: C_4  and  C_6
REMARK    5  A    between atoms: C_9  and  N_12
REMARK    6  A    between atoms: C_13  and  C_26
REMARK    7  A    between atoms: C_18  and  N_23
REMARK    8  A    between atoms: C_26  and  N_27
REMARK                            x       y       z     vdW  Elec       q    Type
REMARK                         _______ _______ _______ _____ _____    ______ ____
ROOT
ATOM      1  N   UNL     1      -4.941   4.004  -0.182  0.00  0.00    -0.263 N 
ATOM      2  C   UNL     1      -4.953   5.322   0.156  0.00  0.00    +0.132 A 
ATOM      3  N   UNL     1      -6.042   5.989   0.388  0.00  0.00    -0.232 NA
ATOM      4  C   UNL     1      -7.264   5.406   0.309  0.00  0.00    +0.078 A 
ATOM      5  C   UNL     1      -8.435   6.124   0.558  0.00  0.00    +0.031 A 
ATOM      6  C   UNL     1      -9.655   5.492   0.466  0.00  0.00    +0.035 A 
ATOM      7  C   UNL     1      -9.736   4.148   0.126  0.00  0.00    +0.127 A 
ATOM      8  C   UNL     1      -8.595   3.418  -0.124  0.00  0.00    +0.048 A 
ATOM      9  C   UNL     1      -7.350   4.039  -0.036  0.00  0.00    +0.067 A 
ATOM     10  C   UNL     1      -6.099   3.313  -0.298  0.00  0.00    +0.266 A 
ATOM     11  O   UNL     1      -6.104   2.135  -0.604  0.00  0.00    -0.267 OA
ENDROOT
BRANCH   1  15
ATOM     12  C   UNL     1      -1.309   2.082  -0.881  0.00  0.00    +0.059 A 
ATOM     13  C   UNL     1      -1.832   2.142   0.414  0.00  0.00    +0.017 A 
ATOM     14  C   UNL     1      -3.029   2.783   0.642  0.00  0.00    +0.027 A 
ATOM     15  C   UNL     1      -3.724   3.360  -0.416  0.00  0.00    +0.051 A 
ATOM     16  C   UNL     1      -3.210   3.297  -1.707  0.00  0.00    +0.027 A 
ATOM     17  C   UNL     1      -2.010   2.663  -1.942  0.00  0.00    +0.017 A 
BRANCH  12  18
ATOM     18  C   UNL     1      -0.023   1.403  -1.128  0.00  0.00    +0.339 C 
ATOM     19  O   UNL     1       0.427   1.347  -2.255  0.00  0.00    -0.245 OA
BRANCH  18  20
ATOM     20  O   UNL     1       0.654   0.848  -0.103  0.00  0.00    -0.461 OA
BRANCH  20  22
ATOM     21  C   UNL     1       2.533  -0.364   0.860  0.00  0.00    +0.048 C 
ATOM     22  C   UNL     1       1.915   0.201  -0.420  0.00  0.00    +0.229 C 
ENDBRANCH  20  22
ENDBRANCH  18  20
ENDBRANCH  12  18
ENDBRANCH   1  15
BRANCH   7  23
ATOM     23  N   UNL     1     -11.060   3.493   0.034  0.00  0.00    +0.056 N 
ATOM     24  O   UNL     1     -11.137   2.314  -0.262  0.00  0.00    -0.126 OA
ATOM     25  O   UNL     1     -12.073   4.132   0.255  0.00  0.00    -0.126 OA
ENDBRANCH   7  23
BRANCH   2  26
ATOM     26  C   UNL     1      -3.634   6.044   0.266  0.00  0.00    +0.159 C 
BRANCH  26  27
ATOM     27  N   UNL     1      -3.877   7.475   0.494  0.00  0.00    -0.292 NA
ATOM     28  C   UNL     1      -4.514   8.094  -0.676  0.00  0.00    +0.104 C 
ATOM     29  C   UNL     1      -4.822   9.562  -0.369  0.00  0.00    +0.122 C 
ATOM     30  N   UNL     1      -3.575  10.258  -0.021  0.00  0.00    -0.314 N 
ATOM     31  C   UNL     1      -2.938   9.639   1.149  0.00  0.00    +0.122 C 
ATOM     32  C   UNL     1      -2.631   8.171   0.842  0.00  0.00    +0.104 C 
ATOM     33  C   UNL     1      -3.805  11.612   0.195  0.00  0.00    +0.099 A 
ATOM     34  C   UNL     1      -4.404  12.377  -0.801  0.00  0.00    +0.042 A 
ATOM     35  C   UNL     1      -4.626  13.723  -0.573  0.00  0.00    +0.005 A 
ATOM     36  C   UNL     1      -4.241  14.261   0.648  0.00  0.00    +0.018 A 
ATOM     37  C   UNL     1      -3.652  13.443   1.591  0.00  0.00    +0.084 A 
ATOM     38  N   UNL     1      -3.457  12.161   1.348  0.00  0.00    -0.350 N 
ATOM     39  H   UNL     1      -2.993  11.545   2.132  0.00  0.00    +0.166 HD
ENDBRANCH  26  27
ENDBRANCH   2  26
TORSDOF 7
