REMARK  Name = ZINC67481910
REMARK  6 active torsions:
REMARK  status: ('A' for Active; 'I' for Inactive)
REMARK    1  A    between atoms: C_4  and  C_7
REMARK    2  A    between atoms: C_7  and  N_8
REMARK    3  A    between atoms: C_12  and  C_14
REMARK    4  A    between atoms: C_14  and  N_15
REMARK    5  A    between atoms: C_21  and  C_24
REMARK    6  A    between atoms: C_24  and  C_25
REMARK                            x       y       z     vdW  Elec       q    Type
REMARK                         _______ _______ _______ _____ _____    ______ ____
ROOT
ATOM      1  N   UNL     1       5.884  -2.087  -1.978  0.00  0.00    -0.301 N 
ATOM      2  C   UNL     1       7.013  -2.454  -1.339  0.00  0.00    +0.302 C 
ATOM      3  O   UNL     1       7.549  -3.511  -1.610  0.00  0.00    -0.253 OA
ATOM      4  N   UNL     1       7.548  -1.648  -0.399  0.00  0.00    -0.286 N 
ATOM      5  C   UNL     1       6.975  -0.321  -0.138  0.00  0.00    +0.109 C 
ATOM      6  C   UNL     1       8.088   0.726  -0.245  0.00  0.00    +0.023 C 
ATOM      7  C   UNL     1       9.237   0.342   0.690  0.00  0.00    +0.001 C 
ATOM      8  C   UNL     1       9.807  -1.015   0.270  0.00  0.00    +0.023 C 
ATOM      9  C   UNL     1       8.710  -2.084   0.387  0.00  0.00    +0.109 C 
ATOM     10  H   UNL     1       5.497  -1.213  -1.814  0.00  0.00    +0.150 HD
ENDROOT
BRANCH   1  11
ATOM     11  C   UNL     1       5.243  -3.009  -2.919  0.00  0.00    +0.090 C 
BRANCH  11  16
ATOM     12  N   UNL     1       3.097  -1.920  -2.410  0.00  0.00    +0.383 N 
ATOM     13  C   UNL     1       1.815  -2.645  -2.535  0.00  0.00    -0.078 C 
ATOM     14  C   UNL     1       1.728  -3.040  -4.030  0.00  0.00    -0.020 C 
ATOM     15  C   UNL     1       3.208  -3.376  -4.352  0.00  0.00    -0.016 C 
ATOM     16  C   UNL     1       3.990  -2.353  -3.501  0.00  0.00    -0.051 C 
ATOM     17  H   UNL     1       3.521  -2.134  -1.520  0.00  0.00    -0.081 HD
BRANCH  12  18
ATOM     18  C   UNL     1       2.859  -0.473  -2.510  0.00  0.00    -0.075 C 
BRANCH  18  22
ATOM     19  C   UNL     1       1.759   1.774   1.020  0.00  0.00    +0.000 C 
ATOM     20  C   UNL     1       2.124   0.298   1.190  0.00  0.00    +0.000 C 
ATOM     21  C   UNL     1       2.917  -0.175  -0.030  0.00  0.00    +0.002 C 
ATOM     22  C   UNL     1       2.066  -0.001  -1.290  0.00  0.00    -0.028 C 
ATOM     23  C   UNL     1       1.701   1.475  -1.460  0.00  0.00    +0.002 C 
ATOM     24  C   UNL     1       0.908   1.947  -0.239  0.00  0.00    +0.000 C 
ENDBRANCH  18  22
ENDBRANCH  12  18
ENDBRANCH  11  16
ENDBRANCH   1  11
BRANCH   7  25
ATOM     25  C   UNL     1      10.336   1.403   0.611  0.00  0.00    +0.099 C 
BRANCH  25  26
ATOM     26  C   UNL     1      11.410   1.090   1.621  0.00  0.00    +0.211 C 
ATOM     27  O   UNL     1      11.307   0.114   2.333  0.00  0.00    -0.276 OA
ATOM     28  N   UNL     1      12.486   1.895   1.732  0.00  0.00    -0.329 N 
ATOM     29  H   UNL     1      12.568   2.675   1.162  0.00  0.00    +0.145 HD
ATOM     30  H   UNL     1      13.177   1.693   2.382  0.00  0.00    +0.145 HD
ENDBRANCH  25  26
ENDBRANCH   7  25
TORSDOF 6
