REMARK  Name = ZINC19986787
REMARK  8 active torsions:
REMARK  status: ('A' for Active; 'I' for Inactive)
REMARK    1  A    between atoms: C_1  and  N_2
REMARK    2  A    between atoms: N_2  and  C_3
REMARK    3  A    between atoms: N_2  and  C_4
REMARK    4  A    between atoms: C_4  and  C_10
REMARK    5  A    between atoms: C_10  and  N_11
REMARK    6  A    between atoms: N_11  and  C_12
REMARK    7  A    between atoms: C_12  and  C_13
REMARK    8  A    between atoms: C_18  and  O_19
REMARK                            x       y       z     vdW  Elec       q    Type
REMARK                         _______ _______ _______ _____ _____    ______ ____
ROOT
ATOM      1  N   UNL     1      -1.408  -0.099   2.383  0.00  0.00    -0.313 NA
ATOM      2  H   UNL     1      -1.327  -1.093   2.535  0.00  0.00    +0.122 HD
ENDROOT
BRANCH   1   3
ATOM      3  C   UNL     1      -2.153   0.187   1.150  0.00  0.00    +0.069 C 
BRANCH   3   4
ATOM      4  C   UNL     1      -1.403  -0.403  -0.047  0.00  0.00    -0.053 C 
ATOM      5  C   UNL     1      -2.106   0.009  -1.342  0.00  0.00    -0.011 C 
ATOM      6  C   UNL     1      -3.543  -0.517  -1.331  0.00  0.00    -0.001 C 
ATOM      7  C   UNL     1      -3.527  -2.043  -1.222  0.00  0.00    -0.000 C 
ATOM      8  C   UNL     1      -2.824  -2.454   0.073  0.00  0.00    -0.001 C 
ATOM      9  C   UNL     1      -1.387  -1.929   0.063  0.00  0.00    -0.011 C 
BRANCH   4  11
ATOM     10  C   UNL     1       0.696  -0.463  -1.206  0.00  0.00    -0.096 C 
ATOM     11  N   UNL     1      -0.024   0.102  -0.057  0.00  0.00    +0.381 N 
ATOM     12  C   UNL     1      -0.039   1.567  -0.161  0.00  0.00    -0.096 C 
ATOM     13  H   UNL     1       0.440  -0.170   0.797  0.00  0.00    -0.082 HD
ENDBRANCH   4  11
ENDBRANCH   3   4
ENDBRANCH   1   3
BRANCH   1  14
ATOM     14  C   UNL     1      -2.030   0.562   3.539  0.00  0.00    +0.120 C 
BRANCH  14  15
ATOM     15  C   UNL     1      -1.240   0.247   4.783  0.00  0.00    +0.011 A 
ATOM     16  C   UNL     1      -1.675  -0.740   5.647  0.00  0.00    +0.028 A 
ATOM     17  C   UNL     1      -0.951  -1.029   6.790  0.00  0.00    +0.043 A 
ATOM     18  C   UNL     1       0.211  -0.332   7.070  0.00  0.00    +0.043 A 
ATOM     19  C   UNL     1       0.650   0.655   6.208  0.00  0.00    +0.084 A 
ATOM     20  C   UNL     1      -0.072   0.943   5.058  0.00  0.00    +0.140 A 
ATOM     21 CL   UNL     1       2.108   1.530   6.560  0.00  0.00    -0.080 Cl
ATOM     22 CL   UNL     1      -1.502  -2.268   7.874  0.00  0.00    -0.083 Cl
BRANCH  20  23
ATOM     23  O   UNL     1       0.361   1.909   4.206  0.00  0.00    -0.505 OA
ATOM     24  H   UNL     1       0.021   2.792   4.407  0.00  0.00    +0.292 HD
ENDBRANCH  20  23
ENDBRANCH  14  15
ENDBRANCH   1  14
TORSDOF 6
