REMARK  Name = ZINC12459697
REMARK  5 active torsions:
REMARK  status: ('A' for Active; 'I' for Inactive)
REMARK    1  A    between atoms: C_2  and  C_11
REMARK    2  A    between atoms: C_11  and  N_49
REMARK    3  A    between atoms: C_14  and  N_51
REMARK    4  A    between atoms: C_16  and  O_19
REMARK    5  A    between atoms: C_22  and  O_25
REMARK                            x       y       z     vdW  Elec       q    Type
REMARK                         _______ _______ _______ _____ _____    ______ ____
ROOT
ATOM      1  C   UNL     1      -2.919   2.046  -2.248  0.00  0.00    -0.080 C 
ATOM      2  C   UNL     1      -3.018   1.448  -3.653  0.00  0.00    -0.031 C 
ATOM      3  C   UNL     1      -4.253   0.546  -3.733  0.00  0.00    -0.043 C 
ATOM      4  C   UNL     1      -4.151  -0.543  -2.662  0.00  0.00    +0.085 C 
ATOM      5  C   UNL     1      -4.020   0.113  -1.286  0.00  0.00    -0.048 C 
ATOM      6  N   UNL     1      -2.799   0.947  -1.266  0.00  0.00    +0.384 N 
ATOM      7  H   UNL     1      -1.993   0.363  -1.517  0.00  0.00    -0.081 HD
ENDROOT
BRANCH   3  13
ATOM      8  C   UNL     1      -4.531   0.933  -6.107  0.00  0.00    -0.076 C 
ATOM      9  C   UNL     1      -4.741   0.239  -7.454  0.00  0.00    +0.013 C 
ATOM     10  C   UNL     1      -3.511  -0.612  -7.782  0.00  0.00    +0.111 C 
ATOM     11  C   UNL     1      -3.286  -1.624  -6.655  0.00  0.00    +0.013 C 
ATOM     12  C   UNL     1      -3.118  -0.875  -5.330  0.00  0.00    -0.076 C 
ATOM     13  N   UNL     1      -4.344  -0.095  -5.061  0.00  0.00    +0.383 N 
ATOM     14  H   UNL     1      -5.151  -0.730  -5.070  0.00  0.00    -0.081 HD
BRANCH  10  15
ATOM     15  O   UNL     1      -3.724  -1.308  -9.012  0.00  0.00    -0.392 OA
ATOM     16  H   UNL     1      -3.874  -0.727  -9.771  0.00  0.00    +0.210 HD
ENDBRANCH  10  15
ENDBRANCH   3  13
BRANCH   4  17
ATOM     17  O   UNL     1      -5.327  -1.355  -2.693  0.00  0.00    -0.395 OA
ATOM     18  H   UNL     1      -5.332  -2.065  -2.037  0.00  0.00    +0.210 HD
ENDBRANCH   4  17
BRANCH   6  19
ATOM     19  C   UNL     1      -2.588   1.501   0.088  0.00  0.00    -0.041 C 
BRANCH  19  21
ATOM     20  C   UNL     1      -1.137   3.539   0.145  0.00  0.00    +0.052 A 
ATOM     21  C   UNL     1      -1.234   2.160   0.137  0.00  0.00    -0.042 A 
ATOM     22  C   UNL     1      -0.090   1.384   0.178  0.00  0.00    +0.046 A 
ATOM     23  C   UNL     1       1.156   1.985   0.217  0.00  0.00    +0.069 A 
ATOM     24  C   UNL     1       1.259   3.366   0.221  0.00  0.00    +0.168 A 
ATOM     25  C   UNL     1       0.106   4.147   0.184  0.00  0.00    +0.167 A 
ATOM     26  O   UNL     1       0.471   5.463   0.197  0.00  0.00    -0.453 OA
ATOM     27  C   UNL     1       1.863   5.480  -0.172  0.00  0.00    +0.466 C 
ATOM     28  O   UNL     1       2.345   4.192   0.255  0.00  0.00    -0.453 OA
ATOM     29 CL   UNL     1      -0.217  -0.348   0.174  0.00  0.00    -0.083 Cl
ENDBRANCH  19  21
ENDBRANCH   6  19
TORSDOF 5
