REMARK  Name = ZINC20168015
REMARK  12 active torsions:
REMARK  status: ('A' for Active; 'I' for Inactive)
REMARK    1  A    between atoms: C_1  and  C_2
REMARK    2  A    between atoms: C_2  and  O_3
REMARK    3  A    between atoms: O_3  and  C_4
REMARK    4  A    between atoms: C_4  and  C_6
REMARK    5  A    between atoms: C_7  and  C_33
REMARK    6  A    between atoms: C_8  and  C_30
REMARK    7  A    between atoms: C_10  and  N_11
REMARK    8  A    between atoms: C_12  and  C_14
REMARK    9  A    between atoms: C_14  and  N_15
REMARK   10  A    between atoms: N_18  and  C_23
REMARK   11  A    between atoms: C_19  and  C_22
REMARK   12  A    between atoms: C_26  and  C_29
REMARK                            x       y       z     vdW  Elec       q    Type
REMARK                         _______ _______ _______ _____ _____    ______ ____
ROOT
ATOM      1  N   UNL     1      -0.125  11.412   0.709  0.00  0.00    -0.281 N 
ATOM      2  C   UNL     1      -0.115  10.092   0.436  0.00  0.00    +0.201 C 
ATOM      3  O   UNL     1       0.351   9.310   1.238  0.00  0.00    -0.278 OA
ATOM      4  H   UNL     1      -0.547  12.120  -0.018  0.00  0.00    +0.155 HD
ENDROOT
BRANCH   1   9
ATOM      5  C   UNL     1       0.482  13.192   2.363  0.00  0.00    +0.091 A 
ATOM      6  C   UNL     1       1.049  13.403   3.611  0.00  0.00    -0.015 A 
ATOM      7  C   UNL     1       1.495  12.309   4.300  0.00  0.00    +0.079 A 
ATOM      8  S   UNL     1       1.110  10.965   3.193  0.00  0.00    -0.068 S 
ATOM      9  C   UNL     1       0.396  11.874   1.902  0.00  0.00    +0.087 A 
ATOM     10  C   UNL     1       1.176  14.791   4.185  0.00  0.00    +0.046 C 
BRANCH   7  11
ATOM     11  C   UNL     1       2.131  12.254   5.618  0.00  0.00    +0.248 C 
ATOM     12  O   UNL     1       2.322  13.280   6.244  0.00  0.00    -0.270 OA
ATOM     13  N   UNL     1       2.506  11.068   6.137  0.00  0.00    -0.325 N 
ATOM     14  H   UNL     1       2.983  11.027   7.127  0.00  0.00    +0.145 HD
ATOM     15  H   UNL     1       2.334  10.141   5.571  0.00  0.00    +0.145 HD
ENDBRANCH   7  11
BRANCH   5  16
ATOM     16  C   UNL     1      -0.014  14.312   1.556  0.00  0.00    +0.342 C 
ATOM     17  O   UNL     1      -1.167  14.681   1.672  0.00  0.00    -0.245 OA
BRANCH  16  18
ATOM     18  O   UNL     1       0.808  14.932   0.685  0.00  0.00    -0.461 OA
BRANCH  18  20
ATOM     19  C   UNL     1       1.323  16.606  -1.007  0.00  0.00    +0.048 C 
ATOM     20  C   UNL     1       0.249  16.032  -0.080  0.00  0.00    +0.229 C 
ENDBRANCH  18  20
ENDBRANCH  16  18
ENDBRANCH   5  16
ENDBRANCH   1   9
BRANCH   2  21
ATOM     21  C   UNL     1      -0.683   9.587  -0.865  0.00  0.00    +0.019 C 
BRANCH  21  22
ATOM     22  N   UNL     1      -0.688   8.118  -0.861  0.00  0.00    +0.388 N 
ATOM     23  C   UNL     1      -1.625   7.598   0.144  0.00  0.00    -0.059 C 
ATOM     24  C   UNL     1      -1.542   6.070   0.172  0.00  0.00    +0.087 C 
ATOM     25  N   UNL     1      -1.857   5.540  -1.162  0.00  0.00    -0.331 N 
ATOM     26  C   UNL     1      -0.919   6.061  -2.167  0.00  0.00    +0.054 C 
ATOM     27  C   UNL     1      -1.002   7.589  -2.195  0.00  0.00    -0.056 C 
ATOM     28  C   UNL     1      -1.286   5.504  -3.544  0.00  0.00    +0.026 C 
ATOM     29  H   UNL     1       0.323   7.779  -0.590  0.00  0.00    -0.081 HD
BRANCH  25  30
ATOM     30  C   UNL     1      -1.861   4.143  -1.158  0.00  0.00    +0.030 A 
ATOM     31  C   UNL     1      -0.688   3.444  -0.904  0.00  0.00    +0.023 A 
ATOM     32  C   UNL     1      -0.696   2.063  -0.901  0.00  0.00    +0.005 A 
ATOM     33  C   UNL     1      -1.870   1.376  -1.148  0.00  0.00    -0.050 A 
ATOM     34  C   UNL     1      -3.039   2.069  -1.406  0.00  0.00    +0.005 A 
ATOM     35  C   UNL     1      -3.039   3.450  -1.406  0.00  0.00    +0.023 A 
ATOM     36  C   UNL     1      -1.875  -0.131  -1.143  0.00  0.00    +0.044 C 
ENDBRANCH  25  30
ENDBRANCH  21  22
ENDBRANCH   2  21
TORSDOF 8
