REMARK  Name = ZINC13727970
REMARK  13 active torsions:
REMARK  status: ('A' for Active; 'I' for Inactive)
REMARK    1  A    between atoms: C_1  and  C_2
REMARK    2  A    between atoms: C_2  and  O_3
REMARK    3  A    between atoms: O_3  and  C_4
REMARK    4  A    between atoms: C_6  and  C_20
REMARK    5  A    between atoms: C_9  and  O_10
REMARK    6  A    between atoms: O_10  and  C_11
REMARK    7  A    between atoms: C_11  and  C_12
REMARK    8  A    between atoms: C_15  and  C_18
REMARK    9  A    between atoms: C_20  and  N_60
REMARK   10  A    between atoms: C_21  and  C_22
REMARK   11  A    between atoms: C_21  and  N_60
REMARK   12  A    between atoms: C_22  and  C_23
REMARK   13  A    between atoms: C_23  and  N_24
REMARK                            x       y       z     vdW  Elec       q    Type
REMARK                         _______ _______ _______ _____ _____    ______ ____
ROOT
ATOM      1  C   UNL     1       0.002  -0.004   0.002  0.00  0.00    +0.163 A 
ATOM      2  C   UNL     1      -0.017   1.382   0.010  0.00  0.00    +0.051 A 
ATOM      3  C   UNL     1       1.171   2.089   0.002  0.00  0.00    -0.060 A 
ATOM      4  C   UNL     1       2.379   1.418  -0.013  0.00  0.00    +0.021 A 
ATOM      5  C   UNL     1       2.405   0.035  -0.021  0.00  0.00    +0.063 A 
ATOM      6  C   UNL     1       1.218  -0.680  -0.013  0.00  0.00    +0.176 A 
ATOM      7 BR   UNL     1       4.060  -0.879  -0.041  0.00  0.00    -0.046 Br
ENDROOT
BRANCH   1   8
ATOM      8  O   UNL     1      -1.165  -0.701   0.009  0.00  0.00    -0.489 OA
BRANCH   8  10
ATOM      9  C   UNL     1      -3.575  -0.891   0.030  0.00  0.00    +0.048 C 
ATOM     10  C   UNL     1      -2.375   0.059   0.024  0.00  0.00    +0.226 C 
ENDBRANCH   8  10
ENDBRANCH   1   8
BRANCH   6  11
ATOM     11  O   UNL     1       1.241  -2.040  -0.021  0.00  0.00    -0.483 OA
BRANCH  11  12
ATOM     12  C   UNL     1       1.240  -2.682  -1.298  0.00  0.00    +0.264 C 
BRANCH  12  13
ATOM     13  C   UNL     1       1.268  -4.176  -1.109  0.00  0.00    -0.010 A 
ATOM     14  C   UNL     1       2.478  -4.842  -1.040  0.00  0.00    +0.007 A 
ATOM     15  C   UNL     1       2.503  -6.213  -0.862  0.00  0.00    +0.004 A 
ATOM     16  C   UNL     1       1.319  -6.919  -0.764  0.00  0.00    -0.050 A 
ATOM     17  C   UNL     1       0.109  -6.254  -0.839  0.00  0.00    +0.004 A 
ATOM     18  C   UNL     1       0.084  -4.883  -1.012  0.00  0.00    +0.007 A 
ATOM     19  C   UNL     1       1.346  -8.414  -0.575  0.00  0.00    +0.044 C 
ENDBRANCH  12  13
ENDBRANCH  11  12
ENDBRANCH   6  11
BRANCH   3  20
ATOM     20  C   UNL     1       1.148   3.596   0.010  0.00  0.00    -0.047 C 
BRANCH  20  21
ATOM     21  N   UNL     1       1.154   4.072   1.407  0.00  0.00    +0.382 N 
ATOM     22  H   UNL     1       2.002   3.734   1.876  0.00  0.00    -0.085 HD
ATOM     23  H   UNL     1       0.326   3.708   1.892  0.00  0.00    -0.085 HD
BRANCH  21  24
ATOM     24  C   UNL     1       1.132   5.546   1.445  0.00  0.00    -0.081 C 
BRANCH  24  25
ATOM     25  C   UNL     1       1.139   6.010   2.903  0.00  0.00    -0.000 C 
BRANCH  25  26
ATOM     26  C   UNL     1       1.116   7.539   2.953  0.00  0.00    +0.106 C 
BRANCH  26  27
ATOM     27  N   UNL     1       1.122   7.983   4.349  0.00  0.00    -0.302 N 
ATOM     28  C   UNL     1      -0.086   8.221   5.148  0.00  0.00    +0.108 C 
ATOM     29  C   UNL     1       0.391   8.233   6.619  0.00  0.00    +0.028 C 
ATOM     30  C   UNL     1       1.870   8.659   6.465  0.00  0.00    +0.097 C 
ATOM     31  C   UNL     1       2.235   8.230   5.061  0.00  0.00    +0.216 C 
ATOM     32  O   UNL     1       3.367   8.125   4.639  0.00  0.00    -0.276 OA
ENDBRANCH  26  27
ENDBRANCH  25  26
ENDBRANCH  24  25
ENDBRANCH  21  24
ENDBRANCH  20  21
ENDBRANCH   3  20
TORSDOF 11
