REMARK  Name = ZINC03851009
REMARK  8 active torsions:
REMARK  status: ('A' for Active; 'I' for Inactive)
REMARK    1  A    between atoms: C_1  and  O_2
REMARK    2  A    between atoms: O_2  and  C_3
REMARK    3  A    between atoms: C_8  and  C_9
REMARK    4  A    between atoms: N_11  and  C_12
REMARK    5  A    between atoms: C_12  and  C_13
REMARK    6  A    between atoms: C_13  and  N_14
REMARK    7  A    between atoms: C_16  and  S_23
REMARK    8  A    between atoms: S_23  and  C_24
REMARK                            x       y       z     vdW  Elec       q    Type
REMARK                         _______ _______ _______ _____ _____    ______ ____
ROOT
ATOM      1  N   UNL     1      -3.801   2.299  -0.089  0.00  0.00    -0.344 N 
ATOM      2  C   UNL     1      -2.584   1.659  -0.102  0.00  0.00    +0.102 A 
ATOM      3  C   UNL     1      -2.769   0.329  -0.010  0.00  0.00    +0.040 A 
ATOM      4  C   UNL     1      -4.217   0.102   0.063  0.00  0.00    +0.014 A 
ATOM      5  C   UNL     1      -4.815   1.374   0.015  0.00  0.00    +0.050 A 
ATOM      6  C   UNL     1      -6.201   1.478   0.070  0.00  0.00    +0.026 A 
ATOM      7  C   UNL     1      -6.970   0.340   0.176  0.00  0.00    +0.002 A 
ATOM      8  C   UNL     1      -6.374  -0.913   0.228  0.00  0.00    +0.001 A 
ATOM      9  C   UNL     1      -5.014  -1.038   0.175  0.00  0.00    +0.011 A 
ENDROOT
BRANCH   1  10
ATOM     10  C   UNL     1      -3.990   3.750  -0.173  0.00  0.00    +0.140 C 
BRANCH  10  11
ATOM     11  C   UNL     1      -4.116   4.330   1.237  0.00  0.00    +0.126 C 
BRANCH  11  14
ATOM     12  C   UNL     1      -4.441   6.509   2.279  0.00  0.00    +0.248 C 
ATOM     13  O   UNL     1      -4.407   5.962   3.365  0.00  0.00    -0.270 OA
ATOM     14  N   UNL     1      -4.305   5.780   1.153  0.00  0.00    -0.310 N 
ATOM     15  H   UNL     1      -4.336   6.275   0.171  0.00  0.00    +0.149 HD
BRANCH  12  21
ATOM     16  C   UNL     1      -4.774   8.730   3.363  0.00  0.00    +0.132 A 
ATOM     17  C   UNL     1      -4.951  10.103   3.271  0.00  0.00    +0.046 A 
ATOM     18  C   UNL     1      -4.987  10.715   2.034  0.00  0.00    +0.004 A 
ATOM     19  C   UNL     1      -4.848   9.966   0.877  0.00  0.00    +0.001 A 
ATOM     20  C   UNL     1      -4.665   8.602   0.950  0.00  0.00    +0.017 A 
ATOM     21  C   UNL     1      -4.631   7.969   2.195  0.00  0.00    +0.078 A 
BRANCH  16  23
ATOM     22  C   UNL     1      -4.889   8.967   5.723  0.00  0.00    +0.277 C 
ATOM     23  O   UNL     1      -4.737   8.127   4.577  0.00  0.00    -0.494 OA
ENDBRANCH  16  23
ENDBRANCH  12  21
ENDBRANCH  11  14
ENDBRANCH  10  11
ENDBRANCH   1  10
BRANCH   3  24
ATOM     24  S   UNL     1      -1.512  -0.906   0.012  0.00  0.00    -0.055 S 
BRANCH  24  25
ATOM     25  C   UNL     1      -1.519  -1.320   1.724  0.00  0.00    +0.127 C 
ATOM     26  N   UNL     1      -2.267  -0.647   2.555  0.00  0.00    -0.382 N 
ATOM     27  N   UNL     1      -0.735  -2.352   2.186  0.00  0.00    -0.339 N 
ATOM     28  H   UNL     1      -2.272  -0.906   3.624  0.00  0.00    +0.158 HD
ATOM     29  H   UNL     1      -0.739  -2.611   3.255  0.00  0.00    +0.144 HD
ATOM     30  H   UNL     1      -0.103  -2.919   1.486  0.00  0.00    +0.144 HD
ATOM     31  H   UNL     1      -2.894   0.178   2.186  0.00  0.00    +0.158 HD
ENDBRANCH  24  25
ENDBRANCH   3  24
TORSDOF 7
