REMARK  Name = ZINC16456625
REMARK  16 active torsions:
REMARK  status: ('A' for Active; 'I' for Inactive)
REMARK    1  A    between atoms: C_1  and  C_2
REMARK    2  A    between atoms: C_2  and  N_71
REMARK    3  A    between atoms: C_3  and  C_4
REMARK    4  A    between atoms: C_3  and  N_71
REMARK    5  A    between atoms: C_5  and  C_6
REMARK    6  A    between atoms: C_5  and  N_71
REMARK    7  A    between atoms: C_6  and  C_7
REMARK    8  A    between atoms: C_7  and  C_8
REMARK    9  A    between atoms: C_8  and  C_10
REMARK   10  A    between atoms: C_8  and  N_11
REMARK   11  A    between atoms: C_12  and  C_14
REMARK   12  A    between atoms: C_17  and  N_20
REMARK   13  A    between atoms: N_20  and  C_21
REMARK   14  A    between atoms: N_31  and  C_32
REMARK   15  A    between atoms: C_32  and  C_33
REMARK   16  A    between atoms: C_32  and  C_34
REMARK                            x       y       z     vdW  Elec       q    Type
REMARK                         _______ _______ _______ _____ _____    ______ ____
ROOT
ATOM      1  C   UNL     1      -1.480   4.616   2.008  0.00  0.00    +0.037 A 
ATOM      2  C   UNL     1      -1.399   6.010   2.072  0.00  0.00    +0.015 A 
ATOM      3  C   UNL     1      -2.507   6.748   2.421  0.00  0.00    +0.024 A 
ATOM      4  C   UNL     1      -3.705   6.106   2.723  0.00  0.00    +0.029 A 
ATOM      5  C   UNL     1      -3.788   4.717   2.666  0.00  0.00    +0.024 A 
ATOM      6  C   UNL     1      -2.685   3.975   2.311  0.00  0.00    +0.015 A 
ENDROOT
BRANCH   1   8
ATOM      7  N   UNL     1       0.863   4.443   1.330  0.00  0.00    -0.309 N 
ATOM      8  C   UNL     1      -0.296   3.823   1.628  0.00  0.00    +0.244 C 
ATOM      9  O   UNL     1      -0.367   2.610   1.577  0.00  0.00    -0.270 OA
ATOM     10  H   UNL     1       0.920   5.411   1.370  0.00  0.00    +0.149 HD
BRANCH   7  11
ATOM     11  C   UNL     1       2.037   3.656   0.946  0.00  0.00    +0.070 C 
ATOM     12  C   UNL     1       1.983   3.356  -0.553  0.00  0.00    +0.028 C 
BRANCH  11  13
ATOM     13  C   UNL     1       3.308   4.448   1.262  0.00  0.00    +0.020 C 
BRANCH  13  14
ATOM     14  C   UNL     1       3.426   4.640   2.776  0.00  0.00    -0.017 C 
BRANCH  14  15
ATOM     15  C   UNL     1       4.696   5.432   3.091  0.00  0.00    -0.079 C 
BRANCH  15  16
ATOM     16  N   UNL     1       4.785   5.627   4.554  0.00  0.00    +0.379 N 
ATOM     17  H   UNL     1       3.899   6.020   4.892  0.00  0.00    -0.082 HD
BRANCH  16  19
ATOM     18  C   UNL     1       6.301   3.679   4.693  0.00  0.00    -0.017 C 
ATOM     19  C   UNL     1       5.022   4.331   5.223  0.00  0.00    -0.082 C 
ENDBRANCH  16  19
BRANCH  16  20
ATOM     20  C   UNL     1       5.880   6.567   4.872  0.00  0.00    -0.082 C 
ATOM     21  C   UNL     1       5.698   7.066   6.307  0.00  0.00    -0.017 C 
ENDBRANCH  16  20
ENDBRANCH  15  16
ENDBRANCH  14  15
ENDBRANCH  13  14
ENDBRANCH  11  13
ENDBRANCH   7  11
ENDBRANCH   1   8
BRANCH   4  22
ATOM     22  N   UNL     1      -4.821   6.854   3.082  0.00  0.00    -0.322 N 
ATOM     23  H   UNL     1      -4.740   7.810   3.219  0.00  0.00    +0.148 HD
BRANCH  22  24
ATOM     24  C   UNL     1      -6.119   6.196   3.253  0.00  0.00    +0.193 C 
ATOM     25  C   UNL     1      -7.216   7.055   2.675  0.00  0.00    +0.003 A 
ATOM     26  C   UNL     1      -7.473   7.533   1.412  0.00  0.00    +0.008 A 
ATOM     27  C   UNL     1      -8.589   8.320   1.183  0.00  0.00    +0.000 A 
ATOM     28  C   UNL     1      -9.448   8.628   2.223  0.00  0.00    +0.001 A 
ATOM     29  C   UNL     1      -9.200   8.154   3.495  0.00  0.00    +0.013 A 
ATOM     30  C   UNL     1      -8.076   7.360   3.733  0.00  0.00    +0.043 A 
ATOM     31  C   UNL     1      -7.554   6.718   4.955  0.00  0.00    +0.249 C 
ATOM     32  O   UNL     1      -8.072   6.788   6.052  0.00  0.00    -0.270 OA
ATOM     33  N   UNL     1      -6.423   6.045   4.680  0.00  0.00    -0.272 N 
BRANCH  33  34
ATOM     34  C   UNL     1      -5.627   5.285   5.647  0.00  0.00    +0.072 C 
ATOM     35  C   UNL     1      -5.144   6.221   6.757  0.00  0.00    +0.028 C 
ATOM     36  C   UNL     1      -6.485   4.174   6.254  0.00  0.00    +0.028 C 
ENDBRANCH  33  34
ENDBRANCH  22  24
ENDBRANCH   4  22
TORSDOF 11
