REMARK  Name = ZINC43262797
REMARK  14 active torsions:
REMARK  status: ('A' for Active; 'I' for Inactive)
REMARK    1  A    between atoms: C_1  and  C_2
REMARK    2  A    between atoms: C_2  and  C_3
REMARK    3  A    between atoms: C_3  and  C_5
REMARK    4  A    between atoms: C_3  and  N_22
REMARK    5  A    between atoms: C_5  and  C_7
REMARK    6  A    between atoms: C_5  and  N_13
REMARK    7  A    between atoms: N_13  and  C_14
REMARK    8  A    between atoms: N_13  and  C_17
REMARK    9  A    between atoms: C_14  and  C_15
REMARK   10  A    between atoms: C_15  and  O_16
REMARK   11  A    between atoms: C_17  and  C_18
REMARK   12  A    between atoms: C_17  and  C_20
REMARK   13  A    between atoms: C_18  and  C_19
REMARK   14  A    between atoms: C_20  and  C_21
REMARK                            x       y       z     vdW  Elec       q    Type
REMARK                         _______ _______ _______ _____ _____    ______ ____
ROOT
ATOM      1  C   UNL     1      -1.451  -2.933   0.550  0.00  0.00    +0.079 C 
ENDROOT
BRANCH   1   2
ATOM      2  C   UNL     1      -0.570  -3.180  -0.647  0.00  0.00    +0.006 A 
ATOM      3  C   UNL     1      -0.491  -2.485  -1.807  0.00  0.00    +0.014 A 
ATOM      4  C   UNL     1       0.402  -2.899  -2.778  0.00  0.00    +0.023 A 
ATOM      5  C   UNL     1       1.172  -3.990  -2.541  0.00  0.00    +0.055 A 
ATOM      6  S   UNL     1       0.647  -4.462  -0.901  0.00  0.00    -0.085 S 
ATOM      7 BR   UNL     1       2.469  -4.797  -3.655  0.00  0.00    -0.043 Br
ENDBRANCH   1   2
BRANCH   1   8
ATOM      8  C   UNL     1      -2.442  -4.089   0.702  0.00  0.00    -0.053 C 
BRANCH   8   9
ATOM      9  N   UNL     1      -3.358  -4.103  -0.447  0.00  0.00    +0.381 N 
ATOM     10  H   UNL     1      -3.862  -3.230  -0.485  0.00  0.00    -0.090 HD
ATOM     11  H   UNL     1      -2.829  -4.223  -1.297  0.00  0.00    -0.090 HD
ATOM     12  H   UNL     1      -4.011  -4.866  -0.346  0.00  0.00    -0.090 HD
ENDBRANCH   8   9
BRANCH   8  14
ATOM     13  C   UNL     1      -4.231  -5.066   2.147  0.00  0.00    +0.002 C 
ATOM     14  C   UNL     1      -3.244  -3.907   1.992  0.00  0.00    -0.018 C 
ENDBRANCH   8  14
ENDBRANCH   1   8
BRANCH   1  15
ATOM     15  N   UNL     1      -0.621  -2.837   1.758  0.00  0.00    -0.291 NA
BRANCH  15  16
ATOM     16  C   UNL     1      -1.292  -2.044   2.797  0.00  0.00    +0.113 C 
BRANCH  16  17
ATOM     17  C   UNL     1      -0.570  -2.237   4.132  0.00  0.00    +0.171 C 
BRANCH  17  18
ATOM     18  O   UNL     1       0.477  -1.272   4.250  0.00  0.00    -0.394 OA
ATOM     19  H   UNL     1       1.024  -1.379   5.040  0.00  0.00    +0.209 HD
ENDBRANCH  17  18
ENDBRANCH  16  17
ENDBRANCH  15  16
BRANCH  15  20
ATOM     20  C   UNL     1       0.703  -2.282   1.445  0.00  0.00    +0.057 C 
BRANCH  20  21
ATOM     21  C   UNL     1       0.674  -0.763   1.626  0.00  0.00    +0.015 C 
ATOM     22  C   UNL     1      -0.281  -0.145   0.602  0.00  0.00    +0.005 C 
ENDBRANCH  20  21
BRANCH  20  23
ATOM     23  C   UNL     1       1.746  -2.888   2.386  0.00  0.00    +0.015 C 
ATOM     24  C   UNL     1       1.882  -4.385   2.100  0.00  0.00    +0.005 C 
ENDBRANCH  20  23
ENDBRANCH  15  20
ENDBRANCH   1  15
TORSDOF 11
