REMARK  Name = ZINC48912116
REMARK  8 active torsions:
REMARK  status: ('A' for Active; 'I' for Inactive)
REMARK    1  A    between atoms: C_1  and  C_2
REMARK    2  A    between atoms: C_3  and  C_7
REMARK    3  A    between atoms: C_7  and  N_8
REMARK    4  A    between atoms: N_8  and  C_9
REMARK    5  A    between atoms: N_8  and  C_10
REMARK    6  A    between atoms: C_10  and  C_11
REMARK    7  A    between atoms: N_13  and  C_14
REMARK    8  A    between atoms: C_17  and  N_21
REMARK                            x       y       z     vdW  Elec       q    Type
REMARK                         _______ _______ _______ _____ _____    ______ ____
ROOT
ATOM      1  C   UNL     1      -4.663   1.056  -2.688  0.00  0.00    +0.201 C 
ATOM      2  O   UNL     1      -3.869   0.968  -3.602  0.00  0.00    -0.278 OA
ATOM      3  N   UNL     1      -5.880   1.594  -2.902  0.00  0.00    -0.286 N 
ATOM      4  H   UNL     1      -6.543   1.592  -2.194  0.00  0.00    +0.155 HD
ENDROOT
BRANCH   3   5
ATOM      5  C   UNL     1      -6.188   2.157  -4.149  0.00  0.00    +0.048 A 
ATOM      6  C   UNL     1      -5.171   2.633  -4.966  0.00  0.00    +0.026 A 
ATOM      7  C   UNL     1      -5.475   3.188  -6.193  0.00  0.00    +0.024 A 
ATOM      8  C   UNL     1      -6.797   3.269  -6.611  0.00  0.00    +0.026 A 
ATOM      9  C   UNL     1      -7.814   2.792  -5.795  0.00  0.00    +0.039 A 
ATOM     10  C   UNL     1      -7.510   2.232  -4.569  0.00  0.00    +0.041 A 
ATOM     11 BR   UNL     1      -8.894   1.577  -3.460  0.00  0.00    -0.048 Br
BRANCH   8  12
ATOM     12  N   UNL     1      -7.104   3.831  -7.855  0.00  0.00    -0.358 N 
ATOM     13  H   UNL     1      -6.393   4.164  -8.425  0.00  0.00    +0.142 HD
ATOM     14  H   UNL     1      -8.027   3.888  -8.147  0.00  0.00    +0.142 HD
ENDBRANCH   8  12
ENDBRANCH   3   5
BRANCH   1  15
ATOM     15  C   UNL     1      -4.288   0.564  -1.314  0.00  0.00    +0.019 C 
BRANCH  15  16
ATOM     16  N   UNL     1      -2.921   0.027  -1.343  0.00  0.00    +0.386 N 
ATOM     17  C   UNL     1      -2.879  -1.161  -2.206  0.00  0.00    -0.095 C 
ATOM     18  H   UNL     1      -2.291   0.727  -1.705  0.00  0.00    -0.081 HD
BRANCH  16  19
ATOM     19  C   UNL     1      -2.511  -0.343   0.019  0.00  0.00    -0.039 C 
BRANCH  19  22
ATOM     20  C   UNL     1      -0.011   1.531  -0.004  0.00  0.00    +0.086 C 
ATOM     21  C   UNL     1       0.011   0.024  -0.001  0.00  0.00    +0.103 A 
ATOM     22  C   UNL     1      -1.068  -0.778   0.009  0.00  0.00    -0.023 A 
ATOM     23  C   UNL     1      -0.590  -2.109   0.008  0.00  0.00    +0.043 A 
ATOM     24  C   UNL     1       0.753  -2.039  -0.002  0.00  0.00    +0.195 A 
ATOM     25  O   UNL     1       1.112  -0.745  -0.013  0.00  0.00    -0.468 OA
ENDBRANCH  19  22
ENDBRANCH  16  19
ENDBRANCH  15  16
ENDBRANCH   1  15
TORSDOF 6
