REMARK  Name = ZINC15319526
REMARK  9 active torsions:
REMARK  status: ('A' for Active; 'I' for Inactive)
REMARK    1  A    between atoms: C_1  and  C_2
REMARK    2  A    between atoms: C_2  and  C_3
REMARK    3  A    between atoms: C_2  and  C_4
REMARK    4  A    between atoms: C_4  and  C_5
REMARK    5  A    between atoms: C_12  and  O_27
REMARK    6  A    between atoms: C_13  and  O_25
REMARK    7  A    between atoms: N_20  and  N_21
REMARK    8  A    between atoms: O_25  and  C_26
REMARK    9  A    between atoms: O_27  and  C_28
REMARK                            x       y       z     vdW  Elec       q    Type
REMARK                         _______ _______ _______ _____ _____    ______ ____
ROOT
ATOM      1  C   UNL     1       0.998   1.580  -0.130  0.00  0.00    +0.019 C 
ATOM      2  C   UNL     1       1.426   1.167  -1.543  0.00  0.00    -0.069 C 
ATOM      3  C   UNL     1       2.049  -0.731  -2.905  0.00  0.00    -0.073 C 
ATOM      4  C   UNL     1       2.378  -2.221  -2.808  0.00  0.00    +0.017 C 
ATOM      5  C   UNL     1       1.161  -2.983  -2.347  0.00  0.00    -0.044 A 
ATOM      6  C   UNL     1       1.125  -4.355  -2.550  0.00  0.00    +0.053 A 
ATOM      7  C   UNL     1       0.030  -5.094  -2.141  0.00  0.00    +0.162 A 
ATOM      8  C   UNL     1      -1.040  -4.454  -1.521  0.00  0.00    +0.162 A 
ATOM      9  C   UNL     1      -0.999  -3.086  -1.322  0.00  0.00    +0.051 A 
ATOM     10  C   UNL     1       0.102  -2.348  -1.735  0.00  0.00    -0.054 A 
ATOM     11  C   UNL     1       0.094  -0.862  -1.495  0.00  0.00    -0.032 C 
ATOM     12  C   UNL     1      -0.428  -0.584  -0.079  0.00  0.00    +0.042 C 
ATOM     13  C   UNL     1      -0.320   0.904   0.183  0.00  0.00    +0.037 C 
ATOM     14  N   UNL     1      -1.311   1.568   0.648  0.00  0.00    -0.188 NA
ATOM     15  N   UNL     1       1.459  -0.311  -1.622  0.00  0.00    +0.385 N 
ATOM     16  H   UNL     1       2.037  -0.672  -0.854  0.00  0.00    -0.081 HD
ENDROOT
BRANCH  14  17
ATOM     17  N   UNL     1      -2.549   0.939   0.836  0.00  0.00    -0.191 N 
ATOM     18  C   UNL     1      -3.618   1.660   1.226  0.00  0.00    +0.317 C 
ATOM     19  O   UNL     1      -4.670   1.103   1.475  0.00  0.00    -0.251 OA
ATOM     20  N   UNL     1      -3.522   3.000   1.340  0.00  0.00    -0.312 N 
ATOM     21  H   UNL     1      -2.636  -0.015   0.686  0.00  0.00    +0.179 HD
ATOM     22  H   UNL     1      -2.707   3.452   1.074  0.00  0.00    +0.147 HD
ATOM     23  H   UNL     1      -4.269   3.511   1.689  0.00  0.00    +0.147 HD
ENDBRANCH  14  17
BRANCH   8  24
ATOM     24  O   UNL     1      -2.121  -5.171  -1.114  0.00  0.00    -0.491 OA
ATOM     25  C   UNL     1      -3.181  -4.447  -0.486  0.00  0.00    +0.277 C 
ENDBRANCH   8  24
BRANCH   7  26
ATOM     26  O   UNL     1      -0.002  -6.439  -2.342  0.00  0.00    -0.491 OA
ATOM     27  C   UNL     1       1.132  -7.025  -2.985  0.00  0.00    +0.277 C 
ENDBRANCH   7  26
BRANCH   1  28
ATOM     28  C   UNL     1       0.827   3.099  -0.066  0.00  0.00    +0.010 C 
BRANCH  28  30
ATOM     29  C   UNL     1       1.999   5.290  -0.323  0.00  0.00    +0.007 C 
ATOM     30  C   UNL     1       2.188   3.774  -0.243  0.00  0.00    -0.017 C 
ATOM     31  C   UNL     1       3.085   3.434   0.949  0.00  0.00    +0.007 C 
ENDBRANCH  28  30
ENDBRANCH   1  28
TORSDOF 5
