REMARK  Name = ZINC37950571
REMARK  6 active torsions:
REMARK  status: ('A' for Active; 'I' for Inactive)
REMARK    1  A    between atoms: C_1  and  C_2
REMARK    2  A    between atoms: C_2  and  C_3
REMARK    3  A    between atoms: C_2  and  C_10
REMARK    4  A    between atoms: C_2  and  N_13
REMARK    5  A    between atoms: N_13  and  C_14
REMARK    6  A    between atoms: C_14  and  C_15
REMARK                            x       y       z     vdW  Elec       q    Type
REMARK                         _______ _______ _______ _____ _____    ______ ____
ROOT
ATOM      1  C   UNL     1      -0.019   1.526   0.010  0.00  0.00    +0.004 C 
ATOM      2  C   UNL     1       0.002  -0.004   0.002  0.00  0.00    +0.033 C 
ENDROOT
BRANCH   2   3
ATOM      3  C   UNL     1       0.731  -0.503   1.223  0.00  0.00    -0.050 A 
ATOM      4  C   UNL     1       1.868  -1.277   1.081  0.00  0.00    +0.004 A 
ATOM      5  C   UNL     1       2.537  -1.735   2.200  0.00  0.00    +0.015 A 
ATOM      6  C   UNL     1       2.069  -1.419   3.463  0.00  0.00    +0.018 A 
ATOM      7  C   UNL     1       0.931  -0.644   3.605  0.00  0.00    +0.015 A 
ATOM      8  C   UNL     1       0.266  -0.182   2.485  0.00  0.00    +0.004 A 
ATOM      9 BR   UNL     1       2.983  -2.045   4.995  0.00  0.00    -0.050 Br
ENDBRANCH   2   3
BRANCH   2  10
ATOM     10  C   UNL     1      -1.412  -0.526   0.013  0.00  0.00    +0.204 C 
ATOM     11  O   UNL     1      -2.306   0.155   0.469  0.00  0.00    -0.277 OA
ATOM     12  N   UNL     1      -1.683  -1.749  -0.485  0.00  0.00    -0.330 N 
ATOM     13  H   UNL     1      -0.968  -2.293  -0.849  0.00  0.00    +0.145 HD
ATOM     14  H   UNL     1      -2.593  -2.084  -0.478  0.00  0.00    +0.145 HD
ENDBRANCH   2  10
BRANCH   2  15
ATOM     15  N   UNL     1       0.690  -0.478  -1.207  0.00  0.00    +0.393 N 
ATOM     16  H   UNL     1       1.636  -0.129  -1.214  0.00  0.00    -0.084 HD
ATOM     17  H   UNL     1       0.703  -1.487  -1.212  0.00  0.00    -0.084 HD
BRANCH  15  18
ATOM     18  C   UNL     1      -0.021   0.009  -2.397  0.00  0.00    -0.049 C 
BRANCH  18  19
ATOM     19  C   UNL     1       0.695  -0.485  -3.655  0.00  0.00    +0.101 C 
ATOM     20  C   UNL     1       0.028   0.120  -4.909  0.00  0.00    +0.032 C 
ATOM     21  C   UNL     1       0.059  -1.070  -5.906  0.00  0.00    +0.030 C 
ATOM     22  C   UNL     1      -0.135  -2.267  -4.942  0.00  0.00    +0.160 C 
ATOM     23  O   UNL     1       0.586  -1.910  -3.750  0.00  0.00    -0.378 OA
ENDBRANCH  18  19
ENDBRANCH  15  18
ENDBRANCH   2  15
TORSDOF 5
