REMARK  Name = ZINC08762921
REMARK  11 active torsions:
REMARK  status: ('A' for Active; 'I' for Inactive)
REMARK    1  A    between atoms: C_1  and  C_2
REMARK    2  A    between atoms: C_2  and  C_4
REMARK    3  A    between atoms: C_2  and  N_57
REMARK    4  A    between atoms: C_11  and  C_13
REMARK    5  A    between atoms: C_11  and  C_14
REMARK    6  A    between atoms: C_11  and  N_57
REMARK    7  A    between atoms: N_16  and  C_17
REMARK    8  A    between atoms: C_20  and  C_23
REMARK    9  A    between atoms: N_25  and  C_26
REMARK   10  A    between atoms: C_31  and  O_32
REMARK   11  A    between atoms: O_32  and  C_33
REMARK                            x       y       z     vdW  Elec       q    Type
REMARK                         _______ _______ _______ _____ _____    ______ ____
ROOT
ATOM      1  C   UNL     1      -5.986   3.059  -1.646  0.00  0.00    +0.203 C 
ATOM      2  O   UNL     1      -6.295   1.908  -1.419  0.00  0.00    -0.277 OA
ATOM      3  N   UNL     1      -6.234   3.598  -2.856  0.00  0.00    -0.287 N 
ATOM      4  H   UNL     1      -5.930   4.497  -3.058  0.00  0.00    +0.155 HD
ENDROOT
BRANCH   3   5
ATOM      5  C   UNL     1      -6.928   2.864  -3.817  0.00  0.00    +0.033 A 
ATOM      6  C   UNL     1      -6.725   1.491  -3.922  0.00  0.00    +0.024 A 
ATOM      7  C   UNL     1      -7.411   0.762  -4.867  0.00  0.00    +0.015 A 
ATOM      8  C   UNL     1      -8.305   1.404  -5.728  0.00  0.00    +0.037 A 
ATOM      9  C   UNL     1      -8.502   2.784  -5.624  0.00  0.00    +0.015 A 
ATOM     10  C   UNL     1      -7.816   3.506  -4.673  0.00  0.00    +0.024 A 
BRANCH   8  11
ATOM     11  C   UNL     1      -9.039   0.627  -6.746  0.00  0.00    +0.248 C 
ATOM     12  O   UNL     1      -9.817   1.187  -7.494  0.00  0.00    -0.270 OA
ATOM     13  N   UNL     1      -8.848  -0.703  -6.845  0.00  0.00    -0.279 N 
ATOM     14  H   UNL     1      -8.277  -1.160  -6.207  0.00  0.00    +0.155 HD
BRANCH  13  15
ATOM     15  C   UNL     1      -9.472  -1.426  -7.870  0.00  0.00    +0.076 A 
ATOM     16  C   UNL     1     -10.670  -0.978  -8.407  0.00  0.00    +0.027 A 
ATOM     17  C   UNL     1     -11.281  -1.690  -9.421  0.00  0.00    +0.002 A 
ATOM     18  C   UNL     1     -10.706  -2.855  -9.896  0.00  0.00    +0.004 A 
ATOM     19  C   UNL     1      -9.515  -3.310  -9.363  0.00  0.00    +0.047 A 
ATOM     20  C   UNL     1      -8.893  -2.599  -8.349  0.00  0.00    +0.141 A 
BRANCH  20  21
ATOM     21  O   UNL     1      -7.722  -3.046  -7.822  0.00  0.00    -0.493 OA
ATOM     22  C   UNL     1      -7.188  -4.257  -8.363  0.00  0.00    +0.277 C 
ENDBRANCH  20  21
ENDBRANCH  13  15
ENDBRANCH   8  11
ENDBRANCH   3   5
BRANCH   1  23
ATOM     23  C   UNL     1      -5.324   3.886  -0.574  0.00  0.00    +0.014 C 
ATOM     24  C   UNL     1      -6.192   5.107  -0.263  0.00  0.00    -0.004 C 
BRANCH  23  25
ATOM     25  N   UNL     1      -5.172   3.068   0.644  0.00  0.00    +0.391 N 
ATOM     26  H   UNL     1      -6.029   3.134   1.206  0.00  0.00    -0.084 HD
ATOM     27  H   UNL     1      -5.013   2.089   0.377  0.00  0.00    -0.084 HD
BRANCH  25  29
ATOM     28  C   UNL     1      -4.166   3.030   2.877  0.00  0.00    -0.009 C 
ATOM     29  C   UNL     1      -4.028   3.547   1.443  0.00  0.00    -0.040 C 
BRANCH  29  30
ATOM     30  C   UNL     1      -2.745   3.032   0.845  0.00  0.00    -0.026 A 
ATOM     31  C   UNL     1      -2.744   1.859   0.114  0.00  0.00    +0.005 A 
ATOM     32  C   UNL     1      -1.566   1.383  -0.430  0.00  0.00    +0.000 A 
ATOM     33  C   UNL     1      -0.388   2.087  -0.254  0.00  0.00    +0.003 A 
ATOM     34  C   UNL     1      -0.388   3.263   0.472  0.00  0.00    +0.038 A 
ATOM     35  C   UNL     1      -1.566   3.737   1.022  0.00  0.00    +0.125 A 
ATOM     36  F   UNL     1      -1.567   4.887   1.731  0.00  0.00    -0.205 F 
ENDBRANCH  29  30
ENDBRANCH  25  29
ENDBRANCH  23  25
ENDBRANCH   1  23
TORSDOF 8
