REMARK  Name = ZINC20807604
REMARK  9 active torsions:
REMARK  status: ('A' for Active; 'I' for Inactive)
REMARK    1  A    between atoms: C_1  and  C_2
REMARK    2  A    between atoms: C_6  and  N_9
REMARK    3  A    between atoms: C_7  and  C_8
REMARK    4  A    between atoms: C_10  and  C_12
REMARK    5  A    between atoms: C_12  and  N_13
REMARK    6  A    between atoms: N_16  and  C_19
REMARK    7  A    between atoms: C_19  and  C_20
REMARK    8  A    between atoms: N_22  and  C_23
REMARK    9  A    between atoms: C_24  and  C_31
REMARK                            x       y       z     vdW  Elec       q    Type
REMARK                         _______ _______ _______ _____ _____    ______ ____
ROOT
ATOM      1  N   UNL     1       1.125  -2.564  -0.234  0.00  0.00    +0.387 N 
ATOM      2  C   UNL     1       0.065  -2.104  -1.143  0.00  0.00    -0.063 C 
ATOM      3  C   UNL     1       0.067  -0.575  -1.192  0.00  0.00    +0.066 C 
ATOM      4  N   UNL     1      -0.138  -0.044   0.163  0.00  0.00    -0.298 NA
ATOM      5  C   UNL     1       0.922  -0.504   1.072  0.00  0.00    +0.066 C 
ATOM      6  C   UNL     1       0.920  -2.033   1.121  0.00  0.00    -0.063 C 
ATOM      7  H   UNL     1       2.085  -2.179  -0.609  0.00  0.00    -0.081 HD
ENDROOT
BRANCH   1   8
ATOM      8  C   UNL     1       1.205  -4.031  -0.219  0.00  0.00    +0.019 C 
BRANCH   8  10
ATOM      9  N   UNL     1       1.695  -5.845  -1.827  0.00  0.00    -0.287 N 
ATOM     10  C   UNL     1       1.670  -4.523  -1.565  0.00  0.00    +0.201 C 
ATOM     11  O   UNL     1       2.022  -3.730  -2.412  0.00  0.00    -0.278 OA
ATOM     12  H   UNL     1       1.310  -6.560  -1.086  0.00  0.00    +0.155 HD
BRANCH   9  18
ATOM     13  C   UNL     1       4.117  -9.296  -4.357  0.00  0.00    +0.044 C 
ATOM     14  C   UNL     1       3.391  -7.976  -4.298  0.00  0.00    -0.046 A 
ATOM     15  C   UNL     1       3.234  -7.222  -5.446  0.00  0.00    +0.004 A 
ATOM     16  C   UNL     1       2.568  -6.011  -5.395  0.00  0.00    +0.002 A 
ATOM     17  C   UNL     1       2.057  -5.552  -4.197  0.00  0.00    +0.023 A 
ATOM     18  C   UNL     1       2.212  -6.307  -3.043  0.00  0.00    +0.036 A 
ATOM     19  C   UNL     1       2.887  -7.520  -3.095  0.00  0.00    -0.026 A 
ATOM     20  C   UNL     1       3.063  -8.340  -1.844  0.00  0.00    +0.046 C 
ENDBRANCH   9  18
ENDBRANCH   8  10
ENDBRANCH   1   8
BRANCH   4  21
ATOM     21  C   UNL     1      -0.218   1.423   0.147  0.00  0.00    +0.180 C 
BRANCH  21  22
ATOM     22  C   UNL     1      -0.669   1.916   1.498  0.00  0.00    +0.232 C 
ATOM     23  O   UNL     1      -0.902   1.123   2.386  0.00  0.00    -0.274 OA
ATOM     24  N   UNL     1      -0.815   3.237   1.719  0.00  0.00    -0.278 N 
ATOM     25  H   UNL     1      -0.604   3.956   0.913  0.00  0.00    +0.155 HD
BRANCH  24  26
ATOM     26  C   UNL     1      -1.231   3.691   2.962  0.00  0.00    +0.084 A 
ATOM     27  C   UNL     1      -1.431   4.996   3.378  0.00  0.00    +0.068 A 
ATOM     28  C   UNL     1      -1.879   5.206   4.754  0.00  0.00    -0.023 A 
ATOM     29  C   UNL     1      -2.042   4.085   5.479  0.00  0.00    -0.004 A 
ATOM     30  S   UNL     1      -1.617   2.764   4.371  0.00  0.00    -0.077 S 
ATOM     31  C   UNL     1      -2.501   4.382   6.881  0.00  0.00    +0.043 C 
ATOM     32  C   UNL     1      -3.026   5.833   6.820  0.00  0.00    +0.010 C 
ATOM     33  C   UNL     1      -2.223   6.407   5.636  0.00  0.00    +0.037 C 
BRANCH  27  34
ATOM     34  C   UNL     1      -1.205   6.126   2.472  0.00  0.00    +0.244 C 
ATOM     35  O   UNL     1      -2.115   6.542   1.780  0.00  0.00    -0.270 OA
ATOM     36  N   UNL     1       0.011   6.704   2.405  0.00  0.00    -0.325 N 
ATOM     37  H   UNL     1       0.180   7.552   1.725  0.00  0.00    +0.145 HD
ATOM     38  H   UNL     1       0.834   6.328   3.031  0.00  0.00    +0.145 HD
ENDBRANCH  27  34
ENDBRANCH  24  26
ENDBRANCH  21  22
ENDBRANCH   4  21
TORSDOF 7
