REMARK  Name = ZINC15108115
REMARK  9 active torsions:
REMARK  status: ('A' for Active; 'I' for Inactive)
REMARK    1  A    between atoms: C_1  and  C_2
REMARK    2  A    between atoms: C_2  and  C_4
REMARK    3  A    between atoms: C_2  and  N_14
REMARK    4  A    between atoms: N_6  and  C_7
REMARK    5  A    between atoms: N_17  and  S_20
REMARK    6  A    between atoms: S_20  and  C_23
REMARK    7  A    between atoms: C_26  and  O_32
REMARK    8  A    between atoms: C_27  and  N_29
REMARK    9  A    between atoms: O_32  and  C_33
REMARK                            x       y       z     vdW  Elec       q    Type
REMARK                         _______ _______ _______ _____ _____    ______ ____
ROOT
ATOM      1  N   UNL     1       0.718  -0.504   1.183  0.00  0.00    -0.289 NA
ATOM      2  C   UNL     1       0.074  -0.027   2.414  0.00  0.00    +0.102 C 
ATOM      3  C   UNL     1       0.731  -0.700   3.624  0.00  0.00    +0.125 C 
ATOM      4  N   UNL     1       2.183  -0.474   3.553  0.00  0.00    -0.174 NA
ATOM      5  C   UNL     1       2.878  -0.800   2.299  0.00  0.00    +0.125 C 
ATOM      6  C   UNL     1       2.136  -0.123   1.141  0.00  0.00    +0.102 C 
ENDROOT
BRANCH   4   7
ATOM      7  S   UNL     1       3.013   0.132   4.852  0.00  0.00    +0.061 S 
ATOM      8  O   UNL     1       4.186   0.743   4.334  0.00  0.00    -0.153 OA
ATOM      9  O   UNL     1       2.069   0.841   5.642  0.00  0.00    -0.153 OA
BRANCH   7  10
ATOM     10  C   UNL     1       3.545  -1.243   5.817  0.00  0.00    +0.108 A 
ATOM     11  C   UNL     1       2.732  -1.738   6.821  0.00  0.00    +0.032 A 
ATOM     12  C   UNL     1       3.147  -2.815   7.579  0.00  0.00    +0.050 A 
ATOM     13  C   UNL     1       4.380  -3.402   7.332  0.00  0.00    +0.150 A 
ATOM     14  C   UNL     1       5.194  -2.904   6.325  0.00  0.00    +0.169 A 
ATOM     15  C   UNL     1       4.772  -1.829   5.566  0.00  0.00    +0.065 A 
BRANCH  14  16
ATOM     16  N   UNL     1       6.510  -3.526   6.060  0.00  0.00    +0.060 N 
ATOM     17  O   UNL     1       7.218  -3.092   5.182  0.00  0.00    -0.126 OA
ATOM     18  O   UNL     1       6.877  -4.469   6.722  0.00  0.00    -0.126 OA
ENDBRANCH  14  16
BRANCH  13  19
ATOM     19  O   UNL     1       4.791  -4.462   8.077  0.00  0.00    -0.493 OA
ATOM     20  C   UNL     1       3.902  -4.921   9.098  0.00  0.00    +0.277 C 
ENDBRANCH  13  19
ENDBRANCH   7  10
ENDBRANCH   4   7
BRANCH   1  22
ATOM     21  C   UNL     1      -0.004   1.514  -0.002  0.00  0.00    +0.034 C 
ATOM     22  C   UNL     1       0.007  -0.016  -0.006  0.00  0.00    +0.140 C 
BRANCH  22  23
ATOM     23  C   UNL     1      -1.410  -0.528   0.011  0.00  0.00    +0.234 C 
ATOM     24  O   UNL     1      -1.790  -1.231   0.924  0.00  0.00    -0.274 OA
ATOM     25  N   UNL     1      -2.256  -0.206  -0.988  0.00  0.00    -0.283 N 
ATOM     26  H   UNL     1      -1.978   0.419  -1.676  0.00  0.00    +0.155 HD
BRANCH  25  27
ATOM     27  C   UNL     1      -3.534  -0.774  -1.034  0.00  0.00    +0.052 A 
ATOM     28  C   UNL     1      -3.776  -1.995  -0.419  0.00  0.00    +0.025 A 
ATOM     29  C   UNL     1      -5.039  -2.552  -0.466  0.00  0.00    +0.002 A 
ATOM     30  C   UNL     1      -6.063  -1.896  -1.124  0.00  0.00    +0.002 A 
ATOM     31  C   UNL     1      -5.826  -0.679  -1.737  0.00  0.00    +0.022 A 
ATOM     32  C   UNL     1      -4.566  -0.113  -1.690  0.00  0.00    +0.062 A 
ATOM     33 CL   UNL     1      -4.272   1.417  -2.454  0.00  0.00    -0.082 Cl
ENDBRANCH  25  27
ENDBRANCH  22  23
ENDBRANCH   1  22
TORSDOF 7
