REMARK  Name = ZINC02658337
REMARK  14 active torsions:
REMARK  status: ('A' for Active; 'I' for Inactive)
REMARK    1  A    between atoms: C_1  and  C_2
REMARK    2  A    between atoms: C_2  and  N_3
REMARK    3  A    between atoms: C_6  and  C_19
REMARK    4  A    between atoms: C_7  and  N_18
REMARK    5  A    between atoms: N_8  and  C_11
REMARK    6  A    between atoms: C_11  and  C_12
REMARK    7  A    between atoms: C_19  and  C_21
REMARK    8  A    between atoms: C_21  and  N_64
REMARK    9  A    between atoms: C_22  and  N_64
REMARK   10  A    between atoms: C_23  and  C_24
REMARK   11  A    between atoms: C_23  and  N_64
REMARK   12  A    between atoms: N_26  and  C_27
REMARK   13  A    between atoms: C_32  and  S_33
REMARK   14  A    between atoms: S_33  and  C_34
REMARK                            x       y       z     vdW  Elec       q    Type
REMARK                         _______ _______ _______ _____ _____    ______ ____
ROOT
ATOM      1  N   UNL     1       0.044   4.129   0.098  0.00  0.00    -0.260 N 
ATOM      2  C   UNL     1      -1.163   3.527   0.096  0.00  0.00    +0.269 A 
ATOM      3  O   UNL     1      -2.186   4.187   0.114  0.00  0.00    -0.267 OA
ATOM      4  C   UNL     1      -1.218   2.060   0.065  0.00  0.00    +0.118 A 
ATOM      5  C   UNL     1      -0.000   1.357   0.051  0.00  0.00    +0.116 A 
ATOM      6  N   UNL     1       1.169   2.062   0.055  0.00  0.00    -0.277 N 
ATOM      7  C   UNL     1       1.175   3.404   0.078  0.00  0.00    +0.334 A 
ATOM      8  O   UNL     1       2.243   3.985   0.081  0.00  0.00    -0.246 OA
ENDROOT
BRANCH   5   9
ATOM      9  N   UNL     1       0.013  -0.003   0.027  0.00  0.00    -0.344 N 
ATOM     10  H   UNL     1       0.781  -0.487   0.369  0.00  0.00    +0.144 HD
ATOM     11  H   UNL     1      -0.747  -0.489  -0.332  0.00  0.00    +0.144 HD
ENDBRANCH   5   9
BRANCH   1  13
ATOM     12  C   UNL     1       0.142   6.126  -1.309  0.00  0.00    +0.027 C 
ATOM     13  C   UNL     1       0.123   5.591   0.124  0.00  0.00    +0.126 C 
ENDBRANCH   1  13
BRANCH   4  14
ATOM     14  C   UNL     1      -2.453   1.377   0.055  0.00  0.00    +0.155 C 
ATOM     15  O   UNL     1      -2.477   0.165   0.131  0.00  0.00    -0.294 OA
BRANCH  14  16
ATOM     16  C   UNL     1      -3.741   2.152  -0.051  0.00  0.00    +0.003 C 
BRANCH  16  18
ATOM     17  C   UNL     1      -4.875   0.376  -1.243  0.00  0.00    -0.095 C 
ATOM     18  N   UNL     1      -4.873   1.202  -0.017  0.00  0.00    +0.388 N 
ATOM     19  H   UNL     1      -4.768   0.587   0.799  0.00  0.00    -0.081 HD
BRANCH  18  20
ATOM     20  C   UNL     1      -6.149   1.939   0.098  0.00  0.00    +0.019 C 
BRANCH  20  21
ATOM     21  C   UNL     1      -7.259   0.953   0.351  0.00  0.00    +0.201 C 
ATOM     22  O   UNL     1      -7.015  -0.234   0.410  0.00  0.00    -0.278 OA
ATOM     23  N   UNL     1      -8.524   1.389   0.511  0.00  0.00    -0.286 N 
ATOM     24  H   UNL     1      -8.734   2.328   0.383  0.00  0.00    +0.155 HD
BRANCH  23  25
ATOM     25  C   UNL     1      -9.538   0.487   0.862  0.00  0.00    +0.047 A 
ATOM     26  C   UNL     1      -9.223  -0.686   1.532  0.00  0.00    +0.024 A 
ATOM     27  C   UNL     1     -10.225  -1.572   1.882  0.00  0.00    +0.002 A 
ATOM     28  C   UNL     1     -11.541  -1.298   1.557  0.00  0.00    +0.001 A 
ATOM     29  C   UNL     1     -11.864  -0.135   0.885  0.00  0.00    +0.016 A 
ATOM     30  C   UNL     1     -10.865   0.763   0.534  0.00  0.00    +0.029 A 
BRANCH  30  31
ATOM     31  S   UNL     1     -11.273   2.247  -0.324  0.00  0.00    -0.127 S 
ATOM     32  C   UNL     1     -13.075   2.160  -0.519  0.00  0.00    +0.090 C 
ENDBRANCH  30  31
ENDBRANCH  23  25
ENDBRANCH  20  21
ENDBRANCH  18  20
ENDBRANCH  16  18
ENDBRANCH  14  16
ENDBRANCH   4  14
BRANCH   6  33
ATOM     33  C   UNL     1       2.443   1.339   0.035  0.00  0.00    +0.163 C 
BRANCH  33  34
ATOM     34  C   UNL     1       2.871   1.115  -1.393  0.00  0.00    -0.028 A 
ATOM     35  C   UNL     1       2.481  -0.031  -2.059  0.00  0.00    +0.005 A 
ATOM     36  C   UNL     1       2.870  -0.234  -3.370  0.00  0.00    +0.000 A 
ATOM     37  C   UNL     1       3.657   0.704  -4.011  0.00  0.00    +0.000 A 
ATOM     38  C   UNL     1       4.051   1.848  -3.343  0.00  0.00    +0.000 A 
ATOM     39  C   UNL     1       3.659   2.054  -2.034  0.00  0.00    +0.005 A 
ENDBRANCH  33  34
ENDBRANCH   6  33
TORSDOF 11
