REMARK  Name = ZINC06293185
REMARK  5 active torsions:
REMARK  status: ('A' for Active; 'I' for Inactive)
REMARK    1  A    between atoms: C_5  and  N_8
REMARK    2  A    between atoms: N_8  and  C_9
REMARK    3  A    between atoms: C_9  and  N_11
REMARK    4  A    between atoms: C_12  and  C_14
REMARK    5  A    between atoms: C_14  and  C_15
REMARK                            x       y       z     vdW  Elec       q    Type
REMARK                         _______ _______ _______ _____ _____    ______ ____
ROOT
ATOM      1  N   UNL     1       0.007  -0.001  -0.038  0.00  0.00    -0.268 N 
ATOM      2  C   UNL     1       1.183  -0.655  -0.094  0.00  0.00    +0.219 C 
ATOM      3  O   UNL     1       2.222  -0.032  -0.139  0.00  0.00    -0.275 OA
ATOM      4  H   UNL     1      -0.825  -0.499  -0.002  0.00  0.00    +0.156 HD
ENDROOT
BRANCH   1   5
ATOM      5  C   UNL     1      -0.015   1.347  -0.032  0.00  0.00    +0.137 C 
ATOM      6  S   UNL     1       1.452   2.227  -0.096  0.00  0.00    -0.018 S 
BRANCH   5   7
ATOM      7  N   UNL     1      -1.192   2.002   0.019  0.00  0.00    -0.321 N 
ATOM      8  H   UNL     1      -2.025   1.506  -0.024  0.00  0.00    +0.148 HD
BRANCH   7  13
ATOM      9  C   UNL     1      -0.447   3.900   1.391  0.00  0.00    +0.007 C 
ATOM     10  C   UNL     1      -0.491   5.446   1.462  0.00  0.00    -0.077 C 
ATOM     11  C   UNL     1      -2.649   5.487   0.361  0.00  0.00    -0.077 C 
ATOM     12  C   UNL     1      -2.660   3.960   0.249  0.00  0.00    +0.007 C 
ATOM     13  C   UNL     1      -1.214   3.462   0.137  0.00  0.00    +0.029 C 
ATOM     14  C   UNL     1      -0.571   4.101  -1.100  0.00  0.00    +0.007 C 
ATOM     15  C   UNL     1      -0.617   5.624  -0.950  0.00  0.00    -0.077 C 
ATOM     16  N   UNL     1      -1.262   5.998   0.327  0.00  0.00    +0.380 N 
ATOM     17  H   UNL     1      -1.281   7.021   0.404  0.00  0.00    -0.082 HD
ENDBRANCH   7  13
ENDBRANCH   5   7
ENDBRANCH   1   5
BRANCH   2  18
ATOM     18  C   UNL     1       1.208  -2.162  -0.101  0.00  0.00    +0.103 C 
BRANCH  18  19
ATOM     19  C   UNL     1       2.657  -2.648  -0.169  0.00  0.00    -0.020 C 
ATOM     20  C   UNL     1       3.312  -2.122  -1.447  0.00  0.00    +0.011 C 
ATOM     21  C   UNL     1       4.761  -2.608  -1.515  0.00  0.00    -0.010 C 
ATOM     22  C   UNL     1       4.786  -4.138  -1.522  0.00  0.00    +0.007 C 
ATOM     23  C   UNL     1       4.131  -4.664  -0.243  0.00  0.00    -0.010 C 
ATOM     24  C   UNL     1       2.682  -4.178  -0.175  0.00  0.00    +0.011 C 
ATOM     25  C   UNL     1       4.900  -4.147   0.974  0.00  0.00    +0.007 C 
ATOM     26  C   UNL     1       4.875  -2.617   0.981  0.00  0.00    -0.010 C 
ATOM     27  C   UNL     1       5.530  -2.091  -0.298  0.00  0.00    +0.007 C 
ATOM     28  C   UNL     1       3.426  -2.131   1.049  0.00  0.00    +0.011 C 
ENDBRANCH  18  19
ENDBRANCH   2  18
TORSDOF 5
