REMARK  Name = ZINC66542569
REMARK  9 active torsions:
REMARK  status: ('A' for Active; 'I' for Inactive)
REMARK    1  A    between atoms: C_1  and  C_2
REMARK    2  A    between atoms: C_2  and  N_3
REMARK    3  A    between atoms: N_3  and  C_4
REMARK    4  A    between atoms: N_3  and  C_6
REMARK    5  A    between atoms: C_4  and  C_5
REMARK    6  A    between atoms: N_9  and  C_12
REMARK    7  A    between atoms: C_12  and  C_13
REMARK    8  A    between atoms: N_15  and  C_16
REMARK    9  A    between atoms: C_17  and  C_25
REMARK                            x       y       z     vdW  Elec       q    Type
REMARK                         _______ _______ _______ _____ _____    ______ ____
ROOT
ATOM      1  C   UNL     1      -5.012  -5.378   1.526  0.00  0.00    +0.232 C 
ATOM      2  O   UNL     1      -5.693  -4.400   1.303  0.00  0.00    -0.274 OA
ATOM      3  N   UNL     1      -5.599  -6.572   1.745  0.00  0.00    -0.278 N 
ATOM      4  H   UNL     1      -5.054  -7.355   1.923  0.00  0.00    +0.155 HD
ENDROOT
BRANCH   3   5
ATOM      5  C   UNL     1      -6.981  -6.681   1.715  0.00  0.00    +0.084 A 
ATOM      6  C   UNL     1      -7.751  -7.815   1.921  0.00  0.00    +0.068 A 
ATOM      7  C   UNL     1      -9.193  -7.663   1.835  0.00  0.00    -0.023 A 
ATOM      8  C   UNL     1      -9.600  -6.405   1.558  0.00  0.00    -0.004 A 
ATOM      9  S   UNL     1      -8.106  -5.468   1.429  0.00  0.00    -0.077 S 
ATOM     10  C   UNL     1     -11.012  -5.931   1.405  0.00  0.00    +0.043 C 
ATOM     11  C   UNL     1     -11.918  -7.159   1.234  0.00  0.00    +0.005 C 
ATOM     12  C   UNL     1     -11.569  -8.186   2.315  0.00  0.00    +0.005 C 
ATOM     13  C   UNL     1     -10.193  -8.793   2.032  0.00  0.00    +0.037 C 
BRANCH   6  14
ATOM     14  C   UNL     1      -7.135  -9.113   2.212  0.00  0.00    +0.244 C 
ATOM     15  O   UNL     1      -6.919  -9.439   3.365  0.00  0.00    -0.270 OA
ATOM     16  N   UNL     1      -6.809  -9.946   1.204  0.00  0.00    -0.325 N 
ATOM     17  H   UNL     1      -6.981  -9.686   0.286  0.00  0.00    +0.145 HD
ATOM     18  H   UNL     1      -6.402 -10.805   1.397  0.00  0.00    +0.145 HD
ENDBRANCH   6  14
ENDBRANCH   3   5
BRANCH   1  19
ATOM     19  C   UNL     1      -3.510  -5.260   1.558  0.00  0.00    +0.180 C 
BRANCH  19  23
ATOM     20  C   UNL     1      -1.711  -1.714  -0.014  0.00  0.00    -0.066 C 
ATOM     21  C   UNL     1      -1.354  -2.177   1.401  0.00  0.00    +0.000 C 
ATOM     22  C   UNL     1      -1.691  -3.662   1.547  0.00  0.00    +0.083 C 
ATOM     23  N   UNL     1      -3.123  -3.868   1.292  0.00  0.00    -0.294 NA
ATOM     24  C   UNL     1      -3.480  -3.475  -0.077  0.00  0.00    +0.083 C 
ATOM     25  C   UNL     1      -3.196  -1.984  -0.271  0.00  0.00    +0.000 C 
BRANCH  20  26
ATOM     26  N   UNL     1      -1.444  -0.275  -0.142  0.00  0.00    +0.381 N 
ATOM     27  H   UNL     1      -1.766   0.048  -1.042  0.00  0.00    -0.081 HD
BRANCH  26  29
ATOM     28  C   UNL     1      -1.977   1.956   0.714  0.00  0.00    -0.017 C 
ATOM     29  C   UNL     1      -2.153   0.451   0.920  0.00  0.00    -0.082 C 
ENDBRANCH  26  29
BRANCH  26  30
ATOM     30  C   UNL     1      -0.001  -0.032  -0.022  0.00  0.00    -0.082 C 
ATOM     31  C   UNL     1       0.724  -0.665  -1.211  0.00  0.00    -0.017 C 
ENDBRANCH  26  30
ENDBRANCH  20  26
ENDBRANCH  19  23
ENDBRANCH   1  19
TORSDOF 7
