REMARK  Name = ZINC12694809
REMARK  4 active torsions:
REMARK  status: ('A' for Active; 'I' for Inactive)
REMARK    1  A    between atoms: C_1  and  C_2
REMARK    2  A    between atoms: C_7  and  C_26
REMARK    3  A    between atoms: C_10  and  C_12
REMARK    4  A    between atoms: C_12  and  N_13
REMARK                            x       y       z     vdW  Elec       q    Type
REMARK                         _______ _______ _______ _____ _____    ______ ____
ROOT
ATOM      1  N   UNL     1       3.518   3.780  -0.250  0.00  0.00    -0.290 N 
ATOM      2  C   UNL     1       4.636   3.053   0.012  0.00  0.00    +0.203 A 
ATOM      3  N   UNL     1       4.635   1.750  -0.086  0.00  0.00    -0.230 NA
ATOM      4  C   UNL     1       3.535   1.094  -0.448  0.00  0.00    +0.116 A 
ATOM      5  C   UNL     1       2.336   1.758  -0.738  0.00  0.00    +0.076 A 
ATOM      6  C   UNL     1       2.368   3.186  -0.621  0.00  0.00    +0.263 A 
ATOM      7  O   UNL     1       1.373   3.850  -0.853  0.00  0.00    -0.267 OA
ATOM      8  C   UNL     1       1.202   0.905  -1.124  0.00  0.00    -0.023 A 
ATOM      9  C   UNL     1       1.424  -0.420  -1.163  0.00  0.00    -0.004 A 
ATOM     10  S   UNL     1       3.128  -0.614  -0.693  0.00  0.00    -0.073 S 
ATOM     11  C   UNL     1       0.198  -1.190  -1.573  0.00  0.00    +0.043 C 
ATOM     12  C   UNL     1      -0.729  -0.131  -2.210  0.00  0.00    +0.010 C 
ATOM     13  C   UNL     1      -0.258   1.159  -1.511  0.00  0.00    +0.037 C 
ENDROOT
BRANCH   1  14
ATOM     14  C   UNL     1       3.566   5.239  -0.125  0.00  0.00    +0.222 C 
BRANCH  14  22
ATOM     15  C   UNL     1       4.134   6.581  -4.025  0.00  0.00    +0.028 C 
ATOM     16  C   UNL     1       3.763   7.690  -3.039  0.00  0.00    +0.073 C 
ATOM     17  C   UNL     1       4.777   8.828  -3.147  0.00  0.00    +0.022 C 
ATOM     18  C   UNL     1       4.487   9.870  -2.063  0.00  0.00    +0.004 C 
ATOM     19  C   UNL     1       4.628   9.225  -0.683  0.00  0.00    +0.022 C 
ATOM     20  C   UNL     1       3.608   8.091  -0.547  0.00  0.00    +0.073 C 
ATOM     21  N   UNL     1       3.785   7.159  -1.669  0.00  0.00    -0.294 N 
ATOM     22  C   UNL     1       3.969   5.843  -1.446  0.00  0.00    +0.236 C 
ATOM     23  O   UNL     1       4.459   5.144  -2.308  0.00  0.00    -0.274 OA
ATOM     24  C   UNL     1       3.834   7.352   0.774  0.00  0.00    +0.028 C 
ENDBRANCH  14  22
ENDBRANCH   1  14
TORSDOF 2
