REMARK  Name = ZINC04282395
REMARK  7 active torsions:
REMARK  status: ('A' for Active; 'I' for Inactive)
REMARK    1  A    between atoms: C_8  and  C_10
REMARK    2  A    between atoms: C_10  and  O_12
REMARK    3  A    between atoms: O_12  and  C_13
REMARK    4  A    between atoms: C_16  and  C_19
REMARK    5  A    between atoms: N_20  and  N_21
REMARK    6  A    between atoms: C_22  and  C_24
REMARK    7  A    between atoms: N_26  and  C_27
REMARK                            x       y       z     vdW  Elec       q    Type
REMARK                         _______ _______ _______ _____ _____    ______ ____
ROOT
ATOM      1  C   UNL     1       2.249   1.102  -0.018  0.00  0.00    +0.132 A 
ATOM      2  C   UNL     1       2.087  -0.277  -0.070  0.00  0.00    +0.047 A 
ATOM      3  C   UNL     1       3.191  -1.099  -0.142  0.00  0.00    +0.013 A 
ATOM      4  C   UNL     1       4.474  -0.545  -0.152  0.00  0.00    -0.005 A 
ATOM      5  C   UNL     1       4.631   0.843  -0.093  0.00  0.00    +0.013 A 
ATOM      6  C   UNL     1       3.522   1.658  -0.026  0.00  0.00    +0.047 A 
ENDROOT
BRANCH   4   7
ATOM      7  C   UNL     1       5.657  -1.420  -0.224  0.00  0.00    +0.138 C 
ATOM      8  N   UNL     1       5.508  -2.710  -0.278  0.00  0.00    -0.187 NA
BRANCH   8   9
ATOM      9  N   UNL     1       6.633  -3.542  -0.347  0.00  0.00    -0.199 N 
ATOM     10  C   UNL     1       6.479  -4.880  -0.403  0.00  0.00    +0.318 C 
ATOM     11  O   UNL     1       5.365  -5.364  -0.395  0.00  0.00    -0.263 OA
ATOM     12  H   UNL     1       7.523  -3.155  -0.353  0.00  0.00    +0.178 HD
BRANCH  10  13
ATOM     13  C   UNL     1       7.676  -5.765  -0.476  0.00  0.00    +0.305 C 
ATOM     14  O   UNL     1       8.790  -5.282  -0.485  0.00  0.00    -0.265 OA
ATOM     15  N   UNL     1       7.522  -7.103  -0.532  0.00  0.00    -0.278 N 
ATOM     16  H   UNL     1       6.635  -7.486  -0.611  0.00  0.00    +0.155 HD
BRANCH  15  17
ATOM     17  C   UNL     1       8.642  -7.938  -0.478  0.00  0.00    +0.034 A 
ATOM     18  C   UNL     1       8.594  -9.204  -1.048  0.00  0.00    +0.025 A 
ATOM     19  C   UNL     1       9.703 -10.025  -0.997  0.00  0.00    +0.022 A 
ATOM     20  C   UNL     1      10.858  -9.592  -0.369  0.00  0.00    +0.041 A 
ATOM     21  C   UNL     1      10.907  -8.334   0.204  0.00  0.00    +0.022 A 
ATOM     22  C   UNL     1       9.803  -7.506   0.151  0.00  0.00    +0.025 A 
ATOM     23 CL   UNL     1      12.249 -10.629  -0.302  0.00  0.00    -0.084 Cl
ENDBRANCH  15  17
ENDBRANCH  10  13
ENDBRANCH   8   9
ENDBRANCH   4   7
BRANCH   1  24
ATOM     24  O   UNL     1       1.158   1.909   0.048  0.00  0.00    -0.422 OA
BRANCH  24  25
ATOM     25  C   UNL     1       0.819   2.573  -1.075  0.00  0.00    +0.353 C 
ATOM     26  O   UNL     1       1.531   2.507  -2.059  0.00  0.00    -0.244 OA
BRANCH  25  34
ATOM     27  C   UNL     1      -3.946   6.271  -2.581  0.00  0.00    +0.001 A 
ATOM     28  C   UNL     1      -4.515   6.134  -1.321  0.00  0.00    +0.001 A 
ATOM     29  C   UNL     1      -3.890   5.348  -0.375  0.00  0.00    +0.016 A 
ATOM     30  C   UNL     1      -2.710   4.710  -0.693  0.00  0.00    +0.022 A 
ATOM     31  C   UNL     1      -2.108   4.831  -1.968  0.00  0.00    +0.008 A 
ATOM     32  C   UNL     1      -2.785   5.649  -2.910  0.00  0.00    +0.010 A 
ATOM     33  C   UNL     1      -0.903   4.124  -2.136  0.00  0.00    +0.070 A 
ATOM     34  C   UNL     1      -0.405   3.381  -1.109  0.00  0.00    +0.116 A 
ATOM     35  S   UNL     1      -1.603   3.638   0.188  0.00  0.00    -0.080 S 
ATOM     36 CL   UNL     1      -0.057   4.194  -3.650  0.00  0.00    -0.082 Cl
ENDBRANCH  25  34
ENDBRANCH  24  25
ENDBRANCH   1  24
TORSDOF 7
