REMARK  Name = ZINC66939253
REMARK  7 active torsions:
REMARK  status: ('A' for Active; 'I' for Inactive)
REMARK    1  A    between atoms: C_1  and  C_2
REMARK    2  A    between atoms: C_2  and  C_4
REMARK    3  A    between atoms: C_2  and  N_18
REMARK    4  A    between atoms: C_4  and  N_5
REMARK    5  A    between atoms: N_5  and  C_6
REMARK    6  A    between atoms: C_6  and  C_8
REMARK    7  A    between atoms: C_6  and  C_15
REMARK                            x       y       z     vdW  Elec       q    Type
REMARK                         _______ _______ _______ _____ _____    ______ ____
ROOT
ATOM      1  N   UNL     1       0.813  -1.732   1.537  0.00  0.00    -0.304 NA
ATOM      2  H   UNL     1      -0.118  -2.103   1.649  0.00  0.00    +0.123 HD
ENDROOT
BRANCH   1   3
ATOM      3  C   UNL     1       0.776  -0.283   1.292  0.00  0.00    +0.066 C 
BRANCH   3   5
ATOM      4  C   UNL     1      -0.133   1.506  -0.196  0.00  0.00    -0.012 C 
ATOM      5  C   UNL     1       0.018  -0.005  -0.007  0.00  0.00    -0.057 C 
BRANCH   5   6
ATOM      6  N   UNL     1      -1.312  -0.625   0.060  0.00  0.00    +0.385 N 
ATOM      7  C   UNL     1      -2.053  -0.336  -1.177  0.00  0.00    -0.073 C 
ATOM      8  C   UNL     1      -3.293  -1.230  -1.224  0.00  0.00    +0.017 C 
ATOM      9  C   UNL     1      -4.054  -1.114   0.073  0.00  0.00    -0.048 A 
ATOM     10  C   UNL     1      -5.366  -1.559   0.116  0.00  0.00    +0.004 A 
ATOM     11  C   UNL     1      -6.093  -1.472   1.286  0.00  0.00    +0.000 A 
ATOM     12  C   UNL     1      -5.509  -0.939   2.420  0.00  0.00    +0.000 A 
ATOM     13  C   UNL     1      -4.203  -0.494   2.378  0.00  0.00    +0.002 A 
ATOM     14  C   UNL     1      -3.472  -0.579   1.202  0.00  0.00    -0.061 A 
ATOM     15  C   UNL     1      -2.053  -0.074   1.199  0.00  0.00    -0.042 C 
ATOM     16  H   UNL     1      -1.215  -1.623   0.172  0.00  0.00    -0.081 HD
ENDBRANCH   5   6
ENDBRANCH   3   5
ENDBRANCH   1   3
BRANCH   1  17
ATOM     17  C   UNL     1       1.649  -2.047   2.703  0.00  0.00    +0.171 C 
BRANCH  17  18
ATOM     18  C   UNL     1       1.208  -3.360   3.297  0.00  0.00    -0.021 A 
ATOM     19  C   UNL     1       0.858  -4.410   2.468  0.00  0.00    +0.008 A 
ATOM     20  C   UNL     1       0.454  -5.615   3.011  0.00  0.00    +0.038 A 
ATOM     21  C   UNL     1       0.399  -5.770   4.386  0.00  0.00    +0.123 A 
ATOM     22  C   UNL     1       0.749  -4.718   5.215  0.00  0.00    +0.038 A 
ATOM     23  C   UNL     1       1.158  -3.516   4.670  0.00  0.00    +0.008 A 
ATOM     24  F   UNL     1       0.003  -6.947   4.918  0.00  0.00    -0.205 F 
ENDBRANCH  17  18
BRANCH  17  25
ATOM     25  C   UNL     1       3.090  -2.148   2.276  0.00  0.00    +0.232 C 
ATOM     26  O   UNL     1       3.392  -1.974   1.114  0.00  0.00    -0.274 OA
ATOM     27  N   UNL     1       4.044  -2.432   3.184  0.00  0.00    -0.328 N 
ATOM     28  H   UNL     1       3.803  -2.571   4.114  0.00  0.00    +0.145 HD
ATOM     29  H   UNL     1       4.972  -2.497   2.909  0.00  0.00    +0.145 HD
ENDBRANCH  17  25
ENDBRANCH   1  17
TORSDOF 6
