REMARK  Name = ZINC43222739
REMARK  12 active torsions:
REMARK  status: ('A' for Active; 'I' for Inactive)
REMARK    1  A    between atoms: C_1  and  C_2
REMARK    2  A    between atoms: C_2  and  C_3
REMARK    3  A    between atoms: C_3  and  C_4
REMARK    4  A    between atoms: C_4  and  C_5
REMARK    5  A    between atoms: C_5  and  N_6
REMARK    6  A    between atoms: C_7  and  C_9
REMARK    7  A    between atoms: C_14  and  C_16
REMARK    8  A    between atoms: N_18  and  C_19
REMARK    9  A    between atoms: C_19  and  C_21
REMARK   10  A    between atoms: C_19  and  C_22
REMARK   11  A    between atoms: C_22  and  C_23
REMARK   12  A    between atoms: C_23  and  C_24
REMARK                            x       y       z     vdW  Elec       q    Type
REMARK                         _______ _______ _______ _____ _____    ______ ____
ROOT
ATOM      1  C   UNL     1       2.078  -6.153  -3.560  0.00  0.00    +0.068 C 
ATOM      2  C   UNL     1       0.639  -6.708  -3.621  0.00  0.00    -0.069 C 
ATOM      3  N   UNL     1       0.393  -6.952  -5.066  0.00  0.00    +0.380 N 
ATOM      4  C   UNL     1       1.680  -7.498  -5.568  0.00  0.00    -0.069 C 
ATOM      5  C   UNL     1       2.765  -6.672  -4.840  0.00  0.00    +0.068 C 
ATOM      6  H   UNL     1      -0.348  -7.626  -5.188  0.00  0.00    -0.086 HD
ATOM      7  H   UNL     1       0.168  -6.088  -5.536  0.00  0.00    -0.086 HD
ENDROOT
BRANCH   1   9
ATOM      8  N   UNL     1       1.475  -3.986  -2.532  0.00  0.00    -0.315 N 
ATOM      9  C   UNL     1       2.058  -4.646  -3.552  0.00  0.00    +0.215 C 
ATOM     10  O   UNL     1       2.566  -4.028  -4.463  0.00  0.00    -0.276 OA
ATOM     11  H   UNL     1       1.069  -4.480  -1.803  0.00  0.00    +0.149 HD
BRANCH   8  12
ATOM     12  C   UNL     1       1.455  -2.521  -2.524  0.00  0.00    +0.104 C 
BRANCH  12  13
ATOM     13  C   UNL     1       0.739  -2.027  -1.265  0.00  0.00    +0.019 C 
BRANCH  13  14
ATOM     14  C   UNL     1       0.718  -0.497  -1.257  0.00  0.00    +0.001 C 
BRANCH  14  16
ATOM     15  C   UNL     1      -0.019   1.526   0.010  0.00  0.00    +0.004 C 
ATOM     16  C   UNL     1       0.002  -0.004   0.002  0.00  0.00    -0.003 C 
ENDBRANCH  14  16
ENDBRANCH  13  14
ENDBRANCH  12  13
ENDBRANCH   8  12
ENDBRANCH   1   9
BRANCH   5  17
ATOM     17  C   UNL     1       3.941  -7.547  -4.485  0.00  0.00    +0.215 C 
ATOM     18  O   UNL     1       4.218  -7.747  -3.322  0.00  0.00    -0.276 OA
ATOM     19  N   UNL     1       4.683  -8.106  -5.461  0.00  0.00    -0.313 N 
ATOM     20  H   UNL     1       4.461  -7.946  -6.392  0.00  0.00    +0.149 HD
BRANCH  19  21
ATOM     21  C   UNL     1       5.825  -8.956  -5.116  0.00  0.00    +0.070 C 
ATOM     22  C   UNL     1       5.341 -10.386  -4.868  0.00  0.00    +0.028 C 
BRANCH  21  23
ATOM     23  C   UNL     1       6.831  -8.951  -6.270  0.00  0.00    +0.026 C 
BRANCH  23  24
ATOM     24  C   UNL     1       7.409  -7.545  -6.437  0.00  0.00    +0.037 C 
BRANCH  24  25
ATOM     25  C   UNL     1       8.399  -7.541  -7.573  0.00  0.00    -0.047 A 
ATOM     26  C   UNL     1       9.732  -7.814  -7.330  0.00  0.00    +0.003 A 
ATOM     27  C   UNL     1      10.640  -7.811  -8.371  0.00  0.00    +0.000 A 
ATOM     28  C   UNL     1      10.216  -7.533  -9.658  0.00  0.00    +0.000 A 
ATOM     29  C   UNL     1       8.883  -7.260  -9.902  0.00  0.00    +0.000 A 
ATOM     30  C   UNL     1       7.973  -7.268  -8.860  0.00  0.00    +0.003 A 
ENDBRANCH  24  25
ENDBRANCH  23  24
ENDBRANCH  21  23
ENDBRANCH  19  21
ENDBRANCH   5  17
TORSDOF 10
