REMARK  Name = ZINC09007736
REMARK  11 active torsions:
REMARK  status: ('A' for Active; 'I' for Inactive)
REMARK    1  A    between atoms: C_1  and  C_2
REMARK    2  A    between atoms: C_5  and  C_37
REMARK    3  A    between atoms: C_6  and  N_8
REMARK    4  A    between atoms: C_9  and  C_11
REMARK    5  A    between atoms: C_11  and  S_12
REMARK    6  A    between atoms: S_12  and  C_13
REMARK    7  A    between atoms: C_14  and  C_35
REMARK    8  A    between atoms: C_15  and  C_30
REMARK    9  A    between atoms: C_17  and  C_21
REMARK   10  A    between atoms: C_18  and  C_20
REMARK   11  A    between atoms: N_23  and  C_24
REMARK                            x       y       z     vdW  Elec       q    Type
REMARK                         _______ _______ _______ _____ _____    ______ ____
ROOT
ATOM      1  C   UNL     1       0.619   0.639   2.566  0.00  0.00    +0.093 C 
ATOM      2  C   UNL     1       0.692   0.793   3.916  0.00  0.00    +0.159 C 
ATOM      3  C   UNL     1       1.782   0.139   4.716  0.00  0.00    +0.086 C 
ATOM      4  C   UNL     1       2.464  -0.934   3.917  0.00  0.00    +0.045 C 
ATOM      5  C   UNL     1       2.332  -1.012   2.584  0.00  0.00    +0.048 C 
ATOM      6  N   UNL     1       1.550  -0.123   1.898  0.00  0.00    -0.248 NA
ATOM      7  C   UNL     1       3.048  -2.104   1.833  0.00  0.00    +0.066 C 
ENDROOT
BRANCH   3   8
ATOM      8  C   UNL     1       2.795   1.183   5.109  0.00  0.00    -0.001 A 
ATOM      9  C   UNL     1       3.168   1.587   6.348  0.00  0.00    +0.012 A 
ATOM     10  C   UNL     1       4.129   2.573   6.471  0.00  0.00    +0.008 A 
ATOM     11  C   UNL     1       4.670   3.107   5.348  0.00  0.00    +0.045 A 
ATOM     12  S   UNL     1       3.820   2.205   4.063  0.00  0.00    -0.101 S 
ENDBRANCH   3   8
BRANCH   4  13
ATOM     13  C   UNL     1       3.271  -1.885   4.587  0.00  0.00    +0.247 C 
ATOM     14  O   UNL     1       3.831  -2.762   3.954  0.00  0.00    -0.270 OA
ATOM     15  N   UNL     1       3.420  -1.819   5.925  0.00  0.00    -0.282 N 
ATOM     16  H   UNL     1       2.915  -1.169   6.437  0.00  0.00    +0.155 HD
BRANCH  15  17
ATOM     17  C   UNL     1       4.301  -2.689   6.574  0.00  0.00    +0.034 A 
ATOM     18  C   UNL     1       4.015  -3.143   7.855  0.00  0.00    +0.023 A 
ATOM     19  C   UNL     1       4.885  -4.006   8.491  0.00  0.00    +0.002 A 
ATOM     20  C   UNL     1       6.046  -4.410   7.858  0.00  0.00    +0.000 A 
ATOM     21  C   UNL     1       6.337  -3.956   6.585  0.00  0.00    +0.002 A 
ATOM     22  C   UNL     1       5.469  -3.097   5.941  0.00  0.00    +0.023 A 
ENDBRANCH  15  17
ENDBRANCH   4  13
BRANCH   2  23
ATOM     23  C   UNL     1      -0.291   1.588   4.587  0.00  0.00    +0.074 C 
ATOM     24  N   UNL     1      -1.072   2.219   5.120  0.00  0.00    -0.196 NA
ENDBRANCH   2  23
BRANCH   1  25
ATOM     25  S   UNL     1      -0.679   1.422   1.667  0.00  0.00    -0.100 S 
BRANCH  25  26
ATOM     26  C   UNL     1      -0.271   0.877  -0.011  0.00  0.00    +0.171 C 
BRANCH  26  28
ATOM     27  N   UNL     1      -1.173   1.168  -2.296  0.00  0.00    -0.285 N 
ATOM     28  C   UNL     1      -1.277   1.442  -0.980  0.00  0.00    +0.227 C 
ATOM     29  O   UNL     1      -2.181   2.144  -0.577  0.00  0.00    -0.275 OA
ATOM     30  H   UNL     1      -0.408   0.673  -2.629  0.00  0.00    +0.155 HD
BRANCH  27  36
ATOM     31  C   UNL     1      -5.809   2.606  -3.077  0.00  0.00    +0.044 C 
ATOM     32  C   UNL     1      -4.424   2.301  -3.587  0.00  0.00    -0.049 A 
ATOM     33  C   UNL     1      -4.135   2.445  -4.932  0.00  0.00    +0.004 A 
ATOM     34  C   UNL     1      -2.866   2.166  -5.403  0.00  0.00    +0.005 A 
ATOM     35  C   UNL     1      -1.880   1.748  -4.531  0.00  0.00    -0.029 A 
ATOM     36  C   UNL     1      -2.168   1.597  -3.181  0.00  0.00    +0.037 A 
ATOM     37  C   UNL     1      -3.444   1.878  -2.711  0.00  0.00    +0.027 A 
ATOM     38  C   UNL     1      -0.494   1.450  -5.045  0.00  0.00    +0.045 C 
ENDBRANCH  27  36
ENDBRANCH  26  28
ENDBRANCH  25  26
ENDBRANCH   1  25
TORSDOF 8
