REMARK  Name = ZINC43253992
REMARK  9 active torsions:
REMARK  status: ('A' for Active; 'I' for Inactive)
REMARK    1  A    between atoms: C_1  and  C_2
REMARK    2  A    between atoms: C_2  and  C_4
REMARK    3  A    between atoms: C_2  and  N_21
REMARK    4  A    between atoms: C_4  and  C_6
REMARK    5  A    between atoms: C_4  and  N_12
REMARK    6  A    between atoms: N_12  and  C_13
REMARK    7  A    between atoms: N_12  and  C_16
REMARK    8  A    between atoms: C_13  and  C_14
REMARK    9  A    between atoms: C_14  and  O_15
REMARK                            x       y       z     vdW  Elec       q    Type
REMARK                         _______ _______ _______ _____ _____    ______ ____
ROOT
ATOM      1  C   UNL     1       0.537  -0.414   0.505  0.00  0.00    -0.014 C 
ENDROOT
BRANCH   1   2
ATOM      2  C   UNL     1      -0.176  -0.402   1.832  0.00  0.00    -0.021 A 
ATOM      3  C   UNL     1      -1.416   0.059   2.130  0.00  0.00    +0.011 A 
ATOM      4  C   UNL     1      -1.871  -0.033   3.433  0.00  0.00    +0.028 A 
ATOM      5  C   UNL     1      -1.062  -0.582   4.374  0.00  0.00    +0.078 A 
ATOM      6  S   UNL     1       0.388  -0.996   3.418  0.00  0.00    -0.083 S 
ATOM      7 CL   UNL     1      -1.362  -0.824   6.066  0.00  0.00    -0.076 Cl
ENDBRANCH   1   2
BRANCH   1   9
ATOM      8  C   UNL     1       2.058  -1.733  -0.976  0.00  0.00    +0.022 C 
ATOM      9  C   UNL     1       1.236  -1.762   0.315  0.00  0.00    +0.039 C 
BRANCH   9  10
ATOM     10  N   UNL     1       0.228  -2.828   0.229  0.00  0.00    -0.329 NA
ATOM     11  H   UNL     1      -0.285  -2.910   1.094  0.00  0.00    +0.118 HD
ATOM     12  H   UNL     1      -0.396  -2.674  -0.548  0.00  0.00    +0.118 HD
ENDBRANCH   9  10
ENDBRANCH   1   9
BRANCH   1  13
ATOM     13  N   UNL     1       1.536   0.663   0.476  0.00  0.00    +0.389 N 
ATOM     14  H   UNL     1       2.117   0.561  -0.342  0.00  0.00    -0.080 HD
BRANCH  13  15
ATOM     15  C   UNL     1       2.372   0.588   1.682  0.00  0.00    -0.068 C 
ATOM     16  C   UNL     1       3.352   1.779   1.720  0.00  0.00    -0.015 C 
ATOM     17  C   UNL     1       4.653   1.181   2.311  0.00  0.00    -0.002 C 
ATOM     18  C   UNL     1       4.703  -0.229   1.670  0.00  0.00    -0.002 C 
ATOM     19  C   UNL     1       3.231  -0.688   1.650  0.00  0.00    -0.015 C 
ENDBRANCH  13  15
BRANCH  13  20
ATOM     20  C   UNL     1       0.853   1.963   0.433  0.00  0.00    -0.049 C 
BRANCH  20  21
ATOM     21  C   UNL     1       1.706   2.961  -0.352  0.00  0.00    +0.137 C 
BRANCH  21  22
ATOM     22  O   UNL     1       2.037   2.406  -1.627  0.00  0.00    -0.397 OA
ATOM     23  H   UNL     1       2.578   2.986  -2.180  0.00  0.00    +0.209 HD
ENDBRANCH  21  22
ENDBRANCH  20  21
ENDBRANCH  13  20
ENDBRANCH   1  13
TORSDOF 8
