REMARK  Name = ZINC43253988
REMARK  10 active torsions:
REMARK  status: ('A' for Active; 'I' for Inactive)
REMARK    1  A    between atoms: C_1  and  C_2
REMARK    2  A    between atoms: C_2  and  C_3
REMARK    3  A    between atoms: C_3  and  C_5
REMARK    4  A    between atoms: C_3  and  N_22
REMARK    5  A    between atoms: C_5  and  C_7
REMARK    6  A    between atoms: C_5  and  N_13
REMARK    7  A    between atoms: N_13  and  C_14
REMARK    8  A    between atoms: N_13  and  C_17
REMARK    9  A    between atoms: C_14  and  C_15
REMARK   10  A    between atoms: C_15  and  O_16
REMARK                            x       y       z     vdW  Elec       q    Type
REMARK                         _______ _______ _______ _____ _____    ______ ____
ROOT
ATOM      1  C   UNL     1       0.654  -2.044  -0.950  0.00  0.00    +0.079 C 
ENDROOT
BRANCH   1   2
ATOM      2  C   UNL     1      -0.504  -2.927  -1.337  0.00  0.00    +0.007 A 
ATOM      3  C   UNL     1      -1.138  -3.029  -2.530  0.00  0.00    +0.014 A 
ATOM      4  C   UNL     1      -2.189  -3.918  -2.657  0.00  0.00    +0.028 A 
ATOM      5  C   UNL     1      -2.554  -4.662  -1.583  0.00  0.00    +0.078 A 
ATOM      6  S   UNL     1      -1.391  -4.117  -0.344  0.00  0.00    -0.080 S 
ATOM      7 CL   UNL     1      -3.819  -5.843  -1.451  0.00  0.00    -0.076 Cl
ENDBRANCH   1   2
BRANCH   1   8
ATOM      8  C   UNL     1       0.168  -0.957   0.012  0.00  0.00    -0.053 C 
BRANCH   8   9
ATOM      9  N   UNL     1      -0.949  -0.225  -0.601  0.00  0.00    +0.381 N 
ATOM     10  H   UNL     1      -1.704  -0.865  -0.796  0.00  0.00    -0.090 HD
ATOM     11  H   UNL     1      -1.269   0.491   0.033  0.00  0.00    -0.090 HD
ATOM     12  H   UNL     1      -0.639   0.201  -1.462  0.00  0.00    -0.090 HD
ENDBRANCH   8   9
BRANCH   8  14
ATOM     13  C   UNL     1      -0.671  -0.512   2.323  0.00  0.00    +0.002 C 
ATOM     14  C   UNL     1      -0.302  -1.604   1.317  0.00  0.00    -0.018 C 
ENDBRANCH   8  14
ENDBRANCH   1   8
BRANCH   1  15
ATOM     15  N   UNL     1       1.689  -2.853  -0.291  0.00  0.00    -0.291 NA
BRANCH  15  16
ATOM     16  C   UNL     1       2.203  -3.888  -1.197  0.00  0.00    +0.057 C 
ATOM     17  C   UNL     1       2.055  -3.429  -2.663  0.00  0.00    +0.019 C 
ATOM     18  C   UNL     1       1.684  -4.723  -3.430  0.00  0.00    +0.002 C 
ATOM     19  C   UNL     1       0.746  -5.452  -2.437  0.00  0.00    +0.002 C 
ATOM     20  C   UNL     1       1.370  -5.175  -1.054  0.00  0.00    +0.019 C 
ENDBRANCH  15  16
BRANCH  15  21
ATOM     21  C   UNL     1       2.778  -2.006   0.212  0.00  0.00    +0.113 C 
BRANCH  21  22
ATOM     22  C   UNL     1       3.551  -2.760   1.296  0.00  0.00    +0.171 C 
BRANCH  22  23
ATOM     23  O   UNL     1       4.238  -3.866   0.708  0.00  0.00    -0.394 OA
ATOM     24  H   UNL     1       4.688  -4.434   1.348  0.00  0.00    +0.209 HD
ENDBRANCH  22  23
ENDBRANCH  21  22
ENDBRANCH  15  21
ENDBRANCH   1  15
TORSDOF 9
