REMARK  Name = ZINC40702167
REMARK  10 active torsions:
REMARK  status: ('A' for Active; 'I' for Inactive)
REMARK    1  A    between atoms: C_1  and  C_2
REMARK    2  A    between atoms: C_2  and  N_3
REMARK    3  A    between atoms: N_3  and  C_4
REMARK    4  A    between atoms: C_15  and  N_27
REMARK    5  A    between atoms: C_16  and  N_20
REMARK    6  A    between atoms: N_20  and  C_21
REMARK    7  A    between atoms: C_21  and  C_23
REMARK    8  A    between atoms: C_21  and  C_24
REMARK    9  A    between atoms: C_24  and  O_25
REMARK   10  A    between atoms: O_25  and  C_26
REMARK                            x       y       z     vdW  Elec       q    Type
REMARK                         _______ _______ _______ _____ _____    ______ ____
ROOT
ATOM      1  N   UNL     1       0.670  -0.555  -1.178  0.00  0.00    -0.285 N 
ATOM      2  C   UNL     1      -0.130  -0.723  -2.302  0.00  0.00    +0.129 A 
ATOM      3  C   UNL     1      -1.486  -0.391  -2.263  0.00  0.00    +0.104 A 
ATOM      4  C   UNL     1      -2.244  -0.579  -3.420  0.00  0.00    +0.145 A 
ATOM      5  N   UNL     1      -1.651  -1.065  -4.507  0.00  0.00    -0.221 NA
ATOM      6  C   UNL     1      -0.368  -1.367  -4.502  0.00  0.00    +0.200 A 
ATOM      7  N   UNL     1       0.385  -1.199  -3.433  0.00  0.00    -0.332 N 
ATOM      8  H   UNL     1       1.326  -1.429  -3.471  0.00  0.00    +0.168 HD
ENDROOT
BRANCH   1   9
ATOM      9  C   UNL     1       0.911  -1.632  -0.326  0.00  0.00    +0.043 A 
ATOM     10  C   UNL     1       0.067  -1.881   0.737  0.00  0.00    +0.024 A 
ATOM     11  C   UNL     1       0.298  -2.953   1.593  0.00  0.00    +0.002 A 
ATOM     12  C   UNL     1       1.360  -3.785   1.407  0.00  0.00    +0.008 A 
ATOM     13  C   UNL     1       2.244  -3.567   0.336  0.00  0.00    -0.016 A 
ATOM     14  C   UNL     1       2.016  -2.482  -0.546  0.00  0.00    +0.003 A 
ATOM     15  C   UNL     1       2.897  -2.268  -1.618  0.00  0.00    +0.010 A 
ATOM     16  C   UNL     1       3.953  -3.108  -1.799  0.00  0.00    +0.001 A 
ATOM     17  C   UNL     1       4.175  -4.179  -0.936  0.00  0.00    +0.001 A 
ATOM     18  C   UNL     1       3.348  -4.409   0.121  0.00  0.00    +0.008 A 
ENDBRANCH   1   9
BRANCH   3  19
ATOM     19  N   UNL     1      -2.070   0.119  -1.092  0.00  0.00    -0.353 N 
ATOM     20  H   UNL     1      -1.514   0.340  -0.329  0.00  0.00    +0.143 HD
ATOM     21  H   UNL     1      -3.030   0.250  -1.047  0.00  0.00    +0.143 HD
ENDBRANCH   3  19
BRANCH   1  23
ATOM     22  C   UNL     1       2.646   0.842  -1.534  0.00  0.00    +0.025 C 
ATOM     23  C   UNL     1       1.262   0.753  -0.888  0.00  0.00    +0.109 C 
ENDBRANCH   1  23
BRANCH   4  24
ATOM     24  N   UNL     1      -3.598  -0.265  -3.435  0.00  0.00    -0.323 N 
ATOM     25  H   UNL     1      -4.023   0.089  -2.638  0.00  0.00    +0.148 HD
BRANCH  24  26
ATOM     26  C   UNL     1      -4.383  -0.467  -4.655  0.00  0.00    +0.094 C 
ATOM     27  C   UNL     1      -4.238   0.756  -5.563  0.00  0.00    +0.030 C 
BRANCH  26  28
ATOM     28  C   UNL     1      -5.856  -0.658  -4.288  0.00  0.00    +0.181 C 
BRANCH  28  29
ATOM     29  O   UNL     1      -6.362   0.545  -3.708  0.00  0.00    -0.381 OA
ATOM     30  C   UNL     1      -7.738   0.473  -3.327  0.00  0.00    +0.194 C 
ENDBRANCH  28  29
ENDBRANCH  26  28
ENDBRANCH  24  26
ENDBRANCH   4  24
TORSDOF 7
