REMARK  Name = ZINC02644223
REMARK  7 active torsions:
REMARK  status: ('A' for Active; 'I' for Inactive)
REMARK    1  A    between atoms: C_3  and  S_29
REMARK    2  A    between atoms: C_6  and  C_7
REMARK    3  A    between atoms: C_7  and  C_8
REMARK    4  A    between atoms: C_8  and  N_9
REMARK    5  A    between atoms: C_17  and  C_19
REMARK    6  A    between atoms: C_19  and  N_62
REMARK    7  A    between atoms: S_29  and  N_32
REMARK                            x       y       z     vdW  Elec       q    Type
REMARK                         _______ _______ _______ _____ _____    ______ ____
ROOT
ATOM      1  N   UNL     1       1.137   5.560   1.463  0.00  0.00    -0.328 N 
ATOM      2  C   UNL     1       1.139   6.245   2.664  0.00  0.00    +0.131 A 
ATOM      3  C   UNL     1       1.233   7.665   2.684  0.00  0.00    +0.051 A 
ATOM      4  C   UNL     1       1.323   8.593   1.556  0.00  0.00    -0.025 A 
ATOM      5  C   UNL     1       1.394   9.907   1.849  0.00  0.00    -0.004 A 
ATOM      6  S   UNL     1       1.340   9.990   3.619  0.00  0.00    -0.073 S 
ATOM      7  C   UNL     1       1.221   8.254   3.964  0.00  0.00    +0.114 A 
ATOM      8  N   UNL     1       1.138   7.523   5.059  0.00  0.00    -0.227 NA
ATOM      9  C   UNL     1       1.059   6.209   4.977  0.00  0.00    +0.116 A 
ATOM     10  N   UNL     1       1.059   5.589   3.810  0.00  0.00    -0.219 NA
ATOM     11  C   UNL     1       1.497  11.048   0.883  0.00  0.00    +0.043 C 
ATOM     12  C   UNL     1       1.882  10.486  -0.493  0.00  0.00    +0.005 C 
ATOM     13  C   UNL     1       0.980   9.289  -0.805  0.00  0.00    +0.005 C 
ATOM     14  C   UNL     1       1.341   8.115   0.106  0.00  0.00    +0.037 C 
ATOM     15  H   UNL     1       1.283   6.038   0.631  0.00  0.00    +0.147 HD
ENDROOT
BRANCH   1  16
ATOM     16  C   UNL     1       0.915   4.112   1.446  0.00  0.00    +0.107 C 
BRANCH  16  17
ATOM     17  C   UNL     1       0.962   3.606   0.003  0.00  0.00    +0.054 C 
BRANCH  17  23
ATOM     18  C   UNL     1      -0.550   1.615  -0.125  0.00  0.00    +0.005 A 
ATOM     19  C   UNL     1      -0.760   0.249  -0.141  0.00  0.00    +0.029 A 
ATOM     20  C   UNL     1       0.315  -0.617  -0.047  0.00  0.00    +0.105 A 
ATOM     21  C   UNL     1       1.598  -0.115   0.062  0.00  0.00    +0.029 A 
ATOM     22  C   UNL     1       1.808   1.251   0.077  0.00  0.00    +0.005 A 
ATOM     23  C   UNL     1       0.734   2.116  -0.015  0.00  0.00    -0.046 A 
BRANCH  20  24
ATOM     24  S   UNL     1       0.047  -2.358  -0.067  0.00  0.00    +0.056 S 
ATOM     25  O   UNL     1       1.165  -2.948   0.583  0.00  0.00    -0.153 OA
ATOM     26  O   UNL     1      -1.288  -2.569   0.372  0.00  0.00    -0.153 OA
BRANCH  24  27
ATOM     27  N   UNL     1       0.108  -2.845  -1.649  0.00  0.00    -0.204 NA
ATOM     28  H   UNL     1       0.269  -2.195  -2.350  0.00  0.00    +0.144 HD
ATOM     29  H   UNL     1      -0.017  -3.780  -1.873  0.00  0.00    +0.144 HD
ENDBRANCH  24  27
ENDBRANCH  20  24
ENDBRANCH  17  23
ENDBRANCH  16  17
ENDBRANCH   1  16
BRANCH   9  30
ATOM     30  C   UNL     1       0.965   5.397   6.243  0.00  0.00    -0.001 C 
BRANCH  30  36
ATOM     31  C   UNL     1       2.972   4.132   5.754  0.00  0.00    -0.050 C 
ATOM     32  C   UNL     1       4.395   3.841   6.238  0.00  0.00    +0.141 C 
ATOM     33  O   UNL     1       4.343   3.302   7.562  0.00  0.00    -0.383 OA
ATOM     34  C   UNL     1       3.710   4.167   8.510  0.00  0.00    +0.141 C 
ATOM     35  C   UNL     1       2.280   4.461   8.049  0.00  0.00    -0.050 C 
ATOM     36  N   UNL     1       2.332   5.068   6.703  0.00  0.00    +0.387 N 
ATOM     37  H   UNL     1       2.886   5.931   6.746  0.00  0.00    -0.081 HD
ENDBRANCH  30  36
ENDBRANCH   9  30
TORSDOF 7
