REMARK  Name = ZINC61882298
REMARK  5 active torsions:
REMARK  status: ('A' for Active; 'I' for Inactive)
REMARK    1  A    between atoms: C_1  and  N_2
REMARK    2  A    between atoms: C_5  and  N_8
REMARK    3  A    between atoms: N_8  and  S_9
REMARK    4  A    between atoms: S_9  and  C_12
REMARK    5  A    between atoms: C_16  and  N_19
REMARK                            x       y       z     vdW  Elec       q    Type
REMARK                         _______ _______ _______ _____ _____    ______ ____
ROOT
ATOM      1  S   UNL     1      -0.052  -3.157   4.012  0.00  0.00    +0.060 S 
ATOM      2  O   UNL     1      -1.443  -3.448   4.013  0.00  0.00    -0.153 OA
ATOM      3  O   UNL     1       0.933  -4.147   4.273  0.00  0.00    -0.153 OA
ENDROOT
BRANCH   1   4
ATOM      4  C   UNL     1       0.195  -1.876   5.196  0.00  0.00    +0.122 A 
ATOM      5  C   UNL     1      -0.874  -1.400   5.932  0.00  0.00    +0.049 A 
ATOM      6  C   UNL     1      -0.684  -0.394   6.864  0.00  0.00    +0.045 A 
ATOM      7  C   UNL     1       0.577   0.138   7.060  0.00  0.00    +0.044 A 
ATOM      8  C   UNL     1       1.652  -0.338   6.323  0.00  0.00    +0.042 A 
ATOM      9  C   UNL     1       1.458  -1.352   5.392  0.00  0.00    +0.065 A 
ATOM     10 BR   UNL     1       2.921  -2.009   4.390  0.00  0.00    -0.046 Br
ATOM     11 CL   UNL     1      -2.030   0.201   7.785  0.00  0.00    -0.083 Cl
BRANCH   8  12
ATOM     12  N   UNL     1       2.928   0.198   6.519  0.00  0.00    -0.357 N 
ATOM     13  H   UNL     1       3.062   0.903   7.171  0.00  0.00    +0.142 HD
ATOM     14  H   UNL     1       3.679  -0.135   6.003  0.00  0.00    +0.142 HD
ENDBRANCH   8  12
ENDBRANCH   1   4
BRANCH   1  15
ATOM     15  N   UNL     1       0.297  -2.522   2.523  0.00  0.00    -0.189 NA
ATOM     16  H   UNL     1       1.049  -2.864   2.014  0.00  0.00    +0.148 HD
BRANCH  15  21
ATOM     17  C   UNL     1      -0.711   1.275  -0.178  0.00  0.00    -0.096 C 
ATOM     18  N   UNL     1      -0.563  -0.185  -0.103  0.00  0.00    +0.379 N 
ATOM     19  C   UNL     1      -1.888  -0.810   0.096  0.00  0.00    -0.078 C 
ATOM     20  C   UNL     1      -1.621  -2.015   1.031  0.00  0.00    -0.000 C 
ATOM     21  C   UNL     1      -0.530  -1.444   1.974  0.00  0.00    +0.058 C 
ATOM     22  C   UNL     1       0.299  -0.538   1.039  0.00  0.00    -0.059 C 
ATOM     23  H   UNL     1      -0.153  -0.530  -0.958  0.00  0.00    -0.082 HD
ENDBRANCH  15  21
ENDBRANCH   1  15
TORSDOF 4
