REMARK  Name = ZINC64643702
REMARK  6 active torsions:
REMARK  status: ('A' for Active; 'I' for Inactive)
REMARK    1  A    between atoms: C_2  and  C_3
REMARK    2  A    between atoms: C_3  and  N_4
REMARK    3  A    between atoms: C_5  and  C_7
REMARK    4  A    between atoms: C_7  and  C_8
REMARK    5  A    between atoms: C_8  and  N_9
REMARK    6  A    between atoms: C_18  and  C_20
REMARK                            x       y       z     vdW  Elec       q    Type
REMARK                         _______ _______ _______ _____ _____    ______ ____
ROOT
ATOM      1  N   UNL     1       4.574   6.057   1.216  0.00  0.00    -0.299 N 
ATOM      2  C   UNL     1       4.761   7.352   0.895  0.00  0.00    +0.302 C 
ATOM      3  O   UNL     1       3.802   8.083   0.734  0.00  0.00    -0.253 OA
ATOM      4  N   UNL     1       6.010   7.838   0.750  0.00  0.00    -0.283 N 
ATOM      5  C   UNL     1       7.171   6.937   0.779  0.00  0.00    +0.128 C 
ATOM      6  C   UNL     1       7.981   7.141  -0.507  0.00  0.00    +0.127 C 
ATOM      7  N   UNL     1       8.207   8.581  -0.696  0.00  0.00    -0.292 N 
ATOM      8  C   UNL     1       7.046   9.482  -0.725  0.00  0.00    +0.127 C 
ATOM      9  C   UNL     1       6.235   9.277   0.555  0.00  0.00    +0.128 C 
ATOM     10  C   UNL     1       9.456   9.066  -0.840  0.00  0.00    +0.282 C 
ATOM     11  O   UNL     1       9.643  10.269  -0.862  0.00  0.00    -0.267 OA
ATOM     12  H   UNL     1       5.335   5.458   1.276  0.00  0.00    +0.150 HD
ENDROOT
BRANCH  10  13
ATOM     13  C   UNL     1      10.590   8.146  -0.972  0.00  0.00    +0.189 A 
ATOM     14  C   UNL     1      11.910   8.496  -0.989  0.00  0.00    +0.054 A 
ATOM     15  C   UNL     1      12.641   7.306  -1.130  0.00  0.00    +0.042 A 
ATOM     16  C   UNL     1      11.747   6.295  -1.191  0.00  0.00    +0.196 A 
ATOM     17  O   UNL     1      10.512   6.804  -1.090  0.00  0.00    -0.458 OA
ENDBRANCH  10  13
BRANCH   1  18
ATOM     18  C   UNL     1       3.223   5.554   1.477  0.00  0.00    +0.115 C 
BRANCH  18  19
ATOM     19  C   UNL     1       3.291   4.064   1.817  0.00  0.00    +0.114 C 
BRANCH  19  21
ATOM     20  N   UNL     1       1.715   2.251   2.407  0.00  0.00    -0.304 N 
ATOM     21  C   UNL     1       1.901   3.546   2.085  0.00  0.00    +0.215 C 
ATOM     22  O   UNL     1       0.950   4.296   2.011  0.00  0.00    -0.276 OA
ATOM     23  H   UNL     1       2.475   1.652   2.466  0.00  0.00    +0.150 HD
BRANCH  20  24
ATOM     24  C   UNL     1       0.363   1.748   2.667  0.00  0.00    +0.193 C 
BRANCH  24  26
ATOM     25  C   UNL     1       0.480  -0.829   3.256  0.00  0.00    +0.005 C 
ATOM     26  C   UNL     1       0.428   0.314   2.995  0.00  0.00    -0.087 C 
ENDBRANCH  24  26
ENDBRANCH  20  24
ENDBRANCH  19  21
ENDBRANCH  18  19
ENDBRANCH   1  18
TORSDOF 6
