REMARK  Name = ZINC39685561
REMARK  9 active torsions:
REMARK  status: ('A' for Active; 'I' for Inactive)
REMARK    1  A    between atoms: C_1  and  C_2
REMARK    2  A    between atoms: C_2  and  C_3
REMARK    3  A    between atoms: C_3  and  C_5
REMARK    4  A    between atoms: C_3  and  C_6
REMARK    5  A    between atoms: C_10  and  C_19
REMARK    6  A    between atoms: N_21  and  C_22
REMARK    7  A    between atoms: C_22  and  C_23
REMARK    8  A    between atoms: C_23  and  N_24
REMARK    9  A    between atoms: N_28  and  C_31
REMARK                            x       y       z     vdW  Elec       q    Type
REMARK                         _______ _______ _______ _____ _____    ______ ____
ROOT
ATOM      1  C   UNL     1       0.836  -1.758   1.338  0.00  0.00    +0.218 C 
ATOM      2  O   UNL     1       0.252  -2.280   0.412  0.00  0.00    -0.275 OA
ATOM      3  N   UNL     1       1.349  -2.518   2.325  0.00  0.00    -0.300 N 
ATOM      4  C   UNL     1       2.083  -2.068   3.531  0.00  0.00    +0.121 C 
ATOM      5  C   UNL     1       1.572  -2.985   4.664  0.00  0.00    +0.100 C 
ATOM      6  C   UNL     1       1.066  -4.249   3.949  0.00  0.00    -0.004 C 
ATOM      7  C   UNL     1       1.302  -3.995   2.453  0.00  0.00    +0.115 C 
ATOM      8  C   UNL     1      -0.422  -4.447   4.216  0.00  0.00    -0.010 C 
ATOM      9  C   UNL     1      -0.889  -5.740   3.541  0.00  0.00    -0.082 C 
ATOM     10  N   UNL     1      -0.121  -6.874   4.069  0.00  0.00    +0.379 N 
ATOM     11  C   UNL     1       1.298  -6.721   3.727  0.00  0.00    -0.082 C 
ATOM     12  C   UNL     1       1.857  -5.470   4.409  0.00  0.00    -0.010 C 
ATOM     13  H   UNL     1      -0.222  -6.909   5.072  0.00  0.00    -0.086 HD
ATOM     14  H   UNL     1      -0.472  -7.732   3.668  0.00  0.00    -0.086 HD
ENDROOT
BRANCH   5  15
ATOM     15  C   UNL     1       0.448  -2.317   5.413  0.00  0.00    +0.218 C 
ATOM     16  O   UNL     1      -0.284  -1.539   4.840  0.00  0.00    -0.275 OA
ATOM     17  N   UNL     1       0.255  -2.586   6.720  0.00  0.00    -0.314 N 
ATOM     18  H   UNL     1       0.840  -3.209   7.178  0.00  0.00    +0.149 HD
BRANCH  17  19
ATOM     19  C   UNL     1      -0.839  -1.937   7.447  0.00  0.00    +0.119 C 
BRANCH  19  20
ATOM     20  C   UNL     1      -0.836  -2.412   8.902  0.00  0.00    +0.103 C 
BRANCH  20  21
ATOM     21  N   UNL     1      -1.932  -1.762   9.632  0.00  0.00    -0.303 NA
ATOM     22  C   UNL     1      -3.215  -2.208   9.144  0.00  0.00    +0.082 C 
ATOM     23  C   UNL     1      -4.274  -1.088   9.124  0.00  0.00    -0.003 C 
ATOM     24  C   UNL     1      -4.211  -0.208  10.387  0.00  0.00    -0.078 C 
ATOM     25  N   UNL     1      -3.994  -0.992  11.580  0.00  0.00    +0.379 N 
ATOM     26  C   UNL     1      -2.546  -1.004  11.865  0.00  0.00    -0.064 C 
ATOM     27  C   UNL     1      -1.819  -2.008  11.091  0.00  0.00    +0.066 C 
ATOM     28  C   UNL     1      -4.717  -0.388  12.708  0.00  0.00    -0.096 C 
ATOM     29  H   UNL     1      -4.320  -1.935  11.431  0.00  0.00    -0.082 HD
ENDBRANCH  20  21
ENDBRANCH  19  20
ENDBRANCH  17  19
ENDBRANCH   5  15
BRANCH   1  30
ATOM     30  C   UNL     1       0.987  -0.259   1.385  0.00  0.00    +0.072 C 
ATOM     31  C   UNL     1       2.473   0.103   1.396  0.00  0.00    +0.017 C 
BRANCH  30  33
ATOM     32  C   UNL     1       0.364   1.885   0.265  0.00  0.00    +0.004 C 
ATOM     33  C   UNL     1       0.320   0.360   0.155  0.00  0.00    +0.009 C 
ENDBRANCH  30  33
ENDBRANCH   1  30
TORSDOF 6
