REMARK  Name = ZINC39689814
REMARK  6 active torsions:
REMARK  status: ('A' for Active; 'I' for Inactive)
REMARK    1  A    between atoms: C_1  and  N_2
REMARK    2  A    between atoms: C_5  and  C_8
REMARK    3  A    between atoms: C_8  and  N_9
REMARK    4  A    between atoms: C_10  and  C_12
REMARK    5  A    between atoms: C_23  and  C_25
REMARK    6  A    between atoms: C_28  and  C_30
REMARK                            x       y       z     vdW  Elec       q    Type
REMARK                         _______ _______ _______ _____ _____    ______ ____
ROOT
ATOM      1  C   UNL     1       2.257  -6.592   1.302  0.00  0.00    +0.100 C 
ATOM      2  C   UNL     1       1.954  -6.976  -0.164  0.00  0.00    +0.121 C 
ATOM      3  N   UNL     1       1.953  -8.458  -0.171  0.00  0.00    -0.294 N 
ATOM      4  C   UNL     1       1.288  -8.832   1.100  0.00  0.00    +0.115 C 
ATOM      5  C   UNL     1       1.819  -7.813   2.128  0.00  0.00    -0.004 C 
ATOM      6  C   UNL     1       3.010  -8.396   2.883  0.00  0.00    -0.010 C 
ATOM      7  C   UNL     1       2.538  -9.573   3.741  0.00  0.00    -0.082 C 
ATOM      8  N   UNL     1       1.512  -9.113   4.685  0.00  0.00    +0.379 N 
ATOM      9  C   UNL     1       0.333  -8.639   3.952  0.00  0.00    -0.082 C 
ATOM     10  C   UNL     1       0.711  -7.423   3.102  0.00  0.00    -0.010 C 
ATOM     11  C   UNL     1       2.446  -9.279  -1.119  0.00  0.00    +0.282 C 
ATOM     12  O   UNL     1       2.369 -10.486  -0.978  0.00  0.00    -0.267 OA
ATOM     13  H   UNL     1       1.247  -9.875   5.290  0.00  0.00    -0.086 HD
ATOM     14  H   UNL     1       1.885  -8.359   5.243  0.00  0.00    -0.086 HD
ENDROOT
BRANCH  11  15
ATOM     15  C   UNL     1       3.075  -8.720  -2.318  0.00  0.00    +0.190 A 
ATOM     16  C   UNL     1       3.611  -9.442  -3.362  0.00  0.00    +0.055 A 
ATOM     17  C   UNL     1       4.100  -8.513  -4.286  0.00  0.00    +0.050 A 
ATOM     18  C   UNL     1       3.846  -7.271  -3.779  0.00  0.00    +0.136 A 
ATOM     19  O   UNL     1       3.223  -7.408  -2.597  0.00  0.00    -0.450 OA
BRANCH  18  20
ATOM     20  C   UNL     1       4.194  -5.989  -4.426  0.00  0.00    +0.017 A 
ATOM     21  C   UNL     1       4.833  -5.981  -5.668  0.00  0.00    +0.011 A 
ATOM     22  C   UNL     1       5.155  -4.781  -6.266  0.00  0.00    +0.001 A 
ATOM     23  C   UNL     1       4.845  -3.587  -5.640  0.00  0.00    +0.000 A 
ATOM     24  C   UNL     1       4.211  -3.587  -4.410  0.00  0.00    +0.001 A 
ATOM     25  C   UNL     1       3.879  -4.781  -3.802  0.00  0.00    +0.011 A 
ENDBRANCH  18  20
ENDBRANCH  11  15
BRANCH   1  27
ATOM     26  N   UNL     1       1.939  -4.540   2.645  0.00  0.00    -0.315 N 
ATOM     27  C   UNL     1       1.462  -5.376   1.701  0.00  0.00    +0.218 C 
ATOM     28  O   UNL     1       0.394  -5.149   1.174  0.00  0.00    -0.275 OA
ATOM     29  H   UNL     1       2.793  -4.721   3.067  0.00  0.00    +0.149 HD
BRANCH  26  30
ATOM     30  C   UNL     1       1.166  -3.357   3.033  0.00  0.00    +0.105 C 
BRANCH  30  35
ATOM     31  C   UNL     1       1.714   0.865   5.284  0.00  0.00    -0.096 C 
ATOM     32  N   UNL     1       1.897  -0.160   4.247  0.00  0.00    +0.378 N 
ATOM     33  C   UNL     1       3.314  -0.603   4.210  0.00  0.00    -0.079 C 
ATOM     34  C   UNL     1       3.232  -1.996   3.534  0.00  0.00    -0.016 C 
ATOM     35  C   UNL     1       1.925  -2.584   4.114  0.00  0.00    -0.012 C 
ATOM     36  C   UNL     1       1.106  -1.365   4.577  0.00  0.00    -0.074 C 
ATOM     37  H   UNL     1       1.621   0.202   3.347  0.00  0.00    -0.082 HD
ENDBRANCH  30  35
ENDBRANCH  26  30
ENDBRANCH   1  27
TORSDOF 5
