REMARK  Name = ZINC29678733
REMARK  12 active torsions:
REMARK  status: ('A' for Active; 'I' for Inactive)
REMARK    1  A    between atoms: C_1  and  C_2
REMARK    2  A    between atoms: C_5  and  O_27
REMARK    3  A    between atoms: C_6  and  C_8
REMARK    4  A    between atoms: C_8  and  C_10
REMARK    5  A    between atoms: C_8  and  N_11
REMARK    6  A    between atoms: N_11  and  C_12
REMARK    7  A    between atoms: C_12  and  C_14
REMARK    8  A    between atoms: C_12  and  C_15
REMARK    9  A    between atoms: N_17  and  C_18
REMARK   10  A    between atoms: C_19  and  C_26
REMARK   11  A    between atoms: C_21  and  C_25
REMARK   12  A    between atoms: O_27  and  C_28
REMARK                            x       y       z     vdW  Elec       q    Type
REMARK                         _______ _______ _______ _____ _____    ______ ____
ROOT
ATOM      1  C   UNL     1      -1.317   2.902   1.279  0.00  0.00    +0.014 C 
ATOM      2  C   UNL     1      -0.379   1.772   1.707  0.00  0.00    -0.004 C 
ENDROOT
BRANCH   1   3
ATOM      3  C   UNL     1      -2.720   2.369   1.149  0.00  0.00    +0.203 C 
ATOM      4  O   UNL     1      -3.610   2.833   1.830  0.00  0.00    -0.277 OA
ATOM      5  N   UNL     1      -2.986   1.377   0.276  0.00  0.00    -0.285 N 
ATOM      6  H   UNL     1      -2.199   1.014  -0.400  0.00  0.00    +0.155 HD
BRANCH   5   7
ATOM      7  C   UNL     1      -4.265   0.810   0.231  0.00  0.00    +0.055 A 
ATOM      8  C   UNL     1      -5.208   1.291  -0.667  0.00  0.00    -0.028 A 
ATOM      9  C   UNL     1      -6.468   0.726  -0.713  0.00  0.00    +0.008 A 
ATOM     10  C   UNL     1      -6.794  -0.311   0.141  0.00  0.00    -0.049 A 
ATOM     11  C   UNL     1      -5.859  -0.790   1.040  0.00  0.00    +0.025 A 
ATOM     12  C   UNL     1      -4.595  -0.233   1.088  0.00  0.00    +0.063 A 
ATOM     13 CL   UNL     1      -3.422  -0.835   2.217  0.00  0.00    -0.082 Cl
ATOM     14  C   UNL     1      -8.171  -0.921   0.092  0.00  0.00    +0.044 C 
ATOM     15  C   UNL     1      -4.857   2.425  -1.595  0.00  0.00    +0.046 C 
ENDBRANCH   5   7
ENDBRANCH   1   3
BRANCH   1  16
ATOM     16  N   UNL     1      -1.290   3.970   2.288  0.00  0.00    +0.391 N 
ATOM     17  H   UNL     1      -1.182   3.512   3.282  0.00  0.00    -0.084 HD
ATOM     18  H   UNL     1      -2.238   4.524   2.240  0.00  0.00    -0.084 HD
BRANCH  16  19
ATOM     19  C   UNL     1      -0.171   4.891   2.049  0.00  0.00    -0.039 C 
ATOM     20  C   UNL     1      -0.594   5.954   1.032  0.00  0.00    -0.009 C 
BRANCH  19  26
ATOM     21  C   UNL     1      -1.307   6.251   6.728  0.00  0.00    +0.044 C 
ATOM     22  C   UNL     1      -0.329   6.212   5.582  0.00  0.00    -0.050 A 
ATOM     23  C   UNL     1       0.920   6.790   5.721  0.00  0.00    +0.007 A 
ATOM     24  C   UNL     1       1.818   6.755   4.672  0.00  0.00    +0.046 A 
ATOM     25  C   UNL     1       1.467   6.140   3.479  0.00  0.00    +0.122 A 
ATOM     26  C   UNL     1       0.214   5.561   3.343  0.00  0.00    -0.020 A 
ATOM     27  C   UNL     1      -0.683   5.603   4.393  0.00  0.00    +0.009 A 
BRANCH  25  28
ATOM     28  O   UNL     1       2.349   6.104   2.446  0.00  0.00    -0.495 OA
ATOM     29  C   UNL     1       3.621   6.721   2.658  0.00  0.00    +0.277 C 
ENDBRANCH  25  28
ENDBRANCH  19  26
ENDBRANCH  16  19
ENDBRANCH   1  16
TORSDOF 6
