REMARK  Name = ZINC64409163
REMARK  8 active torsions:
REMARK  status: ('A' for Active; 'I' for Inactive)
REMARK    1  A    between atoms: C_7  and  C_10
REMARK    2  A    between atoms: C_10  and  C_11
REMARK    3  A    between atoms: C_11  and  N_12
REMARK    4  A    between atoms: C_13  and  C_15
REMARK    5  A    between atoms: C_15  and  C_16
REMARK    6  A    between atoms: C_16  and  C_17
REMARK    7  A    between atoms: C_20  and  N_23
REMARK    8  A    between atoms: N_26  and  C_27
REMARK                            x       y       z     vdW  Elec       q    Type
REMARK                         _______ _______ _______ _____ _____    ______ ____
ROOT
ATOM      1  C   UNL     1      -1.986  -7.025  -4.059  0.00  0.00    +0.060 C 
ENDROOT
BRANCH   1   2
ATOM      2  C   UNL     1      -2.927  -8.202  -4.058  0.00  0.00    +0.027 C 
ATOM      3  C   UNL     1      -3.335  -8.871  -5.363  0.00  0.00    +0.123 C 
ATOM      4  S   UNL     1      -4.765  -9.879  -4.769  0.00  0.00    -0.109 S 
ATOM      5  C   UNL     1      -4.310  -9.806  -2.981  0.00  0.00    +0.252 C 
ATOM      6  N   UNL     1      -3.386  -8.654  -2.979  0.00  0.00    -0.259 NA
BRANCH   5   7
ATOM      7  N   UNL     1      -5.486  -9.548  -2.146  0.00  0.00    -0.269 N 
ATOM      8  C   UNL     1      -6.364 -10.539  -1.894  0.00  0.00    +0.302 C 
ATOM      9  O   UNL     1      -6.180 -11.647  -2.360  0.00  0.00    -0.253 OA
ATOM     10  N   UNL     1      -7.446 -10.302  -1.126  0.00  0.00    -0.297 N 
ATOM     11  H   UNL     1      -5.632  -8.664  -1.774  0.00  0.00    +0.153 HD
ATOM     12  H   UNL     1      -7.592  -9.418  -0.754  0.00  0.00    +0.151 HD
BRANCH  10  13
ATOM     13  C   UNL     1      -8.400 -11.379  -0.852  0.00  0.00    +0.074 C 
ATOM     14  C   UNL     1      -9.413 -11.465  -1.995  0.00  0.00    +0.022 C 
ATOM     15  C   UNL     1     -10.410 -12.590  -1.709  0.00  0.00    +0.002 C 
ATOM     16  C   UNL     1     -11.144 -12.300  -0.398  0.00  0.00    +0.000 C 
ATOM     17  C   UNL     1     -10.131 -12.214   0.745  0.00  0.00    +0.002 C 
ATOM     18  C   UNL     1      -9.134 -11.089   0.459  0.00  0.00    +0.022 C 
ENDBRANCH  10  13
ENDBRANCH   5   7
ENDBRANCH   1   2
BRANCH   1  19
ATOM     19  C   UNL     1      -1.752  -6.557  -2.622  0.00  0.00    +0.101 C 
BRANCH  19  21
ATOM     20  N   UNL     1      -0.458  -4.798  -1.460  0.00  0.00    -0.315 N 
ATOM     21  C   UNL     1      -0.811  -5.380  -2.623  0.00  0.00    +0.213 C 
ATOM     22  O   UNL     1      -0.371  -4.957  -3.671  0.00  0.00    -0.276 OA
ATOM     23  H   UNL     1      -0.810  -5.136  -0.622  0.00  0.00    +0.149 HD
BRANCH  20  24
ATOM     24  C   UNL     1       0.457  -3.653  -1.462  0.00  0.00    +0.108 C 
BRANCH  24  25
ATOM     25  C   UNL     1       0.691  -3.186  -0.024  0.00  0.00    +0.052 C 
BRANCH  25  32
ATOM     26  C   UNL     1      -0.016   1.348   0.009  0.00  0.00    +0.001 A 
ATOM     27  C   UNL     1       1.166   2.101   0.002  0.00  0.00    +0.002 A 
ATOM     28  C   UNL     1       2.391   1.535  -0.013  0.00  0.00    +0.026 A 
ATOM     29  C   UNL     1       2.529   0.120  -0.022  0.00  0.00    +0.043 A 
ATOM     30  N   UNL     1       3.587  -0.654  -0.037  0.00  0.00    -0.380 N 
ATOM     31  C   UNL     1       3.143  -2.053  -0.041  0.00  0.00    +0.144 C 
ATOM     32  C   UNL     1       1.631  -2.008  -0.025  0.00  0.00    -0.040 C 
ATOM     33  C   UNL     1       1.295  -0.698  -0.014  0.00  0.00    -0.001 A 
ATOM     34  C   UNL     1       0.002  -0.004   0.002  0.00  0.00    +0.010 A 
ATOM     35  H   UNL     1       4.509  -0.353  -0.045  0.00  0.00    +0.160 HD
ENDBRANCH  25  32
ENDBRANCH  24  25
ENDBRANCH  20  24
ENDBRANCH  19  21
ENDBRANCH   1  19
TORSDOF 8
