REMARK  Name = ZINC51145168
REMARK  6 active torsions:
REMARK  status: ('A' for Active; 'I' for Inactive)
REMARK    1  A    between atoms: C_1  and  N_2
REMARK    2  A    between atoms: N_2  and  C_3
REMARK    3  A    between atoms: N_2  and  C_10
REMARK    4  A    between atoms: C_3  and  C_4
REMARK    5  A    between atoms: C_10  and  C_11
REMARK    6  A    between atoms: N_20  and  N_21
REMARK                            x       y       z     vdW  Elec       q    Type
REMARK                         _______ _______ _______ _____ _____    ______ ____
ROOT
ATOM      1  C   UNL     1      -2.067  -0.116  -1.267  0.00  0.00    +0.116 A 
ATOM      2  N   UNL     1      -2.716   1.034  -1.321  0.00  0.00    -0.218 NA
ATOM      3  C   UNL     1      -3.343   1.438  -2.414  0.00  0.00    +0.144 A 
ATOM      4  C   UNL     1      -3.321   0.612  -3.571  0.00  0.00    +0.049 A 
ATOM      5  C   UNL     1      -3.921   0.826  -4.876  0.00  0.00    +0.021 A 
ATOM      6  C   UNL     1      -3.766  -0.105  -5.829  0.00  0.00    +0.048 A 
ATOM      7  S   UNL     1      -2.783  -1.360  -5.029  0.00  0.00    -0.077 S 
ATOM      8  C   UNL     1      -2.609  -0.600  -3.437  0.00  0.00    +0.113 A 
ATOM      9  N   UNL     1      -2.007  -0.922  -2.309  0.00  0.00    -0.227 NA
ATOM     10  N   UNL     1      -4.011   2.649  -2.430  0.00  0.00    -0.267 N 
ATOM     11  H   UNL     1      -4.469   2.939  -3.234  0.00  0.00    +0.167 HD
ENDROOT
BRANCH  10  12
ATOM     12  N   UNL     1      -4.027   3.435  -1.313  0.00  0.00    -0.255 NA
ATOM     13  H   UNL     1      -4.551   4.282  -1.475  0.00  0.00    +0.140 HD
ATOM     14  H   UNL     1      -4.393   2.930  -0.520  0.00  0.00    +0.140 HD
ENDBRANCH  10  12
BRANCH   1  15
ATOM     15  C   UNL     1      -1.376  -0.512   0.012  0.00  0.00    -0.001 C 
BRANCH  15  17
ATOM     16  C   UNL     1      -0.018   1.465   0.010  0.00  0.00    -0.095 C 
ATOM     17  N   UNL     1       0.002  -0.004   0.002  0.00  0.00    +0.386 N 
ATOM     18  H   UNL     1       0.474  -0.330  -0.828  0.00  0.00    -0.081 HD
BRANCH  17  19
ATOM     19  C   UNL     1       0.713  -0.491   1.192  0.00  0.00    -0.035 C 
BRANCH  19  20
ATOM     20  C   UNL     1       2.158  -0.072   1.120  0.00  0.00    -0.026 A 
ATOM     21  C   UNL     1       2.745   1.057   1.589  0.00  0.00    +0.024 A 
ATOM     22  C   UNL     1       4.104   1.231   1.408  0.00  0.00    +0.025 A 
ATOM     23  C   UNL     1       4.810   0.268   0.766  0.00  0.00    +0.060 A 
ATOM     24  S   UNL     1       3.545  -0.937   0.402  0.00  0.00    -0.102 S 
ATOM     25 BR   UNL     1       4.965   2.790   2.045  0.00  0.00    -0.050 Br
ENDBRANCH  19  20
ENDBRANCH  17  19
ENDBRANCH  15  17
ENDBRANCH   1  15
TORSDOF 5
