REMARK  Name = ZINC04729387
REMARK  8 active torsions:
REMARK  status: ('A' for Active; 'I' for Inactive)
REMARK    1  A    between atoms: C_1  and  O_2
REMARK    2  A    between atoms: O_2  and  C_3
REMARK    3  A    between atoms: C_6  and  C_11
REMARK    4  A    between atoms: C_8  and  O_9
REMARK    5  A    between atoms: O_9  and  C_10
REMARK    6  A    between atoms: C_13  and  C_25
REMARK    7  A    between atoms: C_15  and  C_18
REMARK    8  A    between atoms: C_23  and  O_24
REMARK                            x       y       z     vdW  Elec       q    Type
REMARK                         _______ _______ _______ _____ _____    ______ ____
ROOT
ATOM      1  C   UNL     1      -2.524   3.864   0.045  0.00  0.00    +0.040 C 
ATOM      2  N   UNL     1      -2.506   5.144   0.056  0.00  0.00    -0.299 NA
ATOM      3  C   UNL     1      -3.702   5.978   0.076  0.00  0.00    +0.081 C 
ATOM      4  C   UNL     1      -4.965   3.960   0.459  0.00  0.00    -0.028 C 
ATOM      5  C   UNL     1      -3.794   3.060   0.053  0.00  0.00    +0.044 C 
ATOM      6  N   UNL     1      -4.886   5.206  -0.328  0.00  0.00    +0.401 N 
ATOM      7  H   UNL     1      -4.816   4.974  -1.326  0.00  0.00    -0.081 HD
ATOM      8  H   UNL     1      -5.730   5.766  -0.165  0.00  0.00    -0.081 HD
ENDROOT
BRANCH   3   9
ATOM      9  C   UNL     1      -3.520   7.135  -0.873  0.00  0.00    -0.040 A 
ATOM     10  C   UNL     1      -4.620   7.702  -1.488  0.00  0.00    +0.005 A 
ATOM     11  C   UNL     1      -4.455   8.767  -2.354  0.00  0.00    +0.020 A 
ATOM     12  C   UNL     1      -3.188   9.257  -2.614  0.00  0.00    +0.041 A 
ATOM     13  C   UNL     1      -2.087   8.685  -2.001  0.00  0.00    +0.020 A 
ATOM     14  C   UNL     1      -2.254   7.625  -1.131  0.00  0.00    +0.005 A 
ATOM     15 CL   UNL     1      -2.979  10.589  -3.707  0.00  0.00    -0.084 Cl
ENDBRANCH   3   9
BRANCH   1  19
ATOM     16  C   UNL     1       1.181   1.784   0.000  0.00  0.00    +0.162 A 
ATOM     17  C   UNL     1      -0.013   1.076   0.008  0.00  0.00    +0.050 A 
ATOM     18  C   UNL     1      -1.216   1.747   0.017  0.00  0.00    +0.013 A 
ATOM     19  C   UNL     1      -1.237   3.144   0.029  0.00  0.00    -0.001 A 
ATOM     20  C   UNL     1      -0.035   3.857   0.021  0.00  0.00    +0.059 A 
ATOM     21  C   UNL     1       1.168   3.178   0.007  0.00  0.00    +0.162 A 
BRANCH  16  23
ATOM     22  C   UNL     1       2.305  -0.310  -0.021  0.00  0.00    +0.277 C 
ATOM     23  O   UNL     1       2.365   1.118  -0.014  0.00  0.00    -0.491 OA
ENDBRANCH  16  23
BRANCH  21  24
ATOM     24  O   UNL     1       2.339   3.869  -0.001  0.00  0.00    -0.491 OA
ATOM     25  C   UNL     1       2.250   5.296   0.007  0.00  0.00    +0.277 C 
ENDBRANCH  21  24
ENDBRANCH   1  19
BRANCH   4  26
ATOM     26  C   UNL     1      -6.268   3.261   0.168  0.00  0.00    -0.019 A 
ATOM     27  C   UNL     1      -6.930   3.500  -1.022  0.00  0.00    +0.005 A 
ATOM     28  C   UNL     1      -8.125   2.859  -1.290  0.00  0.00    +0.000 A 
ATOM     29  C   UNL     1      -8.661   1.977  -0.370  0.00  0.00    +0.004 A 
ATOM     30  C   UNL     1      -8.003   1.734   0.820  0.00  0.00    +0.045 A 
ATOM     31  C   UNL     1      -6.801   2.373   1.090  0.00  0.00    +0.118 A 
BRANCH  31  32
ATOM     32  O   UNL     1      -6.150   2.132   2.258  0.00  0.00    -0.507 OA
ATOM     33  H   UNL     1      -6.402   2.725   2.979  0.00  0.00    +0.292 HD
ENDBRANCH  31  32
ENDBRANCH   4  26
TORSDOF 6
