REMARK  Name = ZINC66899414
REMARK  4 active torsions:
REMARK  status: ('A' for Active; 'I' for Inactive)
REMARK    1  A    between atoms: C_3  and  C_11
REMARK    2  A    between atoms: N_16  and  C_17
REMARK    3  A    between atoms: C_17  and  C_18
REMARK    4  A    between atoms: C_18  and  C_19
REMARK                            x       y       z     vdW  Elec       q    Type
REMARK                         _______ _______ _______ _____ _____    ______ ____
ROOT
ATOM      1  C   UNL     1       3.641   2.245   0.091  0.00  0.00    -0.034 C 
ATOM      2  C   UNL     1       4.167   2.549   1.510  0.00  0.00    -0.012 C 
ATOM      3  C   UNL     1       4.776   3.969   1.359  0.00  0.00    -0.020 C 
ATOM      4  C   UNL     1       3.799   4.623   0.351  0.00  0.00    -0.078 C 
ATOM      5  N   UNL     1       3.444   3.536  -0.592  0.00  0.00    +0.385 N 
ATOM      6  H   UNL     1       4.037   3.584  -1.407  0.00  0.00    -0.081 HD
ENDROOT
BRANCH   1   9
ATOM      7  C   UNL     1       0.317   0.989   1.368  0.00  0.00    +0.004 A 
ATOM      8  C   UNL     1       1.520   1.665   1.285  0.00  0.00    +0.006 A 
ATOM      9  C   UNL     1       2.331   1.505   0.178  0.00  0.00    -0.016 A 
ATOM     10  C   UNL     1       1.940   0.664  -0.854  0.00  0.00    +0.164 A 
ATOM     11  C   UNL     1       0.733  -0.018  -0.769  0.00  0.00    +0.162 A 
ATOM     12  C   UNL     1      -0.077   0.149   0.344  0.00  0.00    +0.049 A 
ATOM     13  O   UNL     1       0.334  -0.854  -1.767  0.00  0.00    -0.485 OA
ATOM     14  C   UNL     1       0.992  -0.708  -3.030  0.00  0.00    +0.270 C 
ATOM     15  C   UNL     1       2.503  -0.616  -2.777  0.00  0.00    +0.270 C 
ATOM     16  O   UNL     1       2.748   0.519  -1.940  0.00  0.00    -0.485 OA
ENDBRANCH   1   9
BRANCH   5  17
ATOM     17  C   UNL     1       2.038   3.671  -0.998  0.00  0.00    -0.069 C 
BRANCH  17  18
ATOM     18  C   UNL     1       1.862   4.957  -1.808  0.00  0.00    +0.078 C 
BRANCH  18  19
ATOM     19  C   UNL     1       0.420   5.095  -2.224  0.00  0.00    +0.219 C 
ATOM     20  O   UNL     1      -0.387   4.249  -1.904  0.00  0.00    -0.275 OA
ATOM     21  N   UNL     1       0.028   6.160  -2.951  0.00  0.00    -0.240 N 
ATOM     22  C   UNL     1      -1.261   6.283  -3.324  0.00  0.00    +0.303 C 
ATOM     23  O   UNL     1      -2.070   5.435  -3.003  0.00  0.00    -0.253 OA
ATOM     24  N   UNL     1      -1.653   7.348  -4.051  0.00  0.00    -0.313 N 
ATOM     25  H   UNL     1       0.674   6.837  -3.208  0.00  0.00    +0.159 HD
ATOM     26  H   UNL     1      -1.008   8.025  -4.307  0.00  0.00    +0.146 HD
ATOM     27  H   UNL     1      -2.582   7.437  -4.319  0.00  0.00    +0.146 HD
ENDBRANCH  18  19
ENDBRANCH  17  18
ENDBRANCH   5  17
TORSDOF 4
