REMARK  Name = ZINC06553496
REMARK  7 active torsions:
REMARK  status: ('A' for Active; 'I' for Inactive)
REMARK    1  A    between atoms: C_1  and  N_48
REMARK    2  A    between atoms: C_2  and  C_3
REMARK    3  A    between atoms: C_2  and  N_48
REMARK    4  A    between atoms: N_5  and  C_6
REMARK    5  A    between atoms: C_15  and  C_16
REMARK    6  A    between atoms: C_15  and  N_48
REMARK    7  A    between atoms: N_21  and  C_22
REMARK                            x       y       z     vdW  Elec       q    Type
REMARK                         _______ _______ _______ _____ _____    ______ ____
ROOT
ATOM      1  C   UNL     1       0.467   2.022   8.499  0.00  0.00    -0.095 C 
ATOM      2  N   UNL     1      -0.555   0.959   8.393  0.00  0.00    +0.389 N 
ATOM      3  H   UNL     1      -1.483   1.394   8.337  0.00  0.00    -0.081 HD
ENDROOT
BRANCH   2   4
ATOM      4  C   UNL     1      -0.504   0.088   9.586  0.00  0.00    +0.019 C 
BRANCH   4   5
ATOM      5  C   UNL     1      -0.955   0.879  10.786  0.00  0.00    +0.201 C 
ATOM      6  O   UNL     1      -1.267   2.045  10.661  0.00  0.00    -0.278 OA
ATOM      7  N   UNL     1      -1.012   0.292  11.998  0.00  0.00    -0.285 N 
ATOM      8  H   UNL     1      -0.825  -0.655  12.087  0.00  0.00    +0.155 HD
BRANCH   7   9
ATOM      9  C   UNL     1      -1.341   1.051  13.129  0.00  0.00    +0.072 A 
ATOM     10  C   UNL     1      -2.252   2.093  13.026  0.00  0.00    +0.029 A 
ATOM     11  C   UNL     1      -2.580   2.838  14.142  0.00  0.00    +0.043 A 
ATOM     12  C   UNL     1      -1.994   2.553  15.364  0.00  0.00    +0.161 A 
ATOM     13  C   UNL     1      -1.080   1.516  15.471  0.00  0.00    +0.195 A 
ATOM     14  C   UNL     1      -0.752   0.764  14.355  0.00  0.00    +0.182 A 
ATOM     15  F   UNL     1       0.138  -0.247  14.458  0.00  0.00    -0.200 F 
ATOM     16  F   UNL     1      -0.509   1.240  16.663  0.00  0.00    -0.199 F 
ATOM     17  F   UNL     1      -2.313   3.286  16.453  0.00  0.00    -0.202 F 
ENDBRANCH   7   9
ENDBRANCH   4   5
ENDBRANCH   2   4
BRANCH   2  18
ATOM     18  C   UNL     1      -0.326   0.158   7.172  0.00  0.00    +0.019 C 
BRANCH  18  19
ATOM     19  C   UNL     1      -0.600   1.020   5.967  0.00  0.00    +0.204 C 
ATOM     20  O   UNL     1      -0.932   2.177   6.112  0.00  0.00    -0.277 OA
ATOM     21  N   UNL     1      -0.477   0.505   4.728  0.00  0.00    -0.242 N 
ATOM     22  C   UNL     1      -0.722   1.276   3.650  0.00  0.00    +0.306 C 
ATOM     23  O   UNL     1      -1.055   2.436   3.795  0.00  0.00    -0.252 OA
ATOM     24  N   UNL     1      -0.599   0.761   2.410  0.00  0.00    -0.296 N 
ATOM     25  H   UNL     1      -0.211  -0.421   4.611  0.00  0.00    +0.159 HD
ATOM     26  H   UNL     1      -0.333  -0.165   2.294  0.00  0.00    +0.151 HD
BRANCH  24  27
ATOM     27  C   UNL     1      -0.865   1.599   1.239  0.00  0.00    +0.074 C 
ATOM     28  C   UNL     1      -0.100   1.070   0.000  0.00  0.00    +0.022 C 
ATOM     29  C   UNL     1      -0.904   1.607  -1.202  0.00  0.00    +0.002 C 
ATOM     30  C   UNL     1      -2.333   1.867  -0.695  0.00  0.00    +0.002 C 
ATOM     31  C   UNL     1      -2.349   1.478   0.797  0.00  0.00    +0.022 C 
ENDBRANCH  24  27
ENDBRANCH  18  19
ENDBRANCH   2  18
TORSDOF 6
