REMARK  Name = ZINC19169485
REMARK  4 active torsions:
REMARK  status: ('A' for Active; 'I' for Inactive)
REMARK    1  A    between atoms: C_1  and  O_2
REMARK    2  A    between atoms: O_2  and  C_3
REMARK    3  A    between atoms: C_6  and  C_9
REMARK    4  A    between atoms: N_17  and  C_20
REMARK                            x       y       z     vdW  Elec       q    Type
REMARK                         _______ _______ _______ _____ _____    ______ ____
ROOT
ATOM      1  C   UNL     1       2.612  -2.521   4.253  0.00  0.00    +0.117 C 
ATOM      2  C   UNL     1       3.956  -3.153   3.835  0.00  0.00    +0.126 C 
ATOM      3  C   UNL     1       4.017  -4.486   4.626  0.00  0.00    +0.173 C 
ATOM      4  C   UNL     1       5.188  -4.284   5.562  0.00  0.00    +0.246 C 
ATOM      5  O   UNL     1       5.593  -5.098   6.364  0.00  0.00    -0.273 OA
ATOM      6  N   UNL     1       5.707  -3.066   5.367  0.00  0.00    -0.209 N 
ATOM      7  C   UNL     1       5.092  -2.335   4.408  0.00  0.00    +0.233 C 
ATOM      8  O   UNL     1       5.391  -1.213   4.061  0.00  0.00    -0.274 OA
ATOM      9  N   UNL     1       2.761  -4.557   5.401  0.00  0.00    -0.227 NA
ATOM     10  N   UNL     1       1.802  -3.666   4.729  0.00  0.00    -0.231 NA
ATOM     11  C   UNL     1       1.327  -4.460   3.570  0.00  0.00    +0.104 C 
ATOM     12  C   UNL     1       1.238  -5.901   4.122  0.00  0.00    +0.034 C 
ATOM     13  C   UNL     1       2.197  -5.921   5.314  0.00  0.00    +0.104 C 
ENDROOT
BRANCH   6  14
ATOM     14  C   UNL     1       6.806  -2.585   6.093  0.00  0.00    +0.044 A 
ATOM     15  C   UNL     1       6.643  -1.534   6.986  0.00  0.00    +0.027 A 
ATOM     16  C   UNL     1       7.727  -1.061   7.700  0.00  0.00    +0.040 A 
ATOM     17  C   UNL     1       8.975  -1.635   7.526  0.00  0.00    +0.124 A 
ATOM     18  C   UNL     1       9.139  -2.683   6.636  0.00  0.00    +0.040 A 
ATOM     19  C   UNL     1       8.057  -3.162   5.924  0.00  0.00    +0.027 A 
ATOM     20  F   UNL     1      10.034  -1.171   8.225  0.00  0.00    -0.205 F 
ENDBRANCH   6  14
BRANCH   1  24
ATOM     21  C   UNL     1       0.733  -0.651   0.900  0.00  0.00    +0.120 A 
ATOM     22  C   UNL     1      -0.031  -1.075   1.978  0.00  0.00    +0.046 A 
ATOM     23  C   UNL     1       0.579  -1.679   3.060  0.00  0.00    +0.009 A 
ATOM     24  C   UNL     1       1.949  -1.861   3.070  0.00  0.00    -0.028 A 
ATOM     25  C   UNL     1       2.713  -1.440   1.998  0.00  0.00    +0.009 A 
ATOM     26  C   UNL     1       2.108  -0.840   0.910  0.00  0.00    +0.046 A 
BRANCH  21  28
ATOM     27  C   UNL     1      -1.283   0.106  -0.107  0.00  0.00    +0.277 C 
ATOM     28  O   UNL     1       0.136  -0.056  -0.166  0.00  0.00    -0.495 OA
ENDBRANCH  21  28
ENDBRANCH   1  24
TORSDOF 3
