REMARK  Name = ZINC35578363
REMARK  6 active torsions:
REMARK  status: ('A' for Active; 'I' for Inactive)
REMARK    1  A    between atoms: C_5  and  N_7
REMARK    2  A    between atoms: C_8  and  N_33
REMARK    3  A    between atoms: C_10  and  C_25
REMARK    4  A    between atoms: N_16  and  C_17
REMARK    5  A    between atoms: C_17  and  C_18
REMARK    6  A    between atoms: C_18  and  N_19
REMARK                            x       y       z     vdW  Elec       q    Type
REMARK                         _______ _______ _______ _____ _____    ______ ____
ROOT
ATOM      1  N   UNL     1       1.105  -2.311  -0.831  0.00  0.00    -0.215 N 
ATOM      2  C   UNL     1       0.223  -2.675   0.121  0.00  0.00    +0.131 A 
ATOM      3  C   UNL     1       0.853  -3.599   0.944  0.00  0.00    +0.086 A 
ATOM      4  C   UNL     1       0.494  -4.345   2.090  0.00  0.00    +0.091 A 
ATOM      5  N   UNL     1       1.399  -5.159   2.619  0.00  0.00    -0.214 NA
ATOM      6  C   UNL     1       2.619  -5.289   2.107  0.00  0.00    +0.218 A 
ATOM      7  N   UNL     1       3.036  -4.634   1.043  0.00  0.00    -0.193 NA
ATOM      8  C   UNL     1       2.216  -3.774   0.408  0.00  0.00    +0.189 A 
ATOM      9  N   UNL     1       2.313  -2.994  -0.646  0.00  0.00    -0.144 NA
ATOM     10  N   UNL     1       3.498  -6.161   2.724  0.00  0.00    -0.315 N 
ATOM     11  H   UNL     1       3.218  -6.657   3.509  0.00  0.00    +0.149 HD
ENDROOT
BRANCH   4  12
ATOM     12  C   UNL     1      -0.855  -4.221   2.684  0.00  0.00    +0.039 A 
ATOM     13  C   UNL     1      -1.989  -4.417   1.895  0.00  0.00    +0.013 A 
ATOM     14  C   UNL     1      -3.245  -4.300   2.453  0.00  0.00    +0.004 A 
ATOM     15  C   UNL     1      -3.385  -3.990   3.794  0.00  0.00    +0.041 A 
ATOM     16  C   UNL     1      -2.266  -3.793   4.586  0.00  0.00    +0.159 A 
ATOM     17  C   UNL     1      -0.999  -3.913   4.039  0.00  0.00    +0.168 A 
ATOM     18  F   UNL     1       0.093  -3.728   4.812  0.00  0.00    -0.202 F 
ATOM     19  F   UNL     1      -2.410  -3.490   5.894  0.00  0.00    -0.202 F 
ENDBRANCH   4  12
BRANCH   1  24
ATOM     20  C   UNL     1       0.032   0.746  -2.572  0.00  0.00    +0.002 A 
ATOM     21  C   UNL     1       0.344   0.425  -3.881  0.00  0.00    +0.002 A 
ATOM     22  C   UNL     1       0.908  -0.801  -4.180  0.00  0.00    +0.022 A 
ATOM     23  C   UNL     1       1.162  -1.711  -3.171  0.00  0.00    +0.066 A 
ATOM     24  C   UNL     1       0.850  -1.392  -1.855  0.00  0.00    +0.086 A 
ATOM     25  C   UNL     1       0.283  -0.159  -1.559  0.00  0.00    +0.029 A 
ATOM     26 CL   UNL     1       1.869  -3.251  -3.548  0.00  0.00    -0.081 Cl
ENDBRANCH   1  24
BRANCH   2  27
ATOM     27  N   UNL     1      -1.073  -2.211   0.254  0.00  0.00    -0.342 N 
ATOM     28  H   UNL     1      -1.467  -1.666  -0.445  0.00  0.00    +0.144 HD
ATOM     29  H   UNL     1      -1.587  -2.432   1.046  0.00  0.00    +0.144 HD
ENDBRANCH   2  27
BRANCH  10  30
ATOM     30  C   UNL     1       4.852  -6.335   2.192  0.00  0.00    +0.086 C 
BRANCH  30  31
ATOM     31  C   UNL     1       5.612  -7.346   3.052  0.00  0.00    -0.060 C 
BRANCH  31  32
ATOM     32  N   UNL     1       6.969  -7.521   2.519  0.00  0.00    +0.381 N 
ATOM     33  C   UNL     1       6.894  -8.117   1.179  0.00  0.00    -0.079 C 
ATOM     34  C   UNL     1       8.300  -8.226   0.586  0.00  0.00    -0.019 C 
ATOM     35  C   UNL     1       9.164  -9.109   1.492  0.00  0.00    -0.004 C 
ATOM     36  C   UNL     1       9.174  -8.518   2.904  0.00  0.00    -0.019 C 
ATOM     37  C   UNL     1       7.736  -8.398   3.412  0.00  0.00    -0.079 C 
ATOM     38  H   UNL     1       7.425  -6.622   2.460  0.00  0.00    -0.082 HD
ENDBRANCH  31  32
ENDBRANCH  30  31
ENDBRANCH  10  30
TORSDOF 6
