REMARK  Name = ZINC41139097
REMARK  8 active torsions:
REMARK  status: ('A' for Active; 'I' for Inactive)
REMARK    1  A    between atoms: C_4  and  C_7
REMARK    2  A    between atoms: C_7  and  N_8
REMARK    3  A    between atoms: N_11  and  C_14
REMARK    4  A    between atoms: C_14  and  C_15
REMARK    5  A    between atoms: C_15  and  C_16
REMARK    6  A    between atoms: C_16  and  C_18
REMARK    7  A    between atoms: C_16  and  O_25
REMARK    8  A    between atoms: C_21  and  N_24
REMARK                            x       y       z     vdW  Elec       q    Type
REMARK                         _______ _______ _______ _____ _____    ______ ____
ROOT
ATOM      1  N   UNL     1       4.153  -0.953   1.342  0.00  0.00    -0.302 NA
ATOM      2  C   UNL     1       4.473   0.308   2.025  0.00  0.00    +0.066 C 
ATOM      3  C   UNL     1       4.870   0.014   3.473  0.00  0.00    -0.063 C 
ATOM      4  N   UNL     1       6.035  -0.881   3.489  0.00  0.00    +0.381 N 
ATOM      5  C   UNL     1       5.693  -2.146   2.825  0.00  0.00    -0.063 C 
ATOM      6  C   UNL     1       5.302  -1.869   1.371  0.00  0.00    +0.066 C 
ATOM      7  H   UNL     1       6.803  -0.443   3.002  0.00  0.00    -0.082 HD
ENDROOT
BRANCH   1   8
ATOM      8  C   UNL     1       3.711  -0.707  -0.038  0.00  0.00    +0.119 C 
BRANCH   8  12
ATOM      9  C   UNL     1      -0.017   1.378   0.010  0.00  0.00    +0.000 A 
ATOM     10  C   UNL     1       1.171   2.086   0.002  0.00  0.00    +0.000 A 
ATOM     11  C   UNL     1       2.377   1.411  -0.013  0.00  0.00    +0.005 A 
ATOM     12  C   UNL     1       2.396   0.029  -0.020  0.00  0.00    -0.033 A 
ATOM     13  C   UNL     1       1.208  -0.679  -0.012  0.00  0.00    +0.005 A 
ATOM     14  C   UNL     1       0.002  -0.004   0.002  0.00  0.00    +0.000 A 
ENDBRANCH   8  12
ENDBRANCH   1   8
BRANCH   4  15
ATOM     15  C   UNL     1       6.428  -1.149   4.879  0.00  0.00    -0.076 C 
BRANCH  15  16
ATOM     16  C   UNL     1       7.714  -1.978   4.895  0.00  0.00    +0.017 C 
BRANCH  16  17
ATOM     17  C   UNL     1       8.123  -2.257   6.343  0.00  0.00    +0.143 C 
BRANCH  17  18
ATOM     18  C   UNL     1       9.452  -2.967   6.362  0.00  0.00    -0.019 A 
ATOM     19  C   UNL     1       9.512  -4.326   6.113  0.00  0.00    +0.008 A 
ATOM     20  C   UNL     1      10.729  -4.979   6.129  0.00  0.00    +0.023 A 
ATOM     21  C   UNL     1      11.893  -4.270   6.396  0.00  0.00    +0.025 A 
ATOM     22  C   UNL     1      11.829  -2.905   6.646  0.00  0.00    +0.023 A 
ATOM     23  C   UNL     1      10.609  -2.256   6.622  0.00  0.00    +0.008 A 
BRANCH  21  24
ATOM     24  N   UNL     1      13.125  -4.928   6.414  0.00  0.00    -0.358 N 
ATOM     25  H   UNL     1      13.168  -5.881   6.240  0.00  0.00    +0.142 HD
ATOM     26  H   UNL     1      13.937  -4.431   6.600  0.00  0.00    +0.142 HD
ENDBRANCH  21  24
ENDBRANCH  17  18
BRANCH  17  27
ATOM     27  O   UNL     1       7.135  -3.080   6.966  0.00  0.00    -0.387 OA
ATOM     28  H   UNL     1       7.007  -3.936   6.536  0.00  0.00    +0.210 HD
ENDBRANCH  17  27
ENDBRANCH  16  17
ENDBRANCH  15  16
ENDBRANCH   4  15
TORSDOF 8
