REMARK  Name = ZINC27238357
REMARK  14 active torsions:
REMARK  status: ('A' for Active; 'I' for Inactive)
REMARK    1  A    between atoms: C_1  and  C_2
REMARK    2  A    between atoms: C_2  and  O_3
REMARK    3  A    between atoms: O_3  and  C_4
REMARK    4  A    between atoms: C_7  and  C_10
REMARK    5  A    between atoms: C_10  and  C_11
REMARK    6  A    between atoms: C_10  and  C_19
REMARK    7  A    between atoms: C_10  and  O_38
REMARK    8  A    between atoms: C_14  and  O_17
REMARK    9  A    between atoms: O_17  and  C_18
REMARK   10  A    between atoms: C_19  and  C_21
REMARK   11  A    between atoms: C_19  and  O_29
REMARK   12  A    between atoms: C_21  and  N_22
REMARK   13  A    between atoms: O_29  and  C_30
REMARK   14  A    between atoms: C_35  and  C_36
REMARK                            x       y       z     vdW  Elec       q    Type
REMARK                         _______ _______ _______ _____ _____    ______ ____
ROOT
ATOM      1  C   UNL     1       1.321   2.164  -0.454  0.00  0.00    +0.151 C 
ENDROOT
BRANCH   1   5
ATOM      2  C   UNL     1       0.058   6.246  -0.381  0.00  0.00    +0.121 A 
ATOM      3  C   UNL     1       0.920   5.768   0.596  0.00  0.00    +0.046 A 
ATOM      4  C   UNL     1       1.327   4.448   0.570  0.00  0.00    +0.010 A 
ATOM      5  C   UNL     1       0.876   3.603  -0.428  0.00  0.00    -0.008 A 
ATOM      6  C   UNL     1       0.021   4.079  -1.405  0.00  0.00    +0.010 A 
ATOM      7  C   UNL     1      -0.393   5.397  -1.381  0.00  0.00    +0.046 A 
BRANCH   2   8
ATOM      8  O   UNL     1      -0.344   7.544  -0.357  0.00  0.00    -0.492 OA
BRANCH   8  10
ATOM      9  C   UNL     1      -1.571   9.446  -1.203  0.00  0.00    +0.048 C 
ATOM     10  C   UNL     1      -1.232   7.967  -1.394  0.00  0.00    +0.225 C 
ENDBRANCH   8  10
ENDBRANCH   2   8
ENDBRANCH   1   5
BRANCH   1  11
ATOM     11  C   UNL     1       1.905   1.843  -1.805  0.00  0.00    -0.008 A 
ATOM     12  C   UNL     1       1.739   0.582  -2.346  0.00  0.00    +0.010 A 
ATOM     13  C   UNL     1       2.268   0.286  -3.588  0.00  0.00    +0.046 A 
ATOM     14  C   UNL     1       2.976   1.253  -4.287  0.00  0.00    +0.120 A 
ATOM     15  C   UNL     1       3.146   2.517  -3.739  0.00  0.00    +0.046 A 
ATOM     16  C   UNL     1       2.610   2.808  -2.500  0.00  0.00    +0.010 A 
BRANCH  14  17
ATOM     17  O   UNL     1       3.502   0.964  -5.506  0.00  0.00    -0.495 OA
ATOM     18  C   UNL     1       3.288  -0.357  -6.008  0.00  0.00    +0.277 C 
ENDBRANCH  14  17
ENDBRANCH   1  11
BRANCH   1  19
ATOM     19  O   UNL     1       2.312   1.954   0.555  0.00  0.00    -0.376 OA
ATOM     20  H   UNL     1       2.758   0.958   0.688  0.00  0.00    +0.211 HD
ENDBRANCH   1  19
BRANCH   1  21
ATOM     21  C   UNL     1       0.121   1.254  -0.187  0.00  0.00    +0.198 C 
BRANCH  21  22
ATOM     22  C   UNL     1      -0.567   1.683   1.111  0.00  0.00    -0.030 C 
BRANCH  22  23
ATOM     23  N   UNL     1       0.326   1.422   2.248  0.00  0.00    +0.382 N 
ATOM     24  C   UNL     1       0.605  -0.025   2.381  0.00  0.00    -0.079 C 
ATOM     25  C   UNL     1       1.285  -0.371   3.678  0.00  0.00    -0.019 C 
ATOM     26  C   UNL     1       0.205  -0.768   4.707  0.00  0.00    -0.002 C 
ATOM     27  C   UNL     1      -0.466   0.395   5.277  0.00  0.00    -0.002 C 
ATOM     28  C   UNL     1      -1.196   1.230   4.204  0.00  0.00    -0.019 C 
ATOM     29  C   UNL     1      -0.180   2.069   3.479  0.00  0.00    -0.079 C 
ATOM     30  H   UNL     1       1.301   1.891   2.049  0.00  0.00    -0.082 HD
ENDBRANCH  22  23
ENDBRANCH  21  22
BRANCH  21  31
ATOM     31  O   UNL     1      -0.804   1.355  -1.272  0.00  0.00    -0.487 OA
BRANCH  31  32
ATOM     32  C   UNL     1      -1.629   0.295  -1.480  0.00  0.00    +0.124 A 
ATOM     33  C   UNL     1      -1.633  -0.768  -0.588  0.00  0.00    +0.047 A 
ATOM     34  C   UNL     1      -2.476  -1.842  -0.799  0.00  0.00    +0.023 A 
ATOM     35  C   UNL     1      -3.309  -1.862  -1.903  0.00  0.00    +0.041 A 
ATOM     36  C   UNL     1      -3.303  -0.805  -2.796  0.00  0.00    +0.027 A 
ATOM     37  C   UNL     1      -2.465   0.273  -2.586  0.00  0.00    -0.007 A 
ATOM     38  C   UNL     1      -2.459   1.423  -3.559  0.00  0.00    +0.047 C 
ATOM     39 CL   UNL     1      -4.363  -3.216  -2.169  0.00  0.00    -0.084 Cl
ENDBRANCH  31  32
ENDBRANCH  21  31
ENDBRANCH   1  21
TORSDOF 11
