REMARK  Name = ZINC31162751
REMARK  19 active torsions:
REMARK  status: ('A' for Active; 'I' for Inactive)
REMARK    1  A    between atoms: C_1  and  C_2
REMARK    2  A    between atoms: C_2  and  C_38
REMARK    3  A    between atoms: C_3  and  C_4
REMARK    4  A    between atoms: C_4  and  C_5
REMARK    5  A    between atoms: C_7  and  C_12
REMARK    6  A    between atoms: C_10  and  O_11
REMARK    7  A    between atoms: C_12  and  C_13
REMARK    8  A    between atoms: C_13  and  C_34
REMARK    9  A    between atoms: C_14  and  C_21
REMARK   10  A    between atoms: C_15  and  O_19
REMARK   11  A    between atoms: O_19  and  C_20
REMARK   12  A    between atoms: C_24  and  O_33
REMARK   13  A    between atoms: C_25  and  O_32
REMARK   14  A    between atoms: C_26  and  C_27
REMARK   15  A    between atoms: C_27  and  C_28
REMARK   16  A    between atoms: C_29  and  C_30
REMARK   17  A    between atoms: C_29  and  C_31
REMARK   18  A    between atoms: C_34  and  O_36
REMARK   19  A    between atoms: O_36  and  C_37
REMARK                            x       y       z     vdW  Elec       q    Type
REMARK                         _______ _______ _______ _____ _____    ______ ____
ROOT
ATOM      1  C   UNL     1      -3.011  -3.601  -0.575  0.00  0.00    +0.242 C 
ATOM      2  C   UNL     1      -3.354  -3.266  -2.008  0.00  0.00    +0.063 C 
ATOM      3  C   UNL     1      -3.628  -4.441  -2.623  0.00  0.00    +0.213 C 
ATOM      4  C   UNL     1      -3.478  -5.524  -1.651  0.00  0.00    +0.376 C 
ATOM      5  O   UNL     1      -3.654  -6.704  -1.889  0.00  0.00    -0.241 OA
ATOM      6  O   UNL     1      -3.117  -5.023  -0.455  0.00  0.00    -0.436 OA
ENDROOT
BRANCH   2   7
ATOM      7  C   UNL     1      -3.384  -1.927  -2.615  0.00  0.00    -0.007 A 
ATOM      8  C   UNL     1      -4.572  -1.188  -2.627  0.00  0.00    +0.012 A 
ATOM      9  C   UNL     1      -4.595   0.069  -3.191  0.00  0.00    +0.050 A 
ATOM     10  C   UNL     1      -3.446   0.600  -3.759  0.00  0.00    +0.159 A 
ATOM     11  C   UNL     1      -2.260  -0.133  -3.757  0.00  0.00    +0.162 A 
ATOM     12  C   UNL     1      -2.225  -1.391  -3.188  0.00  0.00    +0.009 A 
BRANCH  11  13
ATOM     13  O   UNL     1      -1.136   0.392  -4.315  0.00  0.00    -0.503 OA
ATOM     14  H   UNL     1      -0.200  -0.186  -4.314  0.00  0.00    +0.292 HD
ENDBRANCH  11  13
BRANCH  10  15
ATOM     15  O   UNL     1      -3.476   1.837  -4.319  0.00  0.00    -0.503 OA
ATOM     16  H   UNL     1      -2.566   2.260  -4.771  0.00  0.00    +0.292 HD
ENDBRANCH  10  15
BRANCH  12  17
ATOM     17  C   UNL     1      -0.944  -2.184  -3.184  0.00  0.00    +0.066 C 
BRANCH  17  18
ATOM     18  C   UNL     1      -0.878  -3.038  -4.424  0.00  0.00    -0.023 C 
ATOM     19  C   UNL     1       0.070  -2.840  -5.306  0.00  0.00    -0.079 C 
ATOM     20  C   UNL     1       1.100  -1.764  -5.077  0.00  0.00    +0.038 C 
ATOM     21  C   UNL     1       0.130  -3.688  -6.551  0.00  0.00    +0.038 C 
ENDBRANCH  17  18
ENDBRANCH  12  17
ENDBRANCH   2   7
BRANCH   3  22
ATOM     22  O   UNL     1      -3.985  -4.589  -3.927  0.00  0.00    -0.488 OA
ATOM     23  C   UNL     1      -4.213  -3.394  -4.677  0.00  0.00    +0.277 C 
ENDBRANCH   3  22
BRANCH   1  24
ATOM     24  C   UNL     1      -3.983  -2.929   0.360  0.00  0.00    +0.356 C 
ATOM     25  O   UNL     1      -4.551  -1.919   0.018  0.00  0.00    -0.246 OA
BRANCH  24  26
ATOM     26  O   UNL     1      -4.218  -3.452   1.574  0.00  0.00    -0.465 OA
ATOM     27  C   UNL     1      -5.166  -2.752   2.421  0.00  0.00    +0.280 C 
ENDBRANCH  24  26
ENDBRANCH   1  24
BRANCH   1  28
ATOM     28  C   UNL     1      -1.583  -3.152  -0.258  0.00  0.00    +0.100 C 
BRANCH  28  31
ATOM     29  C   UNL     1      -1.235  -2.835   3.487  0.00  0.00    -0.002 A 
ATOM     30  C   UNL     1      -1.533  -2.546   2.169  0.00  0.00    +0.011 A 
ATOM     31  C   UNL     1      -1.263  -3.473   1.179  0.00  0.00    -0.042 A 
ATOM     32  C   UNL     1      -0.705  -4.695   1.506  0.00  0.00    +0.007 A 
ATOM     33  C   UNL     1      -0.411  -4.991   2.823  0.00  0.00    +0.046 A 
ATOM     34  C   UNL     1      -0.676  -4.061   3.818  0.00  0.00    +0.120 A 
BRANCH  34  35
ATOM     35  O   UNL     1      -0.387  -4.350   5.114  0.00  0.00    -0.506 OA
ATOM     36  H   UNL     1       0.056  -5.322   5.375  0.00  0.00    +0.292 HD
ENDBRANCH  34  35
BRANCH  29  37
ATOM     37  C   UNL     1      -1.525  -1.823   4.565  0.00  0.00    +0.066 C 
BRANCH  37  40
ATOM     38  C   UNL     1      -1.536  -2.350   7.332  0.00  0.00    +0.038 C 
ATOM     39  C   UNL     1      -2.821  -2.414   6.547  0.00  0.00    -0.079 C 
ATOM     40  C   UNL     1      -2.813  -2.182   5.258  0.00  0.00    -0.023 C 
ATOM     41  C   UNL     1      -4.115  -2.746   7.246  0.00  0.00    +0.038 C 
ENDBRANCH  37  40
ENDBRANCH  29  37
ENDBRANCH  28  31
ENDBRANCH   1  28
TORSDOF 13
