REMARK  Name = ZINC19890921
REMARK  7 active torsions:
REMARK  status: ('A' for Active; 'I' for Inactive)
REMARK    1  A    between atoms: C_1  and  O_2
REMARK    2  A    between atoms: O_2  and  C_3
REMARK    3  A    between atoms: C_6  and  N_9
REMARK    4  A    between atoms: N_9  and  C_10
REMARK    5  A    between atoms: C_10  and  N_12
REMARK    6  A    between atoms: N_18  and  C_21
REMARK    7  A    between atoms: C_21  and  C_22
REMARK                            x       y       z     vdW  Elec       q    Type
REMARK                         _______ _______ _______ _____ _____    ______ ____
ROOT
ATOM      1  N   UNL     1       3.617   3.354   0.184  0.00  0.00    -0.271 N 
ATOM      2  C   UNL     1       3.623   2.047   0.627  0.00  0.00    +0.159 C 
ATOM      3  N   UNL     1       2.520   1.498   1.049  0.00  0.00    -0.375 N 
ATOM      4  N   UNL     1       4.792   1.325   0.623  0.00  0.00    -0.302 N 
ATOM      5  C   UNL     1       4.797  -0.107   0.960  0.00  0.00    +0.123 C 
ATOM      6  C   UNL     1       5.539  -0.862  -0.154  0.00  0.00    +0.103 C 
ATOM      7  N   UNL     1       6.868  -0.265  -0.342  0.00  0.00    -0.295 NA
ATOM      8  C   UNL     1       6.766   1.129  -0.794  0.00  0.00    +0.103 C 
ATOM      9  C   UNL     1       6.074   1.965   0.288  0.00  0.00    +0.123 C 
ATOM     10  H   UNL     1       4.520   3.783  -0.276  0.00  0.00    +0.156 HD
ATOM     11  H   UNL     1       2.524   0.456   1.402  0.00  0.00    +0.158 HD
ATOM     12  H   UNL     1       1.584   2.076   1.052  0.00  0.00    +0.158 HD
ENDROOT
BRANCH   1  13
ATOM     13  C   UNL     1       2.506   4.105   0.316  0.00  0.00    +0.141 C 
ATOM     14  S   UNL     1       1.101   3.438   1.032  0.00  0.00    -0.018 S 
BRANCH  13  15
ATOM     15  N   UNL     1       2.501   5.382  -0.117  0.00  0.00    -0.297 N 
ATOM     16  H   UNL     1       3.421   5.829  -0.521  0.00  0.00    +0.154 HD
BRANCH  15  20
ATOM     17  C   UNL     1      -1.002   7.635   0.078  0.00  0.00    +0.120 A 
ATOM     18  C   UNL     1      -0.620   6.853   1.158  0.00  0.00    +0.047 A 
ATOM     19  C   UNL     1       0.540   6.106   1.094  0.00  0.00    +0.027 A 
ATOM     20  C   UNL     1       1.324   6.139  -0.051  0.00  0.00    +0.033 A 
ATOM     21  C   UNL     1       0.944   6.926  -1.130  0.00  0.00    +0.027 A 
ATOM     22  C   UNL     1      -0.220   7.668  -1.067  0.00  0.00    +0.047 A 
BRANCH  17  24
ATOM     23  C   UNL     1      -2.477   9.153  -1.007  0.00  0.00    +0.277 C 
ATOM     24  O   UNL     1      -2.144   8.370   0.142  0.00  0.00    -0.495 OA
ENDBRANCH  17  24
ENDBRANCH  15  20
ENDBRANCH  13  15
ENDBRANCH   1  13
BRANCH   7  25
ATOM     25  C   UNL     1       7.677  -1.063  -1.273  0.00  0.00    +0.119 C 
BRANCH  25  26
ATOM     26  C   UNL     1       7.558  -2.522  -0.918  0.00  0.00    -0.033 A 
ATOM     27  C   UNL     1       8.449  -3.092  -0.028  0.00  0.00    +0.005 A 
ATOM     28  C   UNL     1       8.337  -4.430   0.302  0.00  0.00    +0.000 A 
ATOM     29  C   UNL     1       7.340  -5.200  -0.267  0.00  0.00    +0.000 A 
ATOM     30  C   UNL     1       6.453  -4.632  -1.161  0.00  0.00    +0.000 A 
ATOM     31  C   UNL     1       6.561  -3.293  -1.487  0.00  0.00    +0.005 A 
ENDBRANCH  25  26
ENDBRANCH   7  25
TORSDOF 6
