REMARK  Name = ZINC12507714
REMARK  6 active torsions:
REMARK  status: ('A' for Active; 'I' for Inactive)
REMARK    1  A    between atoms: C_1  and  C_2
REMARK    2  A    between atoms: C_2  and  O_3
REMARK    3  A    between atoms: O_3  and  C_4
REMARK    4  A    between atoms: C_6  and  C_13
REMARK    5  A    between atoms: C_9  and  O_10
REMARK    6  A    between atoms: O_10  and  C_11
REMARK                            x       y       z     vdW  Elec       q    Type
REMARK                         _______ _______ _______ _____ _____    ______ ____
ROOT
ATOM      1  C   UNL     1      -0.218  -4.962  -0.536  0.00  0.00    +0.209 C 
ATOM      2  N   UNL     1      -0.819  -6.140   0.116  0.00  0.00    -0.294 N 
ATOM      3  C   UNL     1      -0.026  -7.197   0.480  0.00  0.00    +0.160 C 
ATOM      4  N   UNL     1       1.074  -7.496  -0.188  0.00  0.00    -0.302 N 
ATOM      5  C   UNL     1       1.442  -6.692  -1.214  0.00  0.00    +0.213 A 
ATOM      6  N   UNL     1       0.839  -5.464  -1.422  0.00  0.00    -0.286 N 
ATOM      7  C   UNL     1       1.412  -4.894  -2.534  0.00  0.00    +0.076 A 
ATOM      8  C   UNL     1       1.217  -3.704  -3.224  0.00  0.00    +0.077 A 
ATOM      9  C   UNL     1       1.984  -3.420  -4.337  0.00  0.00    +0.164 A 
ATOM     10  C   UNL     1       2.952  -4.320  -4.775  0.00  0.00    +0.164 A 
ATOM     11  C   UNL     1       3.159  -5.506  -4.103  0.00  0.00    +0.079 A 
ATOM     12  C   UNL     1       2.390  -5.806  -2.974  0.00  0.00    +0.095 A 
ATOM     13  N   UNL     1       2.365  -6.875  -2.122  0.00  0.00    -0.212 NA
ATOM     14  O   UNL     1       3.701  -4.020  -5.878  0.00  0.00    -0.488 OA
ATOM     15  C   UNL     1       3.002  -4.004  -7.123  0.00  0.00    +0.232 C 
ATOM     16  C   UNL     1       2.334  -2.657  -7.350  0.00  0.00    +0.082 C 
ATOM     17  C   UNL     1       1.244  -2.371  -6.329  0.00  0.00    +0.232 C 
ATOM     18  O   UNL     1       1.797  -2.250  -5.017  0.00  0.00    -0.488 OA
ATOM     19  N   UNL     1      -0.382  -7.959   1.560  0.00  0.00    -0.332 N 
ATOM     20  H   UNL     1      -1.773  -6.168   0.287  0.00  0.00    +0.151 HD
ATOM     21  H   UNL     1      -1.187  -7.749   2.058  0.00  0.00    +0.145 HD
ATOM     22  H   UNL     1       0.172  -8.710   1.827  0.00  0.00    +0.145 HD
ATOM     23  H   UNL     1       1.605  -8.272   0.050  0.00  0.00    +0.171 HD
ENDROOT
BRANCH   1  26
ATOM     24  C   UNL     1       0.802  -1.825   1.306  0.00  0.00    +0.164 A 
ATOM     25  C   UNL     1       0.260  -2.673   0.352  0.00  0.00    +0.056 A 
ATOM     26  C   UNL     1       0.371  -4.043   0.502  0.00  0.00    -0.002 A 
ATOM     27  C   UNL     1       1.022  -4.571   1.601  0.00  0.00    +0.031 A 
ATOM     28  C   UNL     1       1.565  -3.731   2.557  0.00  0.00    +0.087 A 
ATOM     29  C   UNL     1       1.462  -2.356   2.409  0.00  0.00    +0.180 A 
ATOM     30 CL   UNL     1       2.381  -4.397   3.937  0.00  0.00    -0.080 Cl
BRANCH  29  31
ATOM     31  O   UNL     1       2.001  -1.527   3.345  0.00  0.00    -0.490 OA
ATOM     32  C   UNL     1       1.161  -1.150   4.438  0.00  0.00    +0.277 C 
ENDBRANCH  29  31
BRANCH  24  33
ATOM     33  O   UNL     1       0.693  -0.477   1.160  0.00  0.00    -0.489 OA
BRANCH  33  35
ATOM     34  C   UNL     1      -0.019   1.526   0.010  0.00  0.00    +0.048 C 
ATOM     35  C   UNL     1       0.002  -0.004   0.002  0.00  0.00    +0.226 C 
ENDBRANCH  33  35
ENDBRANCH  24  33
ENDBRANCH   1  26
TORSDOF 4
