REMARK  Name = ZINC67624129
REMARK  9 active torsions:
REMARK  status: ('A' for Active; 'I' for Inactive)
REMARK    1  A    between atoms: C_1  and  C_2
REMARK    2  A    between atoms: N_5  and  C_8
REMARK    3  A    between atoms: C_8  and  C_9
REMARK    4  A    between atoms: C_9  and  C_11
REMARK    5  A    between atoms: C_9  and  O_30
REMARK    6  A    between atoms: C_11  and  N_12
REMARK    7  A    between atoms: N_15  and  C_16
REMARK    8  A    between atoms: C_16  and  C_18
REMARK    9  A    between atoms: C_16  and  C_19
REMARK                            x       y       z     vdW  Elec       q    Type
REMARK                         _______ _______ _______ _____ _____    ______ ____
ROOT
ATOM      1  N   UNL     1       0.630  -6.349   4.007  0.00  0.00    -0.297 N 
ATOM      2  C   UNL     1       0.786  -7.662   4.270  0.00  0.00    +0.300 C 
ATOM      3  O   UNL     1       0.440  -8.491   3.452  0.00  0.00    -0.253 OA
ATOM      4  N   UNL     1       1.328  -8.054   5.441  0.00  0.00    -0.293 N 
ATOM      5  H   UNL     1       0.906  -5.687   4.660  0.00  0.00    +0.150 HD
ATOM      6  H   UNL     1       1.605  -7.392   6.093  0.00  0.00    +0.151 HD
ENDROOT
BRANCH   4   7
ATOM      7  C   UNL     1       1.499  -9.481   5.727  0.00  0.00    +0.102 C 
ATOM      8  C   UNL     1       0.200 -10.043   6.308  0.00  0.00    +0.033 C 
BRANCH   7   9
ATOM      9  C   UNL     1       2.615  -9.663   6.723  0.00  0.00    -0.025 A 
ATOM     10  C   UNL     1       2.742  -8.786   7.784  0.00  0.00    +0.009 A 
ATOM     11  C   UNL     1       3.763  -8.947   8.703  0.00  0.00    +0.048 A 
ATOM     12  C   UNL     1       4.661  -9.991   8.560  0.00  0.00    +0.142 A 
ATOM     13  C   UNL     1       4.533 -10.874   7.490  0.00  0.00    +0.076 A 
ATOM     14  C   UNL     1       3.505 -10.711   6.576  0.00  0.00    +0.032 A 
ATOM     15  N   UNL     1       5.451 -11.926   7.355  0.00  0.00    -0.280 N 
ATOM     16  C   UNL     1       6.231 -12.252   8.409  0.00  0.00    +0.255 C 
ATOM     17  O   UNL     1       7.054 -13.137   8.306  0.00  0.00    -0.272 OA
ATOM     18  C   UNL     1       6.075 -11.512   9.712  0.00  0.00    +0.325 C 
ATOM     19  O   UNL     1       5.670 -10.165   9.455  0.00  0.00    -0.481 OA
ATOM     20  H   UNL     1       5.524 -12.412   6.519  0.00  0.00    +0.155 HD
ENDBRANCH   7   9
ENDBRANCH   4   7
BRANCH   1  21
ATOM     21  C   UNL     1       0.041  -5.922   2.735  0.00  0.00    +0.135 C 
BRANCH  21  22
ATOM     22  C   UNL     1      -0.023  -4.394   2.690  0.00  0.00    +0.115 C 
BRANCH  22  23
ATOM     23  O   UNL     1       1.303  -3.862   2.691  0.00  0.00    -0.392 OA
ATOM     24  H   UNL     1       1.841  -4.147   1.940  0.00  0.00    +0.210 HD
ENDBRANCH  22  23
BRANCH  22  25
ATOM     25  C   UNL     1      -0.750  -3.952   1.419  0.00  0.00    -0.046 C 
BRANCH  25  30
ATOM     26  C   UNL     1      -2.158   1.567   1.124  0.00  0.00    +0.007 C 
ATOM     27  C   UNL     1      -2.222   0.038   1.151  0.00  0.00    -0.018 C 
ATOM     28  C   UNL     1      -1.674  -0.474   2.486  0.00  0.00    -0.016 C 
ATOM     29  C   UNL     1      -1.667  -2.005   2.474  0.00  0.00    -0.078 C 
ATOM     30  N   UNL     1      -0.817  -2.485   1.378  0.00  0.00    +0.381 N 
ATOM     31  C   UNL     1      -1.376  -2.057   0.090  0.00  0.00    -0.078 C 
ATOM     32  C   UNL     1      -1.372  -0.529   0.010  0.00  0.00    -0.016 C 
ATOM     33  H   UNL     1       0.112  -2.105   1.483  0.00  0.00    -0.082 HD
ENDBRANCH  25  30
ENDBRANCH  22  25
ENDBRANCH  21  22
ENDBRANCH   1  21
TORSDOF 7
