REMARK  Name = ZINC64491708
REMARK  3 active torsions:
REMARK  status: ('A' for Active; 'I' for Inactive)
REMARK    1  A    between atoms: C_1  and  C_2
REMARK    2  A    between atoms: C_8  and  C_12
REMARK    3  A    between atoms: C_20  and  C_22
REMARK                            x       y       z     vdW  Elec       q    Type
REMARK                         _______ _______ _______ _____ _____    ______ ____
ROOT
ATOM      1  C   UNL     1       1.514  -3.051   2.924  0.00  0.00    +0.238 C 
ATOM      2  O   UNL     1       2.213  -4.001   2.641  0.00  0.00    -0.273 OA
ATOM      3  N   UNL     1       2.009  -2.052   3.682  0.00  0.00    -0.297 N 
ATOM      4  C   UNL     1       1.171  -0.898   4.037  0.00  0.00    +0.127 C 
ATOM      5  C   UNL     1       1.160  -0.753   5.564  0.00  0.00    +0.127 C 
ATOM      6  N   UNL     1       2.546  -0.799   6.050  0.00  0.00    -0.297 N 
ATOM      7  C   UNL     1       3.384  -1.953   5.695  0.00  0.00    +0.127 C 
ATOM      8  C   UNL     1       3.393  -2.101   4.173  0.00  0.00    +0.127 C 
ATOM      9  C   UNL     1       3.041   0.200   6.809  0.00  0.00    +0.242 C 
ATOM     10  O   UNL     1       2.340   1.147   7.095  0.00  0.00    -0.273 OA
ENDROOT
BRANCH   1  18
ATOM     11  C   UNL     1      -0.018   1.503   0.010  0.00  0.00    +0.044 C 
ATOM     12  C   UNL     1       0.002  -0.004   0.002  0.00  0.00    -0.050 A 
ATOM     13  C   UNL     1       0.006  -0.680  -1.205  0.00  0.00    +0.004 A 
ATOM     14  C   UNL     1       0.017  -2.063  -1.203  0.00  0.00    +0.016 A 
ATOM     15  C   UNL     1       0.027  -2.746  -0.005  0.00  0.00    +0.028 A 
ATOM     16  C   UNL     1       0.039  -2.084   1.222  0.00  0.00    -0.006 A 
ATOM     17  C   UNL     1       0.023  -0.690   1.197  0.00  0.00    +0.010 A 
ATOM     18  C   UNL     1       0.093  -2.987   2.427  0.00  0.00    +0.182 C 
ATOM     19  N   UNL     1      -0.371  -4.364   2.135  0.00  0.00    -0.243 NA
ATOM     20  S   UNL     1       0.022  -4.479   0.392  0.00  0.00    -0.043 S 
ATOM     21  H   UNL     1       0.152  -5.042   2.669  0.00  0.00    +0.137 HD
ENDBRANCH   1  18
BRANCH   9  22
ATOM     22  C   UNL     1       4.464   0.139   7.300  0.00  0.00    +0.190 C 
ATOM     23  C   UNL     1       5.420   0.138   6.129  0.00  0.00    +0.016 C 
ATOM     24  C   UNL     1       6.185   1.245   6.268  0.00  0.00    -0.002 A 
ATOM     25  C   UNL     1       7.282   1.803   5.468  0.00  0.00    +0.029 A 
ATOM     26  C   UNL     1       7.867   2.955   5.870  0.00  0.00    +0.042 A 
ATOM     27  C   UNL     1       7.453   3.627   7.030  0.00  0.00    +0.022 A 
ATOM     28  C   UNL     1       6.452   3.175   7.816  0.00  0.00    +0.027 A 
ATOM     29  C   UNL     1       5.767   1.973   7.488  0.00  0.00    +0.043 A 
ATOM     30  N   UNL     1       4.782   1.340   8.080  0.00  0.00    -0.370 N 
ATOM     31 CL   UNL     1       9.165   3.618   4.927  0.00  0.00    -0.084 Cl
ATOM     32  H   UNL     1       4.337   1.619   8.896  0.00  0.00    +0.161 HD
ENDBRANCH   9  22
TORSDOF 2
