REMARK  Name = ZINC29615860
REMARK  13 active torsions:
REMARK  status: ('A' for Active; 'I' for Inactive)
REMARK    1  A    between atoms: C_1  and  C_2
REMARK    2  A    between atoms: C_5  and  N_9
REMARK    3  A    between atoms: C_6  and  C_8
REMARK    4  A    between atoms: C_13  and  C_15
REMARK    5  A    between atoms: C_15  and  C_17
REMARK    6  A    between atoms: C_15  and  N_18
REMARK    7  A    between atoms: N_18  and  C_19
REMARK    8  A    between atoms: C_19  and  C_21
REMARK    9  A    between atoms: C_19  and  C_22
REMARK   10  A    between atoms: C_24  and  O_30
REMARK   11  A    between atoms: C_27  and  O_28
REMARK   12  A    between atoms: O_28  and  C_29
REMARK   13  A    between atoms: O_30  and  C_31
REMARK                            x       y       z     vdW  Elec       q    Type
REMARK                         _______ _______ _______ _____ _____    ______ ____
ROOT
ATOM      1  C   UNL     1      -2.235   4.911   6.299  0.00  0.00    +0.014 C 
ATOM      2  C   UNL     1      -3.699   4.983   6.739  0.00  0.00    -0.004 C 
ENDROOT
BRANCH   1   7
ATOM      3  N   UNL     1      -0.647   3.856  10.713  0.00  0.00    -0.269 N 
ATOM      4  C   UNL     1      -0.715   3.544   9.403  0.00  0.00    +0.310 C 
ATOM      5  O   UNL     1      -0.159   2.547   8.986  0.00  0.00    -0.252 OA
ATOM      6  N   UNL     1      -1.401   4.337   8.556  0.00  0.00    -0.241 N 
ATOM      7  C   UNL     1      -1.469   4.024   7.247  0.00  0.00    +0.206 C 
ATOM      8  O   UNL     1      -0.914   3.030   6.831  0.00  0.00    -0.277 OA
ATOM      9  H   UNL     1      -1.202   4.723  11.101  0.00  0.00    +0.156 HD
ATOM     10  H   UNL     1      -1.905   5.239   8.933  0.00  0.00    +0.159 HD
BRANCH   3  15
ATOM     11  C   UNL     1       2.504   0.702  14.220  0.00  0.00    +0.044 C 
ATOM     12  C   UNL     1       1.666   1.540  13.289  0.00  0.00    -0.050 A 
ATOM     13  C   UNL     1       1.157   0.983  12.130  0.00  0.00    +0.005 A 
ATOM     14  C   UNL     1       0.390   1.748  11.274  0.00  0.00    +0.024 A 
ATOM     15  C   UNL     1       0.130   3.078  11.578  0.00  0.00    +0.038 A 
ATOM     16  C   UNL     1       0.647   3.635  12.740  0.00  0.00    -0.029 A 
ATOM     17  C   UNL     1       1.409   2.863  13.595  0.00  0.00    +0.008 A 
ATOM     18  C   UNL     1       0.372   5.080  13.070  0.00  0.00    +0.045 C 
ENDBRANCH   3  15
ENDBRANCH   1   7
BRANCH   1  19
ATOM     19  N   UNL     1      -2.159   4.358   4.941  0.00  0.00    +0.391 N 
ATOM     20  H   UNL     1      -2.242   3.262   4.986  0.00  0.00    -0.084 HD
ATOM     21  H   UNL     1      -2.981   4.764   4.333  0.00  0.00    -0.084 HD
BRANCH  19  22
ATOM     22  C   UNL     1      -0.883   4.708   4.301  0.00  0.00    -0.039 C 
ATOM     23  C   UNL     1      -1.030   6.041   3.565  0.00  0.00    -0.009 C 
BRANCH  22  24
ATOM     24  C   UNL     1      -0.502   3.630   3.319  0.00  0.00    -0.016 A 
ATOM     25  C   UNL     1      -1.479   2.834   2.754  0.00  0.00    +0.051 A 
ATOM     26  C   UNL     1      -1.128   1.842   1.850  0.00  0.00    +0.121 A 
ATOM     27  C   UNL     1       0.204   1.646   1.518  0.00  0.00    +0.049 A 
ATOM     28  C   UNL     1       1.180   2.447   2.078  0.00  0.00    +0.049 A 
ATOM     29  C   UNL     1       0.830   3.438   2.982  0.00  0.00    +0.122 A 
BRANCH  29  30
ATOM     30  O   UNL     1       1.791   4.223   3.538  0.00  0.00    -0.495 OA
ATOM     31  C   UNL     1       3.142   3.970   3.145  0.00  0.00    +0.277 C 
ENDBRANCH  29  30
BRANCH  26  32
ATOM     32  O   UNL     1      -2.090   1.058   1.294  0.00  0.00    -0.495 OA
ATOM     33  C   UNL     1      -1.657   0.056   0.371  0.00  0.00    +0.277 C 
ENDBRANCH  26  32
ENDBRANCH  22  24
ENDBRANCH  19  22
ENDBRANCH   1  19
TORSDOF 7
