REMARK  Name = ZINC66850174
REMARK  6 active torsions:
REMARK  status: ('A' for Active; 'I' for Inactive)
REMARK    1  A    between atoms: C_1  and  C_2
REMARK    2  A    between atoms: C_2  and  C_4
REMARK    3  A    between atoms: C_2  and  N_14
REMARK    4  A    between atoms: N_10  and  C_11
REMARK    5  A    between atoms: N_10  and  C_12
REMARK    6  A    between atoms: C_18  and  C_21
REMARK                            x       y       z     vdW  Elec       q    Type
REMARK                         _______ _______ _______ _____ _____    ______ ____
ROOT
ATOM      1  C   UNL     1      -0.019   1.526   0.010  0.00  0.00    +0.032 C 
ATOM      2  C   UNL     1       0.002  -0.004   0.002  0.00  0.00    +0.122 C 
ENDROOT
BRANCH   2   3
ATOM      3  C   UNL     1      -1.412  -0.526   0.013  0.00  0.00    +0.153 A 
ATOM      4  N   UNL     1      -2.141  -0.475  -1.088  0.00  0.00    -0.198 NA
ATOM      5  C   UNL     1      -3.390  -0.935  -1.083  0.00  0.00    +0.217 A 
ATOM      6  N   UNL     1      -3.903  -1.446   0.031  0.00  0.00    -0.181 NA
ATOM      7  C   UNL     1      -3.167  -1.495   1.136  0.00  0.00    +0.222 A 
ATOM      8  N   UNL     1      -1.917  -1.038   1.121  0.00  0.00    -0.198 NA
ATOM      9  N   UNL     1      -3.695  -2.025   2.295  0.00  0.00    -0.306 N 
ATOM     10  C   UNL     1      -5.069  -2.533   2.309  0.00  0.00    +0.132 C 
ATOM     11  C   UNL     1      -2.882  -2.079   3.513  0.00  0.00    +0.132 C 
ATOM     12  N   UNL     1      -4.152  -0.881  -2.232  0.00  0.00    -0.327 N 
ATOM     13  H   UNL     1      -3.776  -0.507  -3.045  0.00  0.00    +0.145 HD
ATOM     14  H   UNL     1      -5.062  -1.216  -2.228  0.00  0.00    +0.145 HD
ENDBRANCH   2   3
BRANCH   2  15
ATOM     15  N   UNL     1       0.690  -0.478  -1.207  0.00  0.00    -0.288 NA
ATOM     16  C   UNL     1       0.653  -1.945  -1.292  0.00  0.00    +0.113 C 
ATOM     17  C   UNL     1       1.327  -2.392  -2.593  0.00  0.00    +0.176 C 
ATOM     18  O   UNL     1       2.662  -1.879  -2.633  0.00  0.00    -0.369 OA
ATOM     19  C   UNL     1       2.734  -0.454  -2.552  0.00  0.00    +0.162 C 
ATOM     20  C   UNL     1       2.075   0.013  -1.251  0.00  0.00    +0.121 C 
BRANCH  19  21
ATOM     21  C   UNL     1       4.178  -0.021  -2.569  0.00  0.00    -0.015 A 
ATOM     22  C   UNL     1       5.140  -0.804  -1.959  0.00  0.00    +0.009 A 
ATOM     23  C   UNL     1       6.465  -0.409  -1.973  0.00  0.00    +0.041 A 
ATOM     24  C   UNL     1       6.829   0.770  -2.599  0.00  0.00    +0.158 A 
ATOM     25  C   UNL     1       5.864   1.555  -3.211  0.00  0.00    +0.159 A 
ATOM     26  C   UNL     1       4.539   1.155  -3.199  0.00  0.00    +0.047 A 
ATOM     27  F   UNL     1       6.216   2.707  -3.822  0.00  0.00    -0.202 F 
ATOM     28  F   UNL     1       8.123   1.157  -2.612  0.00  0.00    -0.202 F 
ENDBRANCH  19  21
ENDBRANCH   2  15
TORSDOF 3
