REMARK  Name = ZINC44563358
REMARK  6 active torsions:
REMARK  status: ('A' for Active; 'I' for Inactive)
REMARK    1  A    between atoms: C_1  and  N_2
REMARK    2  A    between atoms: C_7  and  C_9
REMARK    3  A    between atoms: C_9  and  N_10
REMARK    4  A    between atoms: N_10  and  S_11
REMARK    5  A    between atoms: S_11  and  C_14
REMARK    6  A    between atoms: C_16  and  N_21
REMARK                            x       y       z     vdW  Elec       q    Type
REMARK                         _______ _______ _______ _____ _____    ______ ____
ROOT
ATOM      1  S   UNL     1       3.204   2.759   1.702  0.00  0.00    +0.060 S 
ATOM      2  O   UNL     1       2.698   4.087   1.706  0.00  0.00    -0.153 OA
ATOM      3  O   UNL     1       3.866   2.192   2.824  0.00  0.00    -0.153 OA
ENDROOT
BRANCH   1   4
ATOM      4  C   UNL     1       4.325   2.651   0.347  0.00  0.00    +0.125 A 
ATOM      5  C   UNL     1       4.570   3.762  -0.436  0.00  0.00    +0.052 A 
ATOM      6  C   UNL     1       5.454   3.677  -1.503  0.00  0.00    +0.026 A 
ATOM      7  C   UNL     1       6.091   2.473  -1.779  0.00  0.00    +0.024 A 
ATOM      8  C   UNL     1       5.843   1.366  -0.993  0.00  0.00    +0.024 A 
ATOM      9  C   UNL     1       4.965   1.455   0.073  0.00  0.00    +0.067 A 
ATOM     10 CL   UNL     1       4.660   0.063   1.064  0.00  0.00    -0.082 Cl
BRANCH   6  11
ATOM     11  N   UNL     1       5.703   4.799  -2.298  0.00  0.00    -0.358 N 
ATOM     12  H   UNL     1       5.258   5.639  -2.104  0.00  0.00    +0.142 HD
ATOM     13  H   UNL     1       6.321   4.738  -3.043  0.00  0.00    +0.142 HD
ENDBRANCH   6  11
ENDBRANCH   1   4
BRANCH   1  14
ATOM     14  N   UNL     1       1.923   1.766   1.358  0.00  0.00    -0.191 NA
ATOM     15  H   UNL     1       1.040   2.143   1.224  0.00  0.00    +0.148 HD
BRANCH  14  16
ATOM     16  C   UNL     1       2.126   0.319   1.256  0.00  0.00    +0.090 C 
BRANCH  16  23
ATOM     17  C   UNL     1       0.898  -0.264   3.713  0.00  0.00    -0.096 C 
ATOM     18  N   UNL     1       0.063   0.022   2.539  0.00  0.00    +0.381 N 
ATOM     19  C   UNL     1      -1.204  -0.711   2.651  0.00  0.00    -0.079 C 
ATOM     20  C   UNL     1      -2.111  -0.353   1.471  0.00  0.00    -0.019 C 
ATOM     21  C   UNL     1      -1.412  -0.734   0.163  0.00  0.00    -0.003 C 
ATOM     22  C   UNL     1      -0.059  -0.021   0.092  0.00  0.00    -0.014 C 
ATOM     23  C   UNL     1       0.772  -0.391   1.322  0.00  0.00    -0.053 C 
ATOM     24  H   UNL     1      -0.127   1.012   2.496  0.00  0.00    -0.082 HD
ENDBRANCH  16  23
ENDBRANCH  14  16
ENDBRANCH   1  14
TORSDOF 5
