REMARK  Name = ZINC43862024
REMARK  11 active torsions:
REMARK  status: ('A' for Active; 'I' for Inactive)
REMARK    1  A    between atoms: C_1  and  N_2
REMARK    2  A    between atoms: N_2  and  C_3
REMARK    3  A    between atoms: N_2  and  C_4
REMARK    4  A    between atoms: C_4  and  C_5
REMARK    5  A    between atoms: N_7  and  C_8
REMARK    6  A    between atoms: C_12  and  C_14
REMARK    7  A    between atoms: C_14  and  N_15
REMARK    8  A    between atoms: N_18  and  C_19
REMARK    9  A    between atoms: C_19  and  C_20
REMARK   10  A    between atoms: C_20  and  S_21
REMARK   11  A    between atoms: S_21  and  C_22
REMARK                            x       y       z     vdW  Elec       q    Type
REMARK                         _______ _______ _______ _____ _____    ______ ____
ROOT
ATOM      1  C   UNL     1      -7.227  -0.541  -4.500  0.00  0.00    +0.141 C 
ENDROOT
BRANCH   1   6
ATOM      2  C   UNL     1      -3.915  -0.160  -2.719  0.00  0.00    +0.034 A 
ATOM      3  C   UNL     1      -3.157   0.487  -3.686  0.00  0.00    +0.023 A 
ATOM      4  C   UNL     1      -3.719   0.797  -4.909  0.00  0.00    +0.002 A 
ATOM      5  C   UNL     1      -5.036   0.464  -5.171  0.00  0.00    +0.005 A 
ATOM      6  C   UNL     1      -5.793  -0.180  -4.210  0.00  0.00    -0.029 A 
ATOM      7  C   UNL     1      -5.235  -0.499  -2.988  0.00  0.00    +0.028 A 
BRANCH   2  10
ATOM      8  C   UNL     1      -3.699  -1.614  -0.849  0.00  0.00    +0.201 C 
ATOM      9  O   UNL     1      -4.567  -2.323  -1.314  0.00  0.00    -0.278 OA
ATOM     10  N   UNL     1      -3.349  -0.476  -1.480  0.00  0.00    -0.287 N 
ATOM     11  H   UNL     1      -2.704   0.124  -1.074  0.00  0.00    +0.155 HD
BRANCH   8  12
ATOM     12  C   UNL     1      -3.014  -2.006   0.435  0.00  0.00    +0.018 C 
BRANCH  12  14
ATOM     13  C   UNL     1      -3.252  -4.346  -0.034  0.00  0.00    -0.096 C 
ATOM     14  N   UNL     1      -3.571  -3.276   0.920  0.00  0.00    +0.382 N 
ATOM     15  C   UNL     1      -2.989  -3.597   2.230  0.00  0.00    -0.096 C 
ATOM     16  H   UNL     1      -4.573  -3.192   1.008  0.00  0.00    -0.082 HD
ENDBRANCH  12  14
ENDBRANCH   8  12
ENDBRANCH   2  10
ENDBRANCH   1   6
BRANCH   1  17
ATOM     17  N   UNL     1      -7.284  -1.880  -5.092  0.00  0.00    -0.295 N 
ATOM     18  C   UNL     1      -8.472  -2.415  -5.435  0.00  0.00    +0.300 C 
ATOM     19  O   UNL     1      -9.497  -1.786  -5.254  0.00  0.00    -0.253 OA
ATOM     20  N   UNL     1      -8.525  -3.647  -5.980  0.00  0.00    -0.299 N 
ATOM     21  H   UNL     1      -6.466  -2.381  -5.237  0.00  0.00    +0.151 HD
ATOM     22  H   UNL     1      -7.707  -4.148  -6.125  0.00  0.00    +0.150 HD
BRANCH  20  23
ATOM     23  C   UNL     1      -9.816  -4.228  -6.353  0.00  0.00    +0.116 C 
BRANCH  23  24
ATOM     24  C   UNL     1      -9.596  -5.622  -6.944  0.00  0.00    +0.093 C 
BRANCH  24  25
ATOM     25  S   UNL     1     -11.196  -6.343  -7.406  0.00  0.00    -0.124 S 
BRANCH  25  26
ATOM     26  C   UNL     1     -10.778  -7.924  -8.061  0.00  0.00    +0.008 A 
ATOM     27  C   UNL     1      -9.449  -8.329  -8.110  0.00  0.00    +0.015 A 
ATOM     28  C   UNL     1      -9.125  -9.569  -8.624  0.00  0.00    +0.001 A 
ATOM     29  C   UNL     1     -10.121 -10.408  -9.089  0.00  0.00    +0.000 A 
ATOM     30  C   UNL     1     -11.445 -10.009  -9.042  0.00  0.00    +0.001 A 
ATOM     31  C   UNL     1     -11.777  -8.772  -8.524  0.00  0.00    +0.015 A 
ENDBRANCH  25  26
ENDBRANCH  24  25
ENDBRANCH  23  24
ENDBRANCH  20  23
ENDBRANCH   1  17
TORSDOF 9
