REMARK  Name = ZINC10217101
REMARK  6 active torsions:
REMARK  status: ('A' for Active; 'I' for Inactive)
REMARK    1  A    between atoms: C_1  and  C_2
REMARK    2  A    between atoms: C_14  and  C_29
REMARK    3  A    between atoms: C_17  and  C_18
REMARK    4  A    between atoms: C_17  and  N_61
REMARK    5  A    between atoms: N_20  and  C_21
REMARK    6  A    between atoms: C_21  and  C_28
REMARK                            x       y       z     vdW  Elec       q    Type
REMARK                         _______ _______ _______ _____ _____    ______ ____
ROOT
ATOM      1  C   UNL     1       5.411  -5.118  -0.563  0.00  0.00    -0.007 C 
ATOM      2  C   UNL     1       4.726  -5.525   0.743  0.00  0.00    -0.023 C 
ATOM      3  C   UNL     1       5.753  -6.068   1.708  0.00  0.00    +0.007 A 
ATOM      4  C   UNL     1       5.778  -5.740   3.020  0.00  0.00    -0.015 A 
ATOM      5  C   UNL     1       6.893  -6.441   3.615  0.00  0.00    +0.004 A 
ATOM      6  C   UNL     1       7.403  -6.488   4.916  0.00  0.00    +0.010 A 
ATOM      7  C   UNL     1       8.504  -7.282   5.124  0.00  0.00    +0.001 A 
ATOM      8  C   UNL     1       9.092  -8.008   4.102  0.00  0.00    +0.002 A 
ATOM      9  C   UNL     1       8.608  -7.981   2.805  0.00  0.00    +0.026 A 
ATOM     10  C   UNL     1       7.492  -7.184   2.564  0.00  0.00    +0.047 A 
ATOM     11  N   UNL     1       6.775  -6.933   1.428  0.00  0.00    -0.359 N 
ATOM     12  H   UNL     1       6.962  -7.312   0.555  0.00  0.00    +0.166 HD
ATOM     13  C   UNL     1       4.785  -4.804   3.662  0.00  0.00    +0.036 C 
ATOM     14  C   UNL     1       3.594  -4.647   2.706  0.00  0.00    -0.064 C 
ATOM     15  N   UNL     1       4.108  -4.325   1.356  0.00  0.00    +0.391 N 
ATOM     16  H   UNL     1       4.821  -3.590   1.439  0.00  0.00    -0.080 HD
ENDROOT
BRANCH  13  17
ATOM     17  C   UNL     1       4.314  -5.382   4.972  0.00  0.00    -0.023 A 
ATOM     18  C   UNL     1       3.702  -6.621   5.001  0.00  0.00    +0.005 A 
ATOM     19  C   UNL     1       3.270  -7.151   6.202  0.00  0.00    +0.000 A 
ATOM     20  C   UNL     1       3.449  -6.442   7.375  0.00  0.00    +0.001 A 
ATOM     21  C   UNL     1       4.061  -5.203   7.348  0.00  0.00    +0.020 A 
ATOM     22  C   UNL     1       4.498  -4.674   6.146  0.00  0.00    +0.045 A 
ATOM     23 CL   UNL     1       5.273  -3.121   6.112  0.00  0.00    -0.083 Cl
ENDBRANCH  13  17
BRANCH  15  24
ATOM     24  C   UNL     1       3.008  -3.832   0.502  0.00  0.00    +0.019 C 
BRANCH  24  25
ATOM     25  C   UNL     1       2.554  -2.493   1.023  0.00  0.00    +0.197 C 
ATOM     26  O   UNL     1       3.078  -2.015   2.007  0.00  0.00    -0.278 OA
ATOM     27  N   UNL     1       1.565  -1.826   0.395  0.00  0.00    -0.310 N 
ATOM     28  H   UNL     1       1.146  -2.208  -0.393  0.00  0.00    +0.149 HD
BRANCH  27  29
ATOM     29  C   UNL     1       1.123  -0.524   0.900  0.00  0.00    +0.052 C 
ATOM     30  C   UNL     1       0.002  -0.004   0.002  0.00  0.00    +0.049 C 
ATOM     31  C   UNL     1      -0.019   1.550   0.011  0.00  0.00    +0.168 C 
ATOM     32  S   UNL     1       1.798   1.882  -0.005  0.00  0.00    -0.029 S 
ATOM     33  O   UNL     1       2.283   1.765  -1.335  0.00  0.00    -0.174 OA
ATOM     34  O   UNL     1       2.063   3.064   0.739  0.00  0.00    -0.174 OA
ATOM     35  C   UNL     1       2.341   0.418   0.970  0.00  0.00    +0.191 C 
ATOM     36  C   UNL     1       0.572  -0.711   2.315  0.00  0.00    +0.033 C 
ENDBRANCH  27  29
ENDBRANCH  24  25
ENDBRANCH  15  24
TORSDOF 4
