REMARK  Name = ZINC60041112
REMARK  12 active torsions:
REMARK  status: ('A' for Active; 'I' for Inactive)
REMARK    1  A    between atoms: C_1  and  C_2
REMARK    2  A    between atoms: C_2  and  C_3
REMARK    3  A    between atoms: C_3  and  C_4
REMARK    4  A    between atoms: C_4  and  N_5
REMARK    5  A    between atoms: C_6  and  C_8
REMARK    6  A    between atoms: C_12  and  C_34
REMARK    7  A    between atoms: N_14  and  C_16
REMARK    8  A    between atoms: C_16  and  C_17
REMARK    9  A    between atoms: N_19  and  C_20
REMARK   10  A    between atoms: C_20  and  C_22
REMARK   11  A    between atoms: C_20  and  C_29
REMARK   12  A    between atoms: C_25  and  C_28
REMARK                            x       y       z     vdW  Elec       q    Type
REMARK                         _______ _______ _______ _____ _____    ______ ____
ROOT
ATOM      1  C   UNL     1       2.957  -7.793  -2.723  0.00  0.00    +0.019 C 
ENDROOT
BRANCH   1   6
ATOM      2  C   UNL     1       2.269  -4.308  -3.932  0.00  0.00    +0.058 C 
ATOM      3  C   UNL     1       3.707  -3.780  -3.943  0.00  0.00    +0.009 C 
ATOM      4  C   UNL     1       4.460  -4.355  -2.740  0.00  0.00    -0.015 C 
ATOM      5  C   UNL     1       4.403  -5.883  -2.791  0.00  0.00    -0.071 C 
ATOM      6  N   UNL     1       3.004  -6.325  -2.752  0.00  0.00    +0.388 N 
ATOM      7  C   UNL     1       2.292  -5.838  -3.940  0.00  0.00    -0.065 C 
ATOM      8  C   UNL     1       5.154  -6.462  -1.591  0.00  0.00    -0.013 C 
ATOM      9  H   UNL     1       2.560  -5.961  -1.922  0.00  0.00    -0.081 HD
BRANCH   2  11
ATOM     10  N   UNL     1       1.425  -2.500  -2.470  0.00  0.00    -0.315 N 
ATOM     11  C   UNL     1       1.564  -3.822  -2.692  0.00  0.00    +0.214 C 
ATOM     12  O   UNL     1       1.121  -4.620  -1.894  0.00  0.00    -0.276 OA
ATOM     13  H   UNL     1       1.779  -1.861  -3.109  0.00  0.00    +0.149 HD
BRANCH  10  14
ATOM     14  C   UNL     1       0.739  -2.027  -1.265  0.00  0.00    +0.104 C 
BRANCH  14  15
ATOM     15  C   UNL     1       0.718  -0.497  -1.257  0.00  0.00    +0.018 C 
BRANCH  15  17
ATOM     16  C   UNL     1      -0.019   1.526   0.010  0.00  0.00    +0.004 C 
ATOM     17  C   UNL     1       0.002  -0.004   0.002  0.00  0.00    -0.002 C 
ENDBRANCH  15  17
ENDBRANCH  14  15
ENDBRANCH  10  14
ENDBRANCH   2  11
ENDBRANCH   1   6
BRANCH   1  18
ATOM     18  C   UNL     1       1.529  -8.247  -2.558  0.00  0.00    +0.197 C 
ATOM     19  O   UNL     1       0.639  -7.428  -2.474  0.00  0.00    -0.278 OA
ATOM     20  N   UNL     1       1.242  -9.563  -2.506  0.00  0.00    -0.306 N 
ATOM     21  H   UNL     1       1.955 -10.218  -2.574  0.00  0.00    +0.150 HD
BRANCH  20  22
ATOM     22  C   UNL     1      -0.145 -10.004  -2.346  0.00  0.00    +0.140 C 
BRANCH  22  23
ATOM     23  C   UNL     1      -0.299 -11.393  -2.911  0.00  0.00    -0.022 A 
ATOM     24  C   UNL     1       0.690 -12.336  -2.706  0.00  0.00    +0.006 A 
ATOM     25  C   UNL     1       0.549 -13.610  -3.224  0.00  0.00    +0.004 A 
ATOM     26  C   UNL     1      -0.582 -13.941  -3.947  0.00  0.00    -0.050 A 
ATOM     27  C   UNL     1      -1.572 -12.997  -4.152  0.00  0.00    +0.004 A 
ATOM     28  C   UNL     1      -1.433 -11.725  -3.630  0.00  0.00    +0.006 A 
ATOM     29  C   UNL     1      -0.736 -15.329  -4.513  0.00  0.00    +0.044 C 
ENDBRANCH  22  23
BRANCH  22  30
ATOM     30  C   UNL     1      -0.504 -10.015  -0.882  0.00  0.00    +0.014 A 
ATOM     31  C   UNL     1      -1.661  -9.640  -0.284  0.00  0.00    +0.013 A 
ATOM     32  C   UNL     1      -1.767  -9.737   1.091  0.00  0.00    +0.008 A 
ATOM     33  C   UNL     1      -0.710 -10.205   1.800  0.00  0.00    +0.045 A 
ATOM     34  S   UNL     1       0.483 -10.532   0.513  0.00  0.00    -0.099 S 
ENDBRANCH  22  30
ENDBRANCH  20  22
ENDBRANCH   1  18
TORSDOF 9
