REMARK  Name = ZINC63789306
REMARK  6 active torsions:
REMARK  status: ('A' for Active; 'I' for Inactive)
REMARK    1  A    between atoms: C_7  and  C_10
REMARK    2  A    between atoms: C_10  and  C_11
REMARK    3  A    between atoms: C_11  and  C_12
REMARK    4  A    between atoms: C_12  and  C_13
REMARK    5  A    between atoms: N_15  and  C_16
REMARK    6  A    between atoms: C_18  and  C_27
REMARK                            x       y       z     vdW  Elec       q    Type
REMARK                         _______ _______ _______ _____ _____    ______ ____
ROOT
ATOM      1  C   UNL     1      -0.532  -5.659  -2.464  0.00  0.00    +0.214 C 
ATOM      2  O   UNL     1      -0.059  -4.938  -3.316  0.00  0.00    -0.276 OA
ATOM      3  N   UNL     1      -1.380  -6.647  -2.812  0.00  0.00    -0.302 N 
ATOM      4  H   UNL     1      -1.759  -7.224  -2.130  0.00  0.00    +0.150 HD
ENDROOT
BRANCH   3   5
ATOM      5  C   UNL     1      -1.729  -6.851  -4.220  0.00  0.00    +0.151 C 
ATOM      6  C   UNL     1      -1.567  -8.332  -4.637  0.00  0.00    +0.132 C 
ATOM      7  C   UNL     1      -1.022  -8.459  -6.037  0.00  0.00    -0.046 C 
ATOM      8  C   UNL     1      -0.412  -7.401  -6.558  0.00  0.00    -0.013 C 
ATOM      9  S   UNL     1      -0.475  -6.104  -5.343  0.00  0.00    -0.106 S 
ATOM     10  C   UNL     1       0.217  -7.299  -7.920  0.00  0.00    +0.042 C 
ATOM     11  C   UNL     1       0.378  -8.711  -8.496  0.00  0.00    +0.005 C 
ATOM     12  C   UNL     1      -0.944  -9.464  -8.314  0.00  0.00    +0.005 C 
ATOM     13  C   UNL     1      -1.162  -9.757  -6.830  0.00  0.00    +0.032 C 
BRANCH   6  14
ATOM     14  C   UNL     1      -2.911  -9.012  -4.571  0.00  0.00    +0.220 C 
ATOM     15  O   UNL     1      -3.913  -8.404  -4.880  0.00  0.00    -0.275 OA
ATOM     16  N   UNL     1      -2.998 -10.295  -4.169  0.00  0.00    -0.329 N 
ATOM     17  H   UNL     1      -2.196 -10.782  -3.922  0.00  0.00    +0.145 HD
ATOM     18  H   UNL     1      -3.862 -10.733  -4.127  0.00  0.00    +0.145 HD
ENDBRANCH   6  14
ENDBRANCH   3   5
BRANCH   1  19
ATOM     19  C   UNL     1      -0.173  -5.449  -1.015  0.00  0.00    +0.096 C 
BRANCH  19  20
ATOM     20  C   UNL     1       0.797  -4.273  -0.895  0.00  0.00    +0.014 C 
BRANCH  20  21
ATOM     21  C   UNL     1       1.162  -4.060   0.575  0.00  0.00    +0.033 C 
BRANCH  21  28
ATOM     22  C   UNL     1       0.533   0.401   1.448  0.00  0.00    +0.001 A 
ATOM     23  C   UNL     1       1.722   1.143   1.467  0.00  0.00    +0.002 A 
ATOM     24  C   UNL     1       2.933   0.587   1.248  0.00  0.00    +0.026 A 
ATOM     25  C   UNL     1       3.046  -0.806   0.983  0.00  0.00    +0.043 A 
ATOM     26  N   UNL     1       4.086  -1.567   0.743  0.00  0.00    -0.380 N 
ATOM     27  C   UNL     1       3.622  -2.943   0.538  0.00  0.00    +0.144 C 
ATOM     28  C   UNL     1       2.118  -2.901   0.693  0.00  0.00    -0.042 C 
ATOM     29  C   UNL     1       1.805  -1.612   0.958  0.00  0.00    -0.001 A 
ATOM     30  C   UNL     1       0.529  -0.930   1.207  0.00  0.00    +0.010 A 
ATOM     31  H   UNL     1       5.009  -1.270   0.706  0.00  0.00    +0.160 HD
ENDBRANCH  21  28
ENDBRANCH  20  21
ENDBRANCH  19  20
ENDBRANCH   1  19
TORSDOF 6
