REMARK  Name = ZINC02916918
REMARK  4 active torsions:
REMARK  status: ('A' for Active; 'I' for Inactive)
REMARK    1  A    between atoms: C_1  and  N_2
REMARK    2  A    between atoms: N_2  and  C_3
REMARK    3  A    between atoms: N_2  and  C_4
REMARK    4  A    between atoms: C_7  and  C_10
REMARK                            x       y       z     vdW  Elec       q    Type
REMARK                         _______ _______ _______ _____ _____    ______ ____
ROOT
ATOM      1  C   UNL     1       1.015   3.502  -0.067  0.00  0.00    +0.028 C 
ATOM      2  C   UNL     1       0.025   4.136   0.615  0.00  0.00    +0.081 A 
ATOM      3  C   UNL     1      -0.298   5.567   0.673  0.00  0.00    +0.273 A 
ATOM      4  O   UNL     1       0.358   6.385   0.056  0.00  0.00    -0.266 OA
ATOM      5  N   UNL     1      -1.341   5.944   1.430  0.00  0.00    -0.236 N 
ATOM      6  C   UNL     1      -1.972   7.156   1.756  0.00  0.00    +0.168 A 
ATOM      7  C   UNL     1      -3.031   6.842   2.619  0.00  0.00    +0.111 A 
ATOM      8  C   UNL     1      -3.838   7.875   3.105  0.00  0.00    +0.048 A 
ATOM      9  C   UNL     1      -3.548   9.169   2.706  0.00  0.00    +0.038 A 
ATOM     10  C   UNL     1      -2.483   9.398   1.850  0.00  0.00    +0.128 A 
ATOM     11  N   UNL     1      -1.736   8.407   1.405  0.00  0.00    -0.234 NA
ATOM     12 BR   UNL     1      -4.600  10.613   3.325  0.00  0.00    -0.049 Br
ATOM     13  N   UNL     1      -3.025   5.496   2.794  0.00  0.00    -0.219 NA
ATOM     14  C   UNL     1      -2.047   4.978   2.107  0.00  0.00    +0.183 A 
ATOM     15  S   UNL     1      -1.238   3.451   1.676  0.00  0.00    -0.046 S 
ENDROOT
BRANCH   1  19
ATOM     16  C   UNL     1       1.126  -0.730  -0.193  0.00  0.00    +0.029 A 
ATOM     17  C   UNL     1      -0.050  -0.077   0.166  0.00  0.00    +0.023 A 
ATOM     18  C   UNL     1      -0.091   1.293   0.208  0.00  0.00    +0.010 A 
ATOM     19  C   UNL     1       1.053   2.036  -0.111  0.00  0.00    -0.024 A 
ATOM     20  C   UNL     1       2.235   1.374  -0.471  0.00  0.00    +0.010 A 
ATOM     21  C   UNL     1       2.266   0.004  -0.510  0.00  0.00    +0.023 A 
BRANCH  16  23
ATOM     22  C   UNL     1       0.006  -2.898   0.217  0.00  0.00    +0.129 C 
ATOM     23  N   UNL     1       1.163  -2.121  -0.234  0.00  0.00    -0.336 N 
ATOM     24  C   UNL     1       2.359  -2.808  -0.727  0.00  0.00    +0.129 C 
ENDBRANCH  16  23
ENDBRANCH   1  19
TORSDOF 2
