REMARK  Name = ZINC67609083
REMARK  8 active torsions:
REMARK  status: ('A' for Active; 'I' for Inactive)
REMARK    1  A    between atoms: C_1  and  C_2
REMARK    2  A    between atoms: C_4  and  C_7
REMARK    3  A    between atoms: C_7  and  N_8
REMARK    4  A    between atoms: N_11  and  C_12
REMARK    5  A    between atoms: C_12  and  C_13
REMARK    6  A    between atoms: C_13  and  C_15
REMARK    7  A    between atoms: C_13  and  O_26
REMARK    8  A    between atoms: C_15  and  N_16
REMARK                            x       y       z     vdW  Elec       q    Type
REMARK                         _______ _______ _______ _____ _____    ______ ____
ROOT
ATOM      1  C   UNL     1      -3.358  -6.899  -4.676  0.00  0.00    +0.115 C 
ENDROOT
BRANCH   1   2
ATOM      2  O   UNL     1      -2.105  -7.324  -5.216  0.00  0.00    -0.392 OA
ATOM      3  H   UNL     1      -1.784  -8.161  -4.854  0.00  0.00    +0.210 HD
ENDBRANCH   1   2
BRANCH   1   4
ATOM      4  C   UNL     1      -3.226  -6.716  -3.163  0.00  0.00    +0.135 C 
BRANCH   4   8
ATOM      5  N   UNL     1      -1.160  -4.272  -1.352  0.00  0.00    -0.294 N 
ATOM      6  C   UNL     1      -2.019  -5.279  -1.609  0.00  0.00    +0.300 C 
ATOM      7  O   UNL     1      -2.546  -5.877  -0.692  0.00  0.00    -0.253 OA
ATOM      8  N   UNL     1      -2.292  -5.622  -2.883  0.00  0.00    -0.297 N 
ATOM      9  H   UNL     1      -0.740  -3.795  -2.084  0.00  0.00    +0.151 HD
ATOM     10  H   UNL     1      -1.871  -5.145  -3.615  0.00  0.00    +0.150 HD
BRANCH   5  11
ATOM     11  C   UNL     1      -0.863  -3.899   0.033  0.00  0.00    +0.164 C 
BRANCH  11  15
ATOM     12  C   UNL     1       1.057   0.817   0.195  0.00  0.00    +0.089 C 
ATOM     13  C   UNL     1       0.939  -0.683   0.118  0.00  0.00    +0.135 A 
ATOM     14  C   UNL     1      -0.208  -1.389   0.138  0.00  0.00    +0.072 A 
ATOM     15  C   UNL     1       0.117  -2.755   0.046  0.00  0.00    +0.101 A 
ATOM     16  N   UNL     1       1.414  -2.857  -0.026  0.00  0.00    -0.081 NA
ATOM     17  O   UNL     1       1.958  -1.550   0.013  0.00  0.00    -0.360 OA
ENDBRANCH  11  15
ENDBRANCH   5  11
ENDBRANCH   4   8
ENDBRANCH   1   4
BRANCH   1  18
ATOM     18  C   UNL     1      -4.425  -7.956  -4.970  0.00  0.00    -0.045 C 
BRANCH  18  19
ATOM     19  N   UNL     1      -4.554  -8.130  -6.423  0.00  0.00    +0.384 N 
ATOM     20  C   UNL     1      -5.100  -6.902  -7.019  0.00  0.00    -0.074 C 
ATOM     21  C   UNL     1      -4.940  -6.984  -8.538  0.00  0.00    +0.017 C 
ATOM     22  C   UNL     1      -5.495  -8.293  -9.039  0.00  0.00    -0.048 A 
ATOM     23  C   UNL     1      -5.764  -8.426 -10.392  0.00  0.00    +0.004 A 
ATOM     24  C   UNL     1      -6.270  -9.611 -10.888  0.00  0.00    +0.000 A 
ATOM     25  C   UNL     1      -6.507 -10.670 -10.031  0.00  0.00    +0.000 A 
ATOM     26  C   UNL     1      -6.240 -10.537  -8.683  0.00  0.00    +0.002 A 
ATOM     27  C   UNL     1      -5.734  -9.347  -8.183  0.00  0.00    -0.061 A 
ATOM     28  C   UNL     1      -5.465  -9.243  -6.705  0.00  0.00    -0.043 C 
ATOM     29  H   UNL     1      -3.648  -8.327  -6.822  0.00  0.00    -0.081 HD
ENDBRANCH  18  19
ENDBRANCH   1  18
TORSDOF 7
