REMARK  Name = ZINC48895971
REMARK  4 active torsions:
REMARK  status: ('A' for Active; 'I' for Inactive)
REMARK    1  A    between atoms: C_3  and  N_9
REMARK    2  A    between atoms: C_6  and  N_7
REMARK    3  A    between atoms: C_10  and  C_12
REMARK    4  A    between atoms: C_12  and  N_13
REMARK                            x       y       z     vdW  Elec       q    Type
REMARK                         _______ _______ _______ _____ _____    ______ ____
ROOT
ATOM      1  N   UNL     1       3.585   2.132  -0.022  0.00  0.00    -0.286 N 
ATOM      2  C   UNL     1       3.567   3.477  -0.117  0.00  0.00    +0.201 C 
ATOM      3  O   UNL     1       2.511   4.072  -0.103  0.00  0.00    -0.278 OA
ATOM      4  H   UNL     1       4.431   1.661   0.033  0.00  0.00    +0.155 HD
ENDROOT
BRANCH   1   7
ATOM      5  C   UNL     1       0.075   1.248   0.635  0.00  0.00    +0.024 A 
ATOM      6  C   UNL     1       1.262   1.954   0.617  0.00  0.00    +0.026 A 
ATOM      7  C   UNL     1       2.381   1.415  -0.003  0.00  0.00    +0.048 A 
ATOM      8  C   UNL     1       2.307   0.165  -0.605  0.00  0.00    +0.041 A 
ATOM      9  C   UNL     1       1.120  -0.541  -0.586  0.00  0.00    +0.039 A 
ATOM     10  C   UNL     1       0.001  -0.001   0.034  0.00  0.00    +0.026 A 
ATOM     11 BR   UNL     1       3.831  -0.569  -1.450  0.00  0.00    -0.048 Br
BRANCH  10  12
ATOM     12  N   UNL     1      -1.202  -0.716   0.053  0.00  0.00    -0.358 N 
ATOM     13  H   UNL     1      -1.983  -0.339   0.485  0.00  0.00    +0.142 HD
ATOM     14  H   UNL     1      -1.253  -1.589  -0.367  0.00  0.00    +0.142 HD
ENDBRANCH  10  12
ENDBRANCH   1   7
BRANCH   2  15
ATOM     15  C   UNL     1       4.861   4.240  -0.240  0.00  0.00    +0.019 C 
BRANCH  15  16
ATOM     16  N   UNL     1       4.574   5.678  -0.327  0.00  0.00    +0.386 N 
ATOM     17  C   UNL     1       5.820   6.436  -0.411  0.00  0.00    -0.077 C 
ATOM     18  C   UNL     1       5.724   7.633   0.537  0.00  0.00    -0.008 C 
ATOM     19  C   UNL     1       4.368   8.355   0.550  0.00  0.00    +0.067 C 
ATOM     20  S   UNL     1       3.689   8.617  -1.101  0.00  0.00    -0.163 S 
ATOM     21  C   UNL     1       2.833   7.032  -1.471  0.00  0.00    +0.050 C 
ATOM     22  C   UNL     1       3.840   5.973  -1.562  0.00  0.00    -0.067 C 
ATOM     23  H   UNL     1       4.038   5.975   0.475  0.00  0.00    -0.081 HD
ENDBRANCH  15  16
ENDBRANCH   2  15
TORSDOF 4
