REMARK  Name = ZINC66981905
REMARK  9 active torsions:
REMARK  status: ('A' for Active; 'I' for Inactive)
REMARK    1  A    between atoms: C_1  and  C_2
REMARK    2  A    between atoms: N_7  and  C_9
REMARK    3  A    between atoms: C_9  and  C_10
REMARK    4  A    between atoms: C_9  and  C_11
REMARK    5  A    between atoms: C_9  and  C_12
REMARK    6  A    between atoms: C_12  and  N_13
REMARK    7  A    between atoms: N_16  and  C_17
REMARK    8  A    between atoms: C_19  and  N_25
REMARK    9  A    between atoms: C_26  and  C_28
REMARK                            x       y       z     vdW  Elec       q    Type
REMARK                         _______ _______ _______ _____ _____    ______ ____
ROOT
ATOM      1  N   UNL     1       2.153  -4.465   1.172  0.00  0.00    -0.300 N 
ATOM      2  C   UNL     1       2.301  -5.784   0.943  0.00  0.00    +0.304 C 
ATOM      3  O   UNL     1       1.905  -6.592   1.761  0.00  0.00    -0.253 OA
ATOM      4  N   UNL     1       2.889  -6.209  -0.194  0.00  0.00    -0.267 N 
ATOM      5  H   UNL     1       2.469  -3.820   0.519  0.00  0.00    +0.150 HD
ATOM      6  H   UNL     1       3.146  -5.568  -0.875  0.00  0.00    +0.156 HD
ENDROOT
BRANCH   4   7
ATOM      7  C   UNL     1       3.128  -7.576  -0.391  0.00  0.00    +0.072 A 
ATOM      8  C   UNL     1       2.232  -8.515   0.100  0.00  0.00    +0.052 A 
ATOM      9  C   UNL     1       2.471  -9.867  -0.096  0.00  0.00    +0.071 A 
ATOM     10  C   UNL     1       3.607 -10.279  -0.785  0.00  0.00    +0.147 A 
ATOM     11  C   UNL     1       4.499  -9.341  -1.273  0.00  0.00    +0.080 A 
ATOM     12  C   UNL     1       4.259  -7.991  -1.083  0.00  0.00    +0.147 A 
ATOM     13  F   UNL     1       5.129  -7.077  -1.566  0.00  0.00    -0.203 F 
ATOM     14  F   UNL     1       3.840 -11.596  -0.977  0.00  0.00    -0.203 F 
BRANCH   9  15
ATOM     15  N   UNL     1       1.569 -10.818   0.399  0.00  0.00    -0.283 N 
ATOM     16  C   UNL     1       0.248 -10.547   0.420  0.00  0.00    +0.214 C 
ATOM     17  O   UNL     1      -0.151  -9.451   0.086  0.00  0.00    -0.276 OA
ATOM     18  C   UNL     1      -0.731 -11.605   0.858  0.00  0.00    +0.109 C 
ATOM     19  H   UNL     1       1.894 -11.671   0.727  0.00  0.00    +0.155 HD
ENDBRANCH   9  15
ENDBRANCH   4   7
BRANCH   1  20
ATOM     20  C   UNL     1       1.514  -4.003   2.407  0.00  0.00    +0.093 C 
BRANCH  20  21
ATOM     21  C   UNL     1       1.471  -2.474   2.418  0.00  0.00    -0.055 C 
ATOM     22  C   UNL     1       2.897  -1.923   2.345  0.00  0.00    -0.008 C 
ATOM     23  C   UNL     1       0.804  -1.992   3.708  0.00  0.00    -0.008 C 
BRANCH  21  29
ATOM     24  C   UNL     1      -0.097   1.504   0.034  0.00  0.00    +0.005 C 
ATOM     25  C   UNL     1      -0.062  -0.025   0.023  0.00  0.00    -0.031 C 
ATOM     26  C   UNL     1      -1.493  -0.569   0.022  0.00  0.00    -0.001 C 
ATOM     27  C   UNL     1      -1.448  -2.099   0.089  0.00  0.00    -0.018 C 
ATOM     28  C   UNL     1      -0.666  -2.526   1.333  0.00  0.00    -0.078 C 
ATOM     29  N   UNL     1       0.702  -1.997   1.262  0.00  0.00    +0.384 N 
ATOM     30  C   UNL     1       0.670  -0.529   1.268  0.00  0.00    -0.075 C 
ATOM     31  H   UNL     1       1.141  -2.318   0.412  0.00  0.00    -0.081 HD
ENDBRANCH  21  29
ENDBRANCH  20  21
ENDBRANCH   1  20
TORSDOF 5
