REMARK  Name = ZINC64609908
REMARK  5 active torsions:
REMARK  status: ('A' for Active; 'I' for Inactive)
REMARK    1  A    between atoms: C_6  and  C_12
REMARK    2  A    between atoms: C_12  and  N_13
REMARK    3  A    between atoms: C_16  and  N_19
REMARK    4  A    between atoms: C_21  and  C_24
REMARK    5  A    between atoms: C_24  and  N_25
REMARK                            x       y       z     vdW  Elec       q    Type
REMARK                         _______ _______ _______ _____ _____    ______ ____
ROOT
ATOM      1  N   UNL     1       5.123  -2.635   1.280  0.00  0.00    -0.300 NA
ATOM      2  C   UNL     1       5.777  -3.333   0.167  0.00  0.00    +0.086 C 
ATOM      3  C   UNL     1       7.279  -3.044   0.193  0.00  0.00    +0.042 C 
ATOM      4  C   UNL     1       7.862  -3.515   1.528  0.00  0.00    +0.111 C 
ATOM      5  C   UNL     1       7.131  -2.808   2.673  0.00  0.00    +0.042 C 
ATOM      6  C   UNL     1       5.633  -3.104   2.575  0.00  0.00    +0.086 C 
ENDROOT
BRANCH   4   7
ATOM      7  N   UNL     1       9.289  -3.187   1.583  0.00  0.00    -0.248 N 
ATOM      8  C   UNL     1       9.816  -2.005   1.976  0.00  0.00    +0.131 A 
ATOM      9  C   UNL     1      11.159  -2.138   1.872  0.00  0.00    +0.066 A 
ATOM     10  N   UNL     1      11.385  -3.379   1.426  0.00  0.00    -0.136 NA
ATOM     11  N   UNL     1      10.256  -3.977   1.270  0.00  0.00    -0.065 NA
BRANCH   9  12
ATOM     12  C   UNL     1      12.197  -1.094   2.194  0.00  0.00    -0.027 C 
BRANCH  12  13
ATOM     13  N   UNL     1      12.677  -1.288   3.569  0.00  0.00    +0.382 N 
ATOM     14  H   UNL     1      13.086  -2.207   3.656  0.00  0.00    -0.090 HD
ATOM     15  H   UNL     1      13.371  -0.589   3.785  0.00  0.00    -0.090 HD
ATOM     16  H   UNL     1      11.903  -1.203   4.211  0.00  0.00    -0.090 HD
ENDBRANCH  12  13
ENDBRANCH   9  12
ENDBRANCH   4   7
BRANCH   1  17
ATOM     17  C   UNL     1       3.663  -2.777   1.206  0.00  0.00    +0.114 C 
BRANCH  17  23
ATOM     18  C   UNL     1      -0.016   1.349   0.009  0.00  0.00    +0.001 A 
ATOM     19  C   UNL     1       1.165   2.101   0.002  0.00  0.00    +0.002 A 
ATOM     20  C   UNL     1       2.391   1.533  -0.013  0.00  0.00    +0.026 A 
ATOM     21  C   UNL     1       2.526   0.118  -0.021  0.00  0.00    +0.044 A 
ATOM     22  N   UNL     1       3.585  -0.657  -0.036  0.00  0.00    -0.375 N 
ATOM     23  C   UNL     1       3.142  -2.056  -0.039  0.00  0.00    +0.135 C 
ATOM     24  C   UNL     1       1.631  -2.012  -0.024  0.00  0.00    +0.051 C 
ATOM     25  C   UNL     1       1.294  -0.698  -0.014  0.00  0.00    +0.014 A 
ATOM     26  C   UNL     1       0.002  -0.004   0.002  0.00  0.00    +0.011 A 
ATOM     27 CL   UNL     1       0.547  -3.368  -0.022  0.00  0.00    -0.085 Cl
ATOM     28  H   UNL     1       4.507  -0.356  -0.043  0.00  0.00    +0.160 HD
ENDBRANCH  17  23
ENDBRANCH   1  17
TORSDOF 5
