REMARK  Name = ZINC36629440
REMARK  9 active torsions:
REMARK  status: ('A' for Active; 'I' for Inactive)
REMARK    1  A    between atoms: C_1  and  C_2
REMARK    2  A    between atoms: C_5  and  O_8
REMARK    3  A    between atoms: O_8  and  C_9
REMARK    4  A    between atoms: C_9  and  C_10
REMARK    5  A    between atoms: N_12  and  C_13
REMARK    6  A    between atoms: C_14  and  C_25
REMARK    7  A    between atoms: N_19  and  C_22
REMARK    8  A    between atoms: C_22  and  C_23
REMARK    9  A    between atoms: C_22  and  C_24
REMARK                            x       y       z     vdW  Elec       q    Type
REMARK                         _______ _______ _______ _____ _____    ______ ____
ROOT
ATOM      1  C   UNL     1       0.221  -8.465   1.873  0.00  0.00    +0.084 A 
ATOM      2  C   UNL     1       0.224  -9.451   2.848  0.00  0.00    +0.068 A 
ATOM      3  C   UNL     1       0.217 -10.828   2.395  0.00  0.00    -0.027 A 
ATOM      4  C   UNL     1       0.211 -10.970   1.050  0.00  0.00    -0.021 A 
ATOM      5  S   UNL     1       0.204  -9.318   0.425  0.00  0.00    -0.079 S 
ATOM      6  C   UNL     1       0.209 -12.265   0.299  0.00  0.00    -0.035 C 
ATOM      7  N   UNL     1       0.597 -13.341   1.230  0.00  0.00    +0.384 N 
ATOM      8  C   UNL     1      -0.220 -13.258   2.448  0.00  0.00    -0.073 C 
ATOM      9  C   UNL     1       0.213 -12.056   3.294  0.00  0.00    +0.018 C 
ATOM     10  H   UNL     1       1.571 -13.241   1.472  0.00  0.00    -0.081 HD
ENDROOT
BRANCH   2  11
ATOM     11  C   UNL     1       0.232  -9.116   4.275  0.00  0.00    +0.244 C 
ATOM     12  O   UNL     1      -0.818  -8.974   4.873  0.00  0.00    -0.270 OA
ATOM     13  N   UNL     1       1.403  -8.965   4.925  0.00  0.00    -0.325 N 
ATOM     14  H   UNL     1       2.240  -9.078   4.448  0.00  0.00    +0.145 HD
ATOM     15  H   UNL     1       1.409  -8.743   5.869  0.00  0.00    +0.145 HD
ENDBRANCH   2  11
BRANCH   1  18
ATOM     16  C   UNL     1       0.217  -6.271   0.981  0.00  0.00    +0.255 C 
ATOM     17  O   UNL     1       0.205  -6.737  -0.139  0.00  0.00    -0.272 OA
ATOM     18  N   UNL     1       0.226  -7.090   2.051  0.00  0.00    -0.277 N 
ATOM     19  H   UNL     1       0.236  -6.717   2.947  0.00  0.00    +0.155 HD
BRANCH  16  20
ATOM     20  C   UNL     1       0.222  -4.776   1.175  0.00  0.00    +0.324 C 
BRANCH  20  21
ATOM     21  O   UNL     1       0.210  -4.130  -0.099  0.00  0.00    -0.483 OA
BRANCH  21  26
ATOM     22  C   UNL     1       0.220   1.502  -0.111  0.00  0.00    +0.044 C 
ATOM     23  C   UNL     1       0.217  -0.005  -0.107  0.00  0.00    -0.050 A 
ATOM     24  C   UNL     1       0.205  -0.697  -1.304  0.00  0.00    +0.007 A 
ATOM     25  C   UNL     1       0.203  -2.079  -1.304  0.00  0.00    +0.046 A 
ATOM     26  C   UNL     1       0.213  -2.771  -0.102  0.00  0.00    +0.121 A 
ATOM     27  C   UNL     1       0.226  -2.074   1.097  0.00  0.00    +0.046 A 
ATOM     28  C   UNL     1       0.234  -0.693   1.092  0.00  0.00    +0.007 A 
ENDBRANCH  21  26
ENDBRANCH  20  21
ENDBRANCH  16  20
ENDBRANCH   1  18
BRANCH   7  29
ATOM     29  C   UNL     1       0.384 -14.644   0.587  0.00  0.00    -0.074 C 
ATOM     30  C   UNL     1       1.129 -14.681  -0.749  0.00  0.00    -0.014 C 
ATOM     31  C   UNL     1       0.913 -15.754   1.496  0.00  0.00    -0.014 C 
ENDBRANCH   7  29
TORSDOF 6
