REMARK  Name = ZINC20832650
REMARK  14 active torsions:
REMARK  status: ('A' for Active; 'I' for Inactive)
REMARK    1  A    between atoms: C_1  and  C_2
REMARK    2  A    between atoms: C_2  and  C_3
REMARK    3  A    between atoms: C_3  and  C_5
REMARK    4  A    between atoms: C_3  and  C_6
REMARK    5  A    between atoms: C_9  and  N_12
REMARK    6  A    between atoms: C_13  and  C_15
REMARK    7  A    between atoms: C_15  and  C_16
REMARK    8  A    between atoms: C_16  and  S_17
REMARK    9  A    between atoms: S_17  and  C_18
REMARK   10  A    between atoms: N_23  and  N_24
REMARK   11  A    between atoms: C_25  and  C_26
REMARK   12  A    between atoms: C_30  and  C_33
REMARK   13  A    between atoms: C_31  and  O_32
REMARK   14  A    between atoms: C_33  and  C_34
REMARK                            x       y       z     vdW  Elec       q    Type
REMARK                         _______ _______ _______ _____ _____    ______ ____
ROOT
ATOM      1  C   UNL     1       5.522   7.650  -0.003  0.00  0.00    +0.210 A 
ATOM      2  N   UNL     1       5.954   6.354  -0.009  0.00  0.00    -0.186 NA
ATOM      3  C   UNL     1       4.853   5.542  -0.010  0.00  0.00    +0.232 A 
ATOM      4  N   UNL     1       3.787   6.305  -0.010  0.00  0.00    -0.245 N 
ATOM      5  N   UNL     1       4.210   7.641   0.000  0.00  0.00    -0.144 NA
ATOM      6  N   UNL     1       4.864   4.155  -0.016  0.00  0.00    -0.205 N 
ATOM      7  H   UNL     1       5.820   3.612  -0.020  0.00  0.00    +0.177 HD
ATOM      8  H   UNL     1       2.785   5.850  -0.018  0.00  0.00    +0.192 HD
ENDROOT
BRANCH   6   9
ATOM      9  N   UNL     1       3.655   3.446  -0.016  0.00  0.00    -0.187 NA
ATOM     10  C   UNL     1       3.665   2.147  -0.021  0.00  0.00    +0.142 C 
BRANCH  10  11
ATOM     11  C   UNL     1       2.394   1.401  -0.021  0.00  0.00    +0.036 A 
ATOM     12  C   UNL     1       2.400   0.004  -0.027  0.00  0.00    +0.013 A 
ATOM     13  C   UNL     1       1.207  -0.688  -0.027  0.00  0.00    +0.001 A 
ATOM     14  C   UNL     1       0.004  -0.005  -0.021  0.00  0.00    +0.007 A 
ATOM     15  C   UNL     1      -0.015   1.378  -0.016  0.00  0.00    -0.002 A 
ATOM     16  C   UNL     1       1.173   2.089  -0.015  0.00  0.00    +0.129 A 
BRANCH  16  17
ATOM     17  O   UNL     1       1.155   3.447  -0.010  0.00  0.00    -0.506 OA
ATOM     18  H   UNL     1       0.196   3.984  -0.005  0.00  0.00    +0.292 HD
ENDBRANCH  16  17
BRANCH  15  19
ATOM     19  C   UNL     1      -1.331   2.112  -0.016  0.00  0.00    +0.065 C 
BRANCH  19  20
ATOM     20  C   UNL     1      -1.706   2.471  -1.431  0.00  0.00    -0.030 C 
ATOM     21  C   UNL     1      -2.865   2.100  -1.915  0.00  0.00    +0.004 C 
ENDBRANCH  19  20
ENDBRANCH  15  19
ENDBRANCH  10  11
ENDBRANCH   6   9
BRANCH   1  22
ATOM     22  S   UNL     1       6.547   9.083   0.000  0.00  0.00    -0.084 S 
BRANCH  22  23
ATOM     23  C   UNL     1       5.371  10.464   0.009  0.00  0.00    +0.086 C 
BRANCH  23  24
ATOM     24  C   UNL     1       6.139  11.788   0.012  0.00  0.00    +0.107 C 
BRANCH  24  26
ATOM     25  N   UNL     1       5.613  14.205   0.023  0.00  0.00    -0.285 N 
ATOM     26  C   UNL     1       5.162  12.935   0.019  0.00  0.00    +0.218 C 
ATOM     27  O   UNL     1       3.969  12.716   0.022  0.00  0.00    -0.275 OA
ATOM     28  H   UNL     1       6.692  14.405   0.098  0.00  0.00    +0.155 HD
BRANCH  25  32
ATOM     29  C   UNL     1       2.922  17.374  -0.248  0.00  0.00    -0.044 A 
ATOM     30  C   UNL     1       2.572  16.229   0.444  0.00  0.00    +0.006 A 
ATOM     31  C   UNL     1       3.462  15.177   0.535  0.00  0.00    +0.023 A 
ATOM     32  C   UNL     1       4.710  15.269  -0.068  0.00  0.00    +0.033 A 
ATOM     33  C   UNL     1       5.060  16.423  -0.757  0.00  0.00    +0.023 A 
ATOM     34  C   UNL     1       4.164  17.470  -0.849  0.00  0.00    +0.006 A 
BRANCH  29  35
ATOM     35  C   UNL     1       1.949  18.520  -0.346  0.00  0.00    +0.016 C 
ATOM     36  C   UNL     1       1.628  18.792  -1.817  0.00  0.00    +0.012 C 
BRANCH  35  38
ATOM     37  C   UNL     1       1.537  20.900   0.293  0.00  0.00    +0.004 C 
ATOM     38  C   UNL     1       2.569  19.771   0.280  0.00  0.00    +0.004 C 
ENDBRANCH  35  38
ENDBRANCH  29  35
ENDBRANCH  25  32
ENDBRANCH  24  26
ENDBRANCH  23  24
ENDBRANCH  22  23
ENDBRANCH   1  22
TORSDOF 12
