REMARK  Name = ZINC00749406
REMARK  13 active torsions:
REMARK  status: ('A' for Active; 'I' for Inactive)
REMARK    1  A    between atoms: C_1  and  C_2
REMARK    2  A    between atoms: C_5  and  N_8
REMARK    3  A    between atoms: C_9  and  C_22
REMARK    4  A    between atoms: C_12  and  S_13
REMARK    5  A    between atoms: S_13  and  C_14
REMARK    6  A    between atoms: C_14  and  C_15
REMARK    7  A    between atoms: C_20  and  C_21
REMARK    8  A    between atoms: C_22  and  N_23
REMARK    9  A    between atoms: N_26  and  C_27
REMARK   10  A    between atoms: C_29  and  O_35
REMARK   11  A    between atoms: C_31  and  O_33
REMARK   12  A    between atoms: O_33  and  C_34
REMARK   13  A    between atoms: O_35  and  C_36
REMARK                            x       y       z     vdW  Elec       q    Type
REMARK                         _______ _______ _______ _____ _____    ______ ____
ROOT
ATOM      1  N   UNL     1       2.943   0.138  -1.388  0.00  0.00    -0.273 N 
ATOM      2  C   UNL     1       2.396   0.786  -0.313  0.00  0.00    +0.156 A 
ATOM      3  N   UNL     1       3.079   0.435   0.740  0.00  0.00    -0.132 NA
ATOM      4  N   UNL     1       4.007  -0.390   0.410  0.00  0.00    -0.122 NA
ATOM      5  C   UNL     1       3.974  -0.607  -0.884  0.00  0.00    +0.196 A 
ENDROOT
BRANCH   1  10
ATOM      6  C   UNL     1       1.280   0.467  -6.805  0.00  0.00    +0.044 C 
ATOM      7  C   UNL     1       1.722   0.380  -5.367  0.00  0.00    -0.050 A 
ATOM      8  C   UNL     1       2.969   0.851  -4.998  0.00  0.00    +0.005 A 
ATOM      9  C   UNL     1       3.376   0.772  -3.681  0.00  0.00    +0.026 A 
ATOM     10  C   UNL     1       2.532   0.220  -2.727  0.00  0.00    +0.050 A 
ATOM     11  C   UNL     1       1.283  -0.257  -3.101  0.00  0.00    +0.026 A 
ATOM     12  C   UNL     1       0.879  -0.170  -4.419  0.00  0.00    +0.005 A 
ENDBRANCH   1  10
BRANCH   5  13
ATOM     13  S   UNL     1       5.054  -1.657  -1.799  0.00  0.00    -0.081 S 
BRANCH  13  14
ATOM     14  C   UNL     1       6.109  -2.265  -0.460  0.00  0.00    +0.112 C 
BRANCH  14  15
ATOM     15  C   UNL     1       7.140  -3.210  -1.023  0.00  0.00    -0.034 A 
ATOM     16  C   UNL     1       6.867  -4.563  -1.103  0.00  0.00    +0.005 A 
ATOM     17  C   UNL     1       7.811  -5.428  -1.624  0.00  0.00    +0.000 A 
ATOM     18  C   UNL     1       9.031  -4.943  -2.054  0.00  0.00    +0.000 A 
ATOM     19  C   UNL     1       9.306  -3.591  -1.969  0.00  0.00    +0.003 A 
ATOM     20  C   UNL     1       8.361  -2.724  -1.454  0.00  0.00    -0.046 A 
ATOM     21  C   UNL     1       8.661  -1.250  -1.360  0.00  0.00    +0.044 C 
ENDBRANCH  14  15
ENDBRANCH  13  14
ENDBRANCH   5  13
BRANCH   2  22
ATOM     22  C   UNL     1       1.225   1.734  -0.343  0.00  0.00    +0.182 C 
BRANCH  22  23
ATOM     23  N   UNL     1      -0.018   0.982  -0.154  0.00  0.00    -0.292 N 
ATOM     24  C   UNL     1      -1.201   1.627  -0.150  0.00  0.00    +0.304 C 
ATOM     25  O   UNL     1      -1.237   2.833  -0.299  0.00  0.00    -0.252 OA
ATOM     26  N   UNL     1      -2.345   0.934   0.018  0.00  0.00    -0.269 N 
ATOM     27  H   UNL     1       0.015  -0.108  -0.015  0.00  0.00    +0.151 HD
ATOM     28  H   UNL     1      -2.321  -0.165   0.065  0.00  0.00    +0.156 HD
BRANCH  26  29
ATOM     29  C   UNL     1      -3.564   1.613   0.133  0.00  0.00    +0.042 A 
ATOM     30  C   UNL     1      -3.611   2.855   0.751  0.00  0.00    +0.069 A 
ATOM     31  C   UNL     1      -4.817   3.529   0.860  0.00  0.00    +0.125 A 
ATOM     32  C   UNL     1      -5.979   2.958   0.362  0.00  0.00    +0.091 A 
ATOM     33  C   UNL     1      -5.933   1.714  -0.251  0.00  0.00    +0.125 A 
ATOM     34  C   UNL     1      -4.726   1.042  -0.365  0.00  0.00    +0.069 A 
BRANCH  33  35
ATOM     35  O   UNL     1      -7.072   1.155  -0.739  0.00  0.00    -0.495 OA
ATOM     36  C   UNL     1      -8.279   1.904  -0.586  0.00  0.00    +0.277 C 
ENDBRANCH  33  35
BRANCH  31  37
ATOM     37  O   UNL     1      -4.863   4.747   1.460  0.00  0.00    -0.495 OA
ATOM     38  C   UNL     1      -6.141   5.382   1.543  0.00  0.00    +0.277 C 
ENDBRANCH  31  37
ENDBRANCH  26  29
ENDBRANCH  22  23
ENDBRANCH   2  22
TORSDOF 9
