REMARK  Name = ZINC44782910
REMARK  5 active torsions:
REMARK  status: ('A' for Active; 'I' for Inactive)
REMARK    1  A    between atoms: C_5  and  C_8
REMARK    2  A    between atoms: C_5  and  C_11
REMARK    3  A    between atoms: C_8  and  N_10
REMARK    4  A    between atoms: N_13  and  C_14
REMARK    5  A    between atoms: N_18  and  C_20
REMARK                            x       y       z     vdW  Elec       q    Type
REMARK                         _______ _______ _______ _____ _____    ______ ____
ROOT
ATOM      1  C   UNL     1       2.510  -0.543  -0.416  0.00  0.00    +0.225 C 
ATOM      2  O   UNL     1       3.186   0.328  -0.922  0.00  0.00    -0.275 OA
ATOM      3  N   UNL     1       2.037  -1.554  -1.172  0.00  0.00    -0.314 N 
ATOM      4  H   UNL     1       1.552  -2.284  -0.757  0.00  0.00    +0.149 HD
ENDROOT
BRANCH   1   9
ATOM      5  C   UNL     1      -0.200   1.176  -0.069  0.00  0.00    +0.000 C 
ATOM      6  C   UNL     1       1.140   1.939  -0.092  0.00  0.00    +0.000 C 
ATOM      7  C   UNL     1       1.677   2.006   1.312  0.00  0.00    +0.001 C 
ATOM      8  C   UNL     1       2.662   0.862   1.621  0.00  0.00    +0.023 C 
ATOM      9  C   UNL     1       2.198  -0.495   1.058  0.00  0.00    +0.091 C 
ATOM     10  C   UNL     1       0.724  -0.725   1.251  0.00  0.00    +0.023 C 
ATOM     11  C   UNL     1      -0.015  -0.267  -0.023  0.00  0.00    +0.001 C 
BRANCH   9  12
ATOM     12  C   UNL     1       2.959  -1.596   1.750  0.00  0.00    +0.061 C 
ATOM     13  S   UNL     1       4.140  -1.235   2.766  0.00  0.00    -0.040 S 
BRANCH  12  14
ATOM     14  N   UNL     1       2.643  -2.885   1.514  0.00  0.00    -0.355 N 
ATOM     15  H   UNL     1       1.977  -3.106   0.845  0.00  0.00    +0.143 HD
ATOM     16  H   UNL     1       3.081  -3.591   2.014  0.00  0.00    +0.143 HD
ENDBRANCH  12  14
ENDBRANCH   9  12
ENDBRANCH   1   9
BRANCH   3  17
ATOM     17  C   UNL     1       2.257  -1.550  -2.620  0.00  0.00    +0.055 C 
ATOM     18  C   UNL     1       1.122  -0.779  -3.333  0.00  0.00    +0.002 C 
ATOM     19  C   UNL     1       0.873  -1.627  -4.606  0.00  0.00    -0.077 C 
ATOM     20  N   UNL     1       1.045  -3.022  -4.124  0.00  0.00    +0.383 N 
ATOM     21  C   UNL     1       2.183  -2.984  -3.176  0.00  0.00    -0.056 C 
ATOM     22  H   UNL     1       0.209  -3.333  -3.653  0.00  0.00    -0.081 HD
BRANCH  20  23
ATOM     23  C   UNL     1       1.356  -3.912  -5.251  0.00  0.00    -0.069 C 
ATOM     24  C   UNL     1       0.307  -4.959  -5.633  0.00  0.00    -0.017 C 
ATOM     25  C   UNL     1       1.600  -5.390  -4.937  0.00  0.00    -0.017 C 
ENDBRANCH  20  23
ENDBRANCH   3  17
TORSDOF 5
