REMARK  Name = ZINC63515105
REMARK  9 active torsions:
REMARK  status: ('A' for Active; 'I' for Inactive)
REMARK    1  A    between atoms: C_1  and  C_2
REMARK    2  A    between atoms: C_2  and  C_4
REMARK    3  A    between atoms: C_6  and  N_18
REMARK    4  A    between atoms: N_9  and  C_11
REMARK    5  A    between atoms: N_18  and  C_19
REMARK    6  A    between atoms: C_19  and  C_20
REMARK    7  A    between atoms: C_20  and  C_21
REMARK    8  A    between atoms: C_24  and  O_30
REMARK    9  A    between atoms: O_30  and  C_31
REMARK                            x       y       z     vdW  Elec       q    Type
REMARK                         _______ _______ _______ _____ _____    ______ ____
ROOT
ATOM      1  C   UNL     1      -0.000  -0.750  -1.307  0.00  0.00    +0.172 C 
ATOM      2  C   UNL     1       1.430  -0.836  -1.891  0.00  0.00    +0.166 C 
ATOM      3  N   UNL     1       1.685  -2.299  -1.933  0.00  0.00    -0.207 NA
ATOM      4  N   UNL     1       0.845  -2.835  -0.980  0.00  0.00    -0.199 N 
ATOM      5  N   UNL     1      -0.366  -2.175  -1.099  0.00  0.00    -0.213 NA
ATOM      6  H   UNL     1       1.482  -2.675  -2.847  0.00  0.00    +0.148 HD
ATOM      7  H   UNL     1      -0.897  -2.530  -1.880  0.00  0.00    +0.147 HD
ENDROOT
BRANCH   4   8
ATOM      8  C   UNL     1       1.154  -3.851  -0.071  0.00  0.00    +0.062 A 
ATOM      9  C   UNL     1       2.422  -4.419  -0.068  0.00  0.00    +0.029 A 
ATOM     10  C   UNL     1       2.726  -5.422   0.832  0.00  0.00    +0.040 A 
ATOM     11  C   UNL     1       1.768  -5.861   1.730  0.00  0.00    +0.124 A 
ATOM     12  C   UNL     1       0.504  -5.296   1.730  0.00  0.00    +0.040 A 
ATOM     13  C   UNL     1       0.197  -4.289   0.835  0.00  0.00    +0.029 A 
ATOM     14  F   UNL     1       2.068  -6.842   2.609  0.00  0.00    -0.205 F 
ENDBRANCH   4   8
BRANCH   1  16
ATOM     15  C   UNL     1      -0.018   1.503   0.010  0.00  0.00    +0.088 C 
ATOM     16  C   UNL     1       0.002  -0.004   0.002  0.00  0.00    +0.152 C 
ATOM     17  O   UNL     1       0.020  -0.613   1.044  0.00  0.00    -0.296 OA
ENDBRANCH   1  16
BRANCH   2  18
ATOM     18  N   UNL     1       1.476  -0.258  -3.240  0.00  0.00    -0.298 NA
ATOM     19  H   UNL     1       1.467  -0.980  -3.944  0.00  0.00    +0.123 HD
BRANCH  18  20
ATOM     20  C   UNL     1       2.647   0.616  -3.398  0.00  0.00    +0.087 C 
BRANCH  20  21
ATOM     21  C   UNL     1       2.661   1.199  -4.812  0.00  0.00    +0.048 C 
BRANCH  21  22
ATOM     22  C   UNL     1       3.862   2.095  -4.975  0.00  0.00    -0.040 C 
ATOM     23  C   UNL     1       5.063   1.758  -5.496  0.00  0.00    +0.002 A 
ATOM     24  C   UNL     1       5.593   0.505  -6.047  0.00  0.00    +0.055 A 
ATOM     25  C   UNL     1       6.867   0.465  -6.507  0.00  0.00    +0.121 A 
ATOM     26  C   UNL     1       7.711   1.589  -6.477  0.00  0.00    +0.047 A 
ATOM     27  C   UNL     1       7.314   2.784  -5.989  0.00  0.00    +0.029 A 
ATOM     28  C   UNL     1       5.954   2.941  -5.465  0.00  0.00    +0.043 A 
ATOM     29  N   UNL     1       5.328   3.967  -4.946  0.00  0.00    -0.380 N 
ATOM     30  C   UNL     1       3.965   3.554  -4.593  0.00  0.00    +0.144 C 
ATOM     31  H   UNL     1       5.702   4.853  -4.819  0.00  0.00    +0.160 HD
BRANCH  25  32
ATOM     32  O   UNL     1       7.345  -0.702  -7.014  0.00  0.00    -0.495 OA
ATOM     33  C   UNL     1       8.693  -0.699  -7.488  0.00  0.00    +0.277 C 
ENDBRANCH  25  32
ENDBRANCH  21  22
ENDBRANCH  20  21
ENDBRANCH  18  20
ENDBRANCH   2  18
TORSDOF 7
