REMARK  Name = ZINC09465804
REMARK  12 active torsions:
REMARK  status: ('A' for Active; 'I' for Inactive)
REMARK    1  A    between atoms: C_1  and  C_2
REMARK    2  A    between atoms: C_6  and  C_14
REMARK    3  A    between atoms: C_12  and  C_13
REMARK    4  A    between atoms: C_14  and  O_15
REMARK    5  A    between atoms: O_15  and  C_16
REMARK    6  A    between atoms: C_16  and  C_18
REMARK    7  A    between atoms: C_18  and  C_20
REMARK    8  A    between atoms: C_18  and  N_24
REMARK    9  A    between atoms: C_20  and  C_22
REMARK   10  A    between atoms: C_20  and  O_23
REMARK   11  A    between atoms: N_24  and  S_25
REMARK   12  A    between atoms: S_25  and  C_28
REMARK                            x       y       z     vdW  Elec       q    Type
REMARK                         _______ _______ _______ _____ _____    ______ ____
ROOT
ATOM      1  C   UNL     1       6.563   5.956  -0.013  0.00  0.00    +0.213 C 
ENDROOT
BRANCH   1   2
ATOM      2  C   UNL     1       5.092   5.631   0.022  0.00  0.00    +0.329 C 
ATOM      3  O   UNL     1       4.276   6.520  -0.020  0.00  0.00    -0.249 OA
BRANCH   2   4
ATOM      4  O   UNL     1       4.689   4.353   0.100  0.00  0.00    -0.459 OA
BRANCH   4   5
ATOM      5  C   UNL     1       3.257   4.114   0.129  0.00  0.00    +0.268 C 
BRANCH   5  11
ATOM      6  C   UNL     1      -2.339   0.532   0.397  0.00  0.00    +0.044 C 
ATOM      7  C   UNL     1      -0.936   1.081   0.350  0.00  0.00    -0.044 A 
ATOM      8  C   UNL     1      -0.738   2.452   0.270  0.00  0.00    +0.004 A 
ATOM      9  C   UNL     1       0.526   2.969   0.226  0.00  0.00    +0.012 A 
ATOM     10  C   UNL     1       1.628   2.109   0.262  0.00  0.00    +0.024 A 
ATOM     11  C   UNL     1       2.997   2.632   0.217  0.00  0.00    +0.007 A 
ATOM     12  C   UNL     1       4.023   1.745   0.256  0.00  0.00    +0.099 A 
ATOM     13  C   UNL     1       3.752   0.362   0.338  0.00  0.00    +0.338 A 
ATOM     14  O   UNL     1       4.682  -0.424   0.372  0.00  0.00    -0.245 OA
ATOM     15  O   UNL     1       2.497  -0.109   0.380  0.00  0.00    -0.422 OA
ATOM     16  C   UNL     1       1.431   0.720   0.344  0.00  0.00    +0.143 A 
ATOM     17  C   UNL     1       0.137   0.216   0.387  0.00  0.00    -0.005 A 
ATOM     18  C   UNL     1      -0.093  -1.270   0.475  0.00  0.00    +0.048 C 
ENDBRANCH   5  11
ENDBRANCH   4   5
ENDBRANCH   2   4
ENDBRANCH   1   2
BRANCH   1  19
ATOM     19  C   UNL     1       7.204   5.292  -1.234  0.00  0.00    +0.141 C 
ATOM     20  C   UNL     1       8.664   5.734  -1.347  0.00  0.00    +0.040 C 
BRANCH  19  21
ATOM     21  O   UNL     1       7.146   3.871  -1.087  0.00  0.00    -0.390 OA
ATOM     22  H   UNL     1       6.249   3.520  -1.009  0.00  0.00    +0.210 HD
ENDBRANCH  19  21
ENDBRANCH   1  19
BRANCH   1  23
ATOM     23  N   UNL     1       6.740   7.408  -0.098  0.00  0.00    -0.174 NA
ATOM     24  H   UNL     1       6.704   7.851  -0.961  0.00  0.00    +0.149 HD
BRANCH  23  25
ATOM     25  S   UNL     1       7.003   8.292   1.277  0.00  0.00    +0.059 S 
ATOM     26  O   UNL     1       7.172   9.642   0.866  0.00  0.00    -0.153 OA
ATOM     27  O   UNL     1       6.004   7.899   2.209  0.00  0.00    -0.153 OA
BRANCH  25  28
ATOM     28  C   UNL     1       8.547   7.771   1.945  0.00  0.00    +0.106 A 
ATOM     29  C   UNL     1       8.590   6.669   2.797  0.00  0.00    +0.029 A 
ATOM     30  C   UNL     1       9.768   6.237   3.326  0.00  0.00    +0.010 A 
ATOM     31  C   UNL     1      10.958   6.917   3.019  0.00  0.00    -0.018 A 
ATOM     32  C   UNL     1      12.192   6.505   3.551  0.00  0.00    +0.008 A 
ATOM     33  C   UNL     1      13.325   7.188   3.232  0.00  0.00    +0.001 A 
ATOM     34  C   UNL     1      13.282   8.293   2.384  0.00  0.00    +0.001 A 
ATOM     35  C   UNL     1      12.105   8.722   1.850  0.00  0.00    +0.008 A 
ATOM     36  C   UNL     1      10.914   8.041   2.157  0.00  0.00    -0.016 A 
ATOM     37  C   UNL     1       9.681   8.454   1.625  0.00  0.00    +0.037 A 
ENDBRANCH  25  28
ENDBRANCH  23  25
ENDBRANCH   1  23
TORSDOF 9
