REMARK  Name = ZINC19166539
REMARK  9 active torsions:
REMARK  status: ('A' for Active; 'I' for Inactive)
REMARK    1  A    between atoms: C_1  and  C_2
REMARK    2  A    between atoms: C_2  and  O_3
REMARK    3  A    between atoms: O_3  and  C_4
REMARK    4  A    between atoms: C_4  and  C_6
REMARK    5  A    between atoms: C_11  and  N_12
REMARK    6  A    between atoms: C_13  and  C_15
REMARK    7  A    between atoms: C_17  and  C_33
REMARK    8  A    between atoms: C_21  and  C_32
REMARK    9  A    between atoms: N_23  and  C_24
REMARK                            x       y       z     vdW  Elec       q    Type
REMARK                         _______ _______ _______ _____ _____    ______ ____
ROOT
ATOM      1  C   UNL     1      -0.003   5.953  -0.184  0.00  0.00    +0.051 A 
ATOM      2  C   UNL     1       1.163   6.713  -0.104  0.00  0.00    +0.037 A 
ATOM      3  C   UNL     1       1.130   8.049  -0.474  0.00  0.00    +0.047 A 
ATOM      4  N   UNL     1       0.022   8.624  -0.888  0.00  0.00    -0.232 NA
ATOM      5  C   UNL     1      -1.121   7.960  -0.981  0.00  0.00    +0.160 A 
ATOM      6  C   UNL     1      -1.179   6.595  -0.632  0.00  0.00    +0.054 A 
ATOM      7  C   UNL     1      -2.509   6.171  -0.834  0.00  0.00    +0.070 A 
ATOM      8  N   UNL     1      -3.206   7.182  -1.267  0.00  0.00    -0.174 NA
ATOM      9  N   UNL     1      -2.386   8.311  -1.374  0.00  0.00    -0.241 N 
ATOM     10  C   UNL     1      -3.035   4.780  -0.588  0.00  0.00    +0.068 C 
ENDROOT
BRANCH   9  11
ATOM     11  C   UNL     1      -2.807   9.639  -1.827  0.00  0.00    +0.132 C 
ATOM     12  C   UNL     1      -3.351   9.550  -3.262  0.00  0.00    +0.051 C 
ATOM     13  C   UNL     1      -4.086  10.861  -3.631  0.00  0.00    +0.168 C 
ATOM     14  S   UNL     1      -4.678  11.465  -1.997  0.00  0.00    -0.029 S 
ATOM     15  O   UNL     1      -4.059  12.712  -1.714  0.00  0.00    -0.174 OA
ATOM     16  O   UNL     1      -6.094  11.360  -1.951  0.00  0.00    -0.174 OA
ATOM     17  C   UNL     1      -3.945  10.171  -0.910  0.00  0.00    +0.192 C 
ENDBRANCH   9  11
BRANCH   1  19
ATOM     18  N   UNL     1       1.045   3.742  -0.109  0.00  0.00    -0.281 N 
ATOM     19  C   UNL     1      -0.010   4.524   0.195  0.00  0.00    +0.249 C 
ATOM     20  O   UNL     1      -0.967   4.055   0.779  0.00  0.00    -0.270 OA
ATOM     21  H   UNL     1       1.838   4.131  -0.510  0.00  0.00    +0.155 HD
BRANCH  18  27
ATOM     22  C   UNL     1       2.182   1.653   0.352  0.00  0.00    +0.080 A 
ATOM     23  C   UNL     1       2.118   0.282   0.614  0.00  0.00    +0.017 A 
ATOM     24  C   UNL     1       0.896  -0.350   0.674  0.00  0.00    +0.001 A 
ATOM     25  C   UNL     1      -0.274   0.367   0.477  0.00  0.00    +0.002 A 
ATOM     26  C   UNL     1      -0.228   1.722   0.218  0.00  0.00    +0.024 A 
ATOM     27  C   UNL     1       0.996   2.376   0.153  0.00  0.00    +0.048 A 
BRANCH  22  28
ATOM     28  C   UNL     1       3.486   2.336   0.287  0.00  0.00    +0.341 C 
ATOM     29  O   UNL     1       3.535   3.539   0.122  0.00  0.00    -0.245 OA
BRANCH  28  30
ATOM     30  O   UNL     1       4.625   1.626   0.410  0.00  0.00    -0.461 OA
BRANCH  30  32
ATOM     31  C   UNL     1       7.048   1.397   0.495  0.00  0.00    +0.048 C 
ATOM     32  C   UNL     1       5.873   2.364   0.336  0.00  0.00    +0.229 C 
ENDBRANCH  30  32
ENDBRANCH  28  30
ENDBRANCH  22  28
ENDBRANCH  18  27
ENDBRANCH   1  19
BRANCH   3  33
ATOM     33  C   UNL     1       2.394   8.865  -0.392  0.00  0.00    +0.038 C 
ATOM     34  C   UNL     1       3.548   8.298   0.437  0.00  0.00    +0.010 C 
ATOM     35  C   UNL     1       2.745   9.491   0.959  0.00  0.00    +0.010 C 
ENDBRANCH   3  33
TORSDOF 7
