REMARK  Name = ZINC43285875
REMARK  8 active torsions:
REMARK  status: ('A' for Active; 'I' for Inactive)
REMARK    1  A    between atoms: C_1  and  C_2
REMARK    2  A    between atoms: C_2  and  C_3
REMARK    3  A    between atoms: C_3  and  C_5
REMARK    4  A    between atoms: C_3  and  N_23
REMARK    5  A    between atoms: C_5  and  C_7
REMARK    6  A    between atoms: C_5  and  N_13
REMARK    7  A    between atoms: C_16  and  C_19
REMARK    8  A    between atoms: N_21  and  C_22
REMARK                            x       y       z     vdW  Elec       q    Type
REMARK                         _______ _______ _______ _____ _____    ______ ____
ROOT
ATOM      1  C   UNL     1       0.866  -2.068  -1.184  0.00  0.00    +0.079 C 
ENDROOT
BRANCH   1   2
ATOM      2  C   UNL     1      -0.521  -2.632  -1.017  0.00  0.00    +0.006 A 
ATOM      3  C   UNL     1      -1.125  -3.096   0.105  0.00  0.00    +0.028 A 
ATOM      4  C   UNL     1      -2.420  -3.573   0.021  0.00  0.00    +0.025 A 
ATOM      5  C   UNL     1      -3.047  -3.562  -1.181  0.00  0.00    +0.060 A 
ATOM      6  S   UNL     1      -1.799  -2.856  -2.243  0.00  0.00    -0.099 S 
ATOM      7 BR   UNL     1      -3.302  -4.230   1.559  0.00  0.00    -0.050 Br
ENDBRANCH   1   2
BRANCH   1   8
ATOM      8  N   UNL     1       1.442  -2.551  -2.446  0.00  0.00    -0.296 NA
ATOM      9  C   UNL     1       2.764  -1.956  -2.682  0.00  0.00    +0.085 C 
ATOM     10  C   UNL     1       3.269  -2.365  -4.068  0.00  0.00    +0.028 C 
ATOM     11  C   UNL     1       3.354  -3.892  -4.145  0.00  0.00    +0.077 C 
ATOM     12  C   UNL     1       1.975  -4.488  -3.847  0.00  0.00    +0.028 C 
ATOM     13  C   UNL     1       1.508  -4.018  -2.468  0.00  0.00    +0.085 C 
BRANCH  11  14
ATOM     14  C   UNL     1       3.792  -4.303  -5.527  0.00  0.00    +0.216 C 
ATOM     15  O   UNL     1       4.016  -3.459  -6.368  0.00  0.00    -0.276 OA
ATOM     16  N   UNL     1       3.937  -5.609  -5.827  0.00  0.00    -0.318 N 
ATOM     17  C   UNL     1       4.364  -6.009  -7.170  0.00  0.00    +0.128 C 
ATOM     18  H   UNL     1       3.758  -6.285  -5.154  0.00  0.00    +0.148 HD
ENDBRANCH  11  14
ENDBRANCH   1   8
BRANCH   1  19
ATOM     19  C   UNL     1       0.796  -0.540  -1.206  0.00  0.00    -0.053 C 
BRANCH  19  20
ATOM     20  N   UNL     1       0.122  -0.063   0.009  0.00  0.00    +0.381 N 
ATOM     21  H   UNL     1      -0.845  -0.352  -0.008  0.00  0.00    -0.090 HD
ATOM     22  H   UNL     1       0.576  -0.453   0.821  0.00  0.00    -0.090 HD
ATOM     23  H   UNL     1       0.171   0.944   0.047  0.00  0.00    -0.090 HD
ENDBRANCH  19  20
BRANCH  19  25
ATOM     24  C   UNL     1       0.048   1.443  -2.528  0.00  0.00    +0.002 C 
ATOM     25  C   UNL     1       0.012  -0.084  -2.438  0.00  0.00    -0.018 C 
ENDBRANCH  19  25
ENDBRANCH   1  19
TORSDOF 6
