REMARK  Name = ZINC34866195
REMARK  12 active torsions:
REMARK  status: ('A' for Active; 'I' for Inactive)
REMARK    1  A    between atoms: C_1  and  C_2
REMARK    2  A    between atoms: C_2  and  C_3
REMARK    3  A    between atoms: C_2  and  C_4
REMARK    4  A    between atoms: C_4  and  N_5
REMARK    5  A    between atoms: C_6  and  N_34
REMARK    6  A    between atoms: C_7  and  N_14
REMARK    7  A    between atoms: N_14  and  C_15
REMARK    8  A    between atoms: C_15  and  C_16
REMARK    9  A    between atoms: C_16  and  C_17
REMARK   10  A    between atoms: C_16  and  C_18
REMARK   11  A    between atoms: C_19  and  C_21
REMARK   12  A    between atoms: C_21  and  N_22
REMARK                            x       y       z     vdW  Elec       q    Type
REMARK                         _______ _______ _______ _____ _____    ______ ____
ROOT
ATOM      1  N   UNL     1      -4.104   2.797  -2.398  0.00  0.00    -0.263 N 
ATOM      2  C   UNL     1      -4.184   3.786  -1.484  0.00  0.00    +0.234 C 
ATOM      3  O   UNL     1      -3.669   3.648  -0.394  0.00  0.00    -0.274 OA
ENDROOT
BRANCH   1   6
ATOM      4  N   UNL     1      -1.523   0.192  -2.633  0.00  0.00    -0.280 N 
ATOM      5  C   UNL     1      -2.255   1.320  -2.923  0.00  0.00    +0.127 A 
ATOM      6  C   UNL     1      -3.334   1.647  -2.127  0.00  0.00    +0.140 A 
ATOM      7  C   UNL     1      -3.653   0.812  -1.040  0.00  0.00    +0.277 A 
ATOM      8  O   UNL     1      -4.601   1.076  -0.320  0.00  0.00    -0.266 OA
ATOM      9  N   UNL     1      -2.904  -0.282  -0.799  0.00  0.00    -0.273 N 
ATOM     10  H   UNL     1      -3.123  -0.858  -0.050  0.00  0.00    +0.173 HD
ATOM     11  C   UNL     1      -1.859  -0.587  -1.589  0.00  0.00    +0.331 A 
ATOM     12  O   UNL     1      -1.202  -1.583  -1.352  0.00  0.00    -0.246 OA
BRANCH   5  13
ATOM     13  N   UNL     1      -1.915   2.114  -3.993  0.00  0.00    -0.343 N 
ATOM     14  H   UNL     1      -1.113   1.922  -4.503  0.00  0.00    +0.144 HD
ATOM     15  H   UNL     1      -2.478   2.865  -4.237  0.00  0.00    +0.144 HD
ENDBRANCH   5  13
BRANCH   4  16
ATOM     16  C   UNL     1      -0.375  -0.166  -3.470  0.00  0.00    +0.131 C 
BRANCH  16  18
ATOM     17  C   UNL     1      -1.780  -0.277  -5.534  0.00  0.00    +0.009 C 
ATOM     18  C   UNL     1      -0.841  -1.065  -4.617  0.00  0.00    +0.003 C 
ATOM     19  C   UNL     1       0.373  -1.540  -5.418  0.00  0.00    +0.009 C 
ENDBRANCH  16  18
ENDBRANCH   4  16
ENDBRANCH   1   6
BRANCH   1  20
ATOM     20  C   UNL     1      -4.816   2.919  -3.673  0.00  0.00    +0.117 C 
BRANCH  20  21
ATOM     21  C   UNL     1      -6.262   2.452  -3.495  0.00  0.00    +0.001 C 
ATOM     22  C   UNL     1      -7.047   2.723  -4.781  0.00  0.00    +0.009 C 
ATOM     23  C   UNL     1      -6.281   0.953  -3.193  0.00  0.00    +0.009 C 
ENDBRANCH  20  21
ENDBRANCH   1  20
BRANCH   2  24
ATOM     24  C   UNL     1      -4.914   5.062  -1.816  0.00  0.00    +0.181 C 
BRANCH  24  25
ATOM     25  N   UNL     1      -4.859   5.972  -0.664  0.00  0.00    -0.291 NA
ATOM     26  C   UNL     1      -3.481   6.407  -0.402  0.00  0.00    +0.104 C 
ATOM     27  C   UNL     1      -3.440   7.203   0.907  0.00  0.00    +0.122 C 
ATOM     28  N   UNL     1      -4.430   8.288   0.825  0.00  0.00    -0.314 N 
ATOM     29  C   UNL     1      -5.806   7.947   0.433  0.00  0.00    +0.122 C 
ATOM     30  C   UNL     1      -5.753   7.121  -0.857  0.00  0.00    +0.104 C 
ATOM     31  C   UNL     1      -4.074   9.601   1.111  0.00  0.00    +0.099 A 
ATOM     32  C   UNL     1      -5.056  10.586   1.158  0.00  0.00    +0.042 A 
ATOM     33  C   UNL     1      -4.688  11.889   1.443  0.00  0.00    +0.005 A 
ATOM     34  C   UNL     1      -3.346  12.163   1.673  0.00  0.00    +0.018 A 
ATOM     35  C   UNL     1      -2.426  11.137   1.610  0.00  0.00    +0.084 A 
ATOM     36  N   UNL     1      -2.806   9.902   1.341  0.00  0.00    -0.350 N 
ATOM     37  H   UNL     1      -2.139   9.198   1.307  0.00  0.00    +0.166 HD
ENDBRANCH  24  25
ENDBRANCH   2  24
TORSDOF 8
