REMARK  Name = ZINC20434040
REMARK  6 active torsions:
REMARK  status: ('A' for Active; 'I' for Inactive)
REMARK    1  A    between atoms: C_1  and  C_2
REMARK    2  A    between atoms: C_2  and  C_3
REMARK    3  A    between atoms: C_2  and  C_4
REMARK    4  A    between atoms: C_9  and  N_10
REMARK    5  A    between atoms: C_11  and  C_13
REMARK    6  A    between atoms: C_16  and  O_20
REMARK                            x       y       z     vdW  Elec       q    Type
REMARK                         _______ _______ _______ _____ _____    ______ ____
ROOT
ATOM      1  N   UNL     1      -1.947   1.007  -1.532  0.00  0.00    -0.287 N 
ATOM      2  C   UNL     1      -1.207   1.850  -0.785  0.00  0.00    +0.203 C 
ATOM      3  O   UNL     1      -1.182   3.033  -1.051  0.00  0.00    -0.277 OA
ATOM      4  H   UNL     1      -1.911  -0.075  -1.338  0.00  0.00    +0.155 HD
ENDROOT
BRANCH   2   5
ATOM      5  C   UNL     1      -0.412   1.323   0.382  0.00  0.00    +0.019 C 
ATOM      6  C   UNL     1      -1.310   1.173   1.636  0.00  0.00    +0.023 C 
ATOM      7  C   UNL     1      -0.294   1.251   2.799  0.00  0.00    +0.097 C 
ATOM      8  C   UNL     1       0.932   1.977   2.215  0.00  0.00    -0.050 C 
ATOM      9  N   UNL     1       0.608   2.314   0.811  0.00  0.00    +0.388 N 
ATOM     10  H   UNL     1       1.495   2.229   0.166  0.00  0.00    -0.085 HD
ATOM     11  H   UNL     1       0.191   3.328   0.731  0.00  0.00    -0.085 HD
BRANCH   7  12
ATOM     12  O   UNL     1       0.067  -0.061   3.235  0.00  0.00    -0.394 OA
ATOM     13  H   UNL     1       0.784  -0.189   4.059  0.00  0.00    +0.210 HD
ENDBRANCH   7  12
ENDBRANCH   2   5
BRANCH   1  19
ATOM     14  C   UNL     1      -3.979   0.907  -2.833  0.00  0.00    -0.024 A 
ATOM     15  C   UNL     1      -4.779   1.404  -3.844  0.00  0.00    +0.006 A 
ATOM     16  C   UNL     1      -4.365   2.499  -4.579  0.00  0.00    +0.000 A 
ATOM     17  C   UNL     1      -3.150   3.101  -4.305  0.00  0.00    +0.002 A 
ATOM     18  C   UNL     1      -2.349   2.612  -3.292  0.00  0.00    +0.023 A 
ATOM     19  C   UNL     1      -2.759   1.508  -2.555  0.00  0.00    +0.037 A 
BRANCH  14  21
ATOM     20  C   UNL     1      -5.810  -0.007  -1.432  0.00  0.00    +0.012 C 
ATOM     21  C   UNL     1      -4.431  -0.287  -2.032  0.00  0.00    +0.015 C 
ATOM     22  C   UNL     1      -4.511  -1.513  -2.945  0.00  0.00    +0.012 C 
ENDBRANCH  14  21
ENDBRANCH   1  19
TORSDOF 4
