REMARK  Name = ZINC22836989
REMARK  9 active torsions:
REMARK  status: ('A' for Active; 'I' for Inactive)
REMARK    1  A    between atoms: C_1  and  C_2
REMARK    2  A    between atoms: C_2  and  N_3
REMARK    3  A    between atoms: N_3  and  C_4
REMARK    4  A    between atoms: N_3  and  C_6
REMARK    5  A    between atoms: C_4  and  C_5
REMARK    6  A    between atoms: C_9  and  N_12
REMARK    7  A    between atoms: C_16  and  C_32
REMARK    8  A    between atoms: C_17  and  N_21
REMARK    9  A    between atoms: C_22  and  C_24
REMARK                            x       y       z     vdW  Elec       q    Type
REMARK                         _______ _______ _______ _____ _____    ______ ____
ROOT
ATOM      1  N   UNL     1      -1.337  -6.060   0.394  0.00  0.00    -0.149 N 
ATOM      2  N   UNL     1      -1.885  -6.704   1.366  0.00  0.00    -0.147 NA
ATOM      3  C   UNL     1      -1.683  -8.000   1.189  0.00  0.00    +0.114 A 
ATOM      4  C   UNL     1      -2.015  -9.184   1.870  0.00  0.00    +0.037 A 
ATOM      5  C   UNL     1      -1.621 -10.381   1.366  0.00  0.00    -0.027 A 
ATOM      6  C   UNL     1      -0.886 -10.472   0.176  0.00  0.00    +0.039 A 
ATOM      7  C   UNL     1      -0.532  -9.359  -0.531  0.00  0.00    +0.055 A 
ATOM      8  C   UNL     1      -0.912  -8.091  -0.061  0.00  0.00    +0.115 A 
ATOM      9  N   UNL     1      -0.765  -6.837  -0.459  0.00  0.00    -0.147 NA
ATOM     10  C   UNL     1      -1.982 -11.644   2.104  0.00  0.00    +0.046 C 
ENDROOT
BRANCH   1  14
ATOM     11  C   UNL     1      -1.419  -1.909   0.040  0.00  0.00    +0.014 A 
ATOM     12  C   UNL     1      -0.782  -2.671  -0.922  0.00  0.00    +0.024 A 
ATOM     13  C   UNL     1      -0.753  -4.047  -0.807  0.00  0.00    +0.031 A 
ATOM     14  C   UNL     1      -1.364  -4.665   0.275  0.00  0.00    +0.086 A 
ATOM     15  C   UNL     1      -2.003  -3.897   1.240  0.00  0.00    +0.031 A 
ATOM     16  C   UNL     1      -2.025  -2.521   1.122  0.00  0.00    +0.024 A 
BRANCH  11  17
ATOM     17  N   UNL     1      -1.447  -0.516  -0.079  0.00  0.00    -0.394 NA
ATOM     18  H   UNL     1      -1.944  -0.121   0.705  0.00  0.00    +0.126 HD
BRANCH  17  20
ATOM     19  C   UNL     1      -0.102   1.531  -0.101  0.00  0.00    +0.022 C 
ATOM     20  C   UNL     1      -0.072   0.001  -0.096  0.00  0.00    +0.081 C 
ENDBRANCH  17  20
BRANCH  17  21
ATOM     21  C   UNL     1      -2.126  -0.144  -1.327  0.00  0.00    +0.081 C 
ATOM     22  C   UNL     1      -3.592  -0.574  -1.257  0.00  0.00    +0.022 C 
ENDBRANCH  17  21
ENDBRANCH  11  17
ENDBRANCH   1  14
BRANCH   6  23
ATOM     23  N   UNL     1      -0.505 -11.732  -0.297  0.00  0.00    -0.281 N 
ATOM     24  C   UNL     1       0.574 -11.854  -1.095  0.00  0.00    +0.250 C 
ATOM     25  O   UNL     1       1.275 -10.887  -1.322  0.00  0.00    -0.270 OA
ATOM     26  H   UNL     1      -1.018 -12.517  -0.051  0.00  0.00    +0.155 HD
BRANCH  24  27
ATOM     27  C   UNL     1       0.905 -13.163  -1.694  0.00  0.00    +0.056 A 
ATOM     28  C   UNL     1       0.098 -14.274  -1.441  0.00  0.00    +0.029 A 
ATOM     29  C   UNL     1       0.413 -15.494  -2.004  0.00  0.00    +0.019 A 
ATOM     30  C   UNL     1       1.525 -15.618  -2.820  0.00  0.00    +0.017 A 
ATOM     31  C   UNL     1       2.329 -14.522  -3.075  0.00  0.00    +0.022 A 
ATOM     32  C   UNL     1       2.022 -13.293  -2.522  0.00  0.00    +0.053 A 
ATOM     33 CL   UNL     1       3.028 -11.917  -2.849  0.00  0.00    -0.083 Cl
ATOM     34 BR   UNL     1      -0.678 -17.000  -1.662  0.00  0.00    -0.050 Br
ENDBRANCH  24  27
ENDBRANCH   6  23
TORSDOF 6
