REMARK  Name = ZINC67404578
REMARK  5 active torsions:
REMARK  status: ('A' for Active; 'I' for Inactive)
REMARK    1  A    between atoms: C_1  and  C_2
REMARK    2  A    between atoms: C_10  and  S_12
REMARK    3  A    between atoms: S_12  and  N_15
REMARK    4  A    between atoms: C_23  and  C_28
REMARK    5  A    between atoms: C_25  and  C_27
REMARK                            x       y       z     vdW  Elec       q    Type
REMARK                         _______ _______ _______ _____ _____    ______ ____
ROOT
ATOM      1  N   UNL     1      -1.279  -3.916   2.780  0.00  0.00    -0.174 NA
ATOM      2  C   UNL     1      -2.397  -3.393   3.578  0.00  0.00    +0.128 C 
ATOM      3  C   UNL     1      -3.639  -3.307   2.682  0.00  0.00    +0.123 C 
ATOM      4  N   UNL     1      -3.806  -4.590   1.985  0.00  0.00    -0.313 N 
ATOM      5  C   UNL     1      -2.687  -5.113   1.187  0.00  0.00    +0.123 C 
ATOM      6  C   UNL     1      -1.447  -5.196   2.078  0.00  0.00    +0.128 C 
ATOM      7  C   UNL     1      -4.995  -5.294   2.078  0.00  0.00    +0.125 A 
ATOM      8  C   UNL     1      -6.125  -4.706   2.651  0.00  0.00    +0.064 A 
ATOM      9  C   UNL     1      -7.287  -5.449   2.721  0.00  0.00    +0.017 A 
ATOM     10  N   UNL     1      -7.292  -6.687   2.246  0.00  0.00    -0.347 N 
ATOM     11  C   UNL     1      -6.209  -7.214   1.712  0.00  0.00    +0.106 A 
ATOM     12  N   UNL     1      -5.081  -6.539   1.619  0.00  0.00    -0.220 NA
ATOM     13  C   UNL     1      -6.264  -8.625   1.186  0.00  0.00    +0.086 C 
ATOM     14  C   UNL     1      -8.533  -4.861   3.330  0.00  0.00    +0.063 C 
ATOM     15  H   UNL     1      -8.106  -7.213   2.293  0.00  0.00    +0.167 HD
ENDROOT
BRANCH   1  16
ATOM     16  S   UNL     1       0.143  -3.074   2.669  0.00  0.00    +0.063 S 
ATOM     17  O   UNL     1       1.151  -4.021   2.342  0.00  0.00    -0.153 OA
ATOM     18  O   UNL     1       0.218  -2.249   3.823  0.00  0.00    -0.153 OA
BRANCH  16  28
ATOM     19  C   UNL     1      -0.096   1.717   0.631  0.00  0.00    +0.044 C 
ATOM     20  C   UNL     1      -0.106   0.229   0.389  0.00  0.00    -0.048 A 
ATOM     21  C   UNL     1      -0.223  -0.243  -0.883  0.00  0.00    +0.013 A 
ATOM     22  C   UNL     1      -0.231  -1.629  -1.110  0.00  0.00    +0.003 A 
ATOM     23  C   UNL     1      -0.350  -2.158  -2.409  0.00  0.00    +0.011 A 
ATOM     24  C   UNL     1      -0.350  -3.516  -2.554  0.00  0.00    +0.020 A 
ATOM     25  C   UNL     1      -0.235  -4.335  -1.432  0.00  0.00    +0.111 A 
ATOM     26  N   UNL     1      -0.125  -3.839  -0.224  0.00  0.00    -0.253 NA
ATOM     27  C   UNL     1      -0.118  -2.519  -0.013  0.00  0.00    +0.097 A 
ATOM     28  C   UNL     1       0.001  -1.992   1.285  0.00  0.00    +0.132 A 
ATOM     29  C   UNL     1       0.011  -0.644   1.468  0.00  0.00    +0.034 A 
ENDBRANCH  16  28
ENDBRANCH   1  16
TORSDOF 2
