REMARK  Name = ZINC39939950
REMARK  12 active torsions:
REMARK  status: ('A' for Active; 'I' for Inactive)
REMARK    1  A    between atoms: C_1  and  C_2
REMARK    2  A    between atoms: C_3  and  C_22
REMARK    3  A    between atoms: C_4  and  O_14
REMARK    4  A    between atoms: N_6  and  C_8
REMARK    5  A    between atoms: O_14  and  C_15
REMARK    6  A    between atoms: C_22  and  N_23
REMARK    7  A    between atoms: N_23  and  C_24
REMARK    8  A    between atoms: C_24  and  C_25
REMARK    9  A    between atoms: C_25  and  C_26
REMARK   10  A    between atoms: C_26  and  C_27
REMARK   11  A    between atoms: C_28  and  C_34
REMARK   12  A    between atoms: C_29  and  N_33
REMARK                            x       y       z     vdW  Elec       q    Type
REMARK                         _______ _______ _______ _____ _____    ______ ____
ROOT
ATOM      1  C   UNL     1      -0.078   1.395   0.003  0.00  0.00    +0.062 C 
ATOM      2  C   UNL     1      -0.003  -0.110  -0.008  0.00  0.00    +0.022 C 
ATOM      3  C   UNL     1      -1.053  -0.901   0.050  0.00  0.00    -0.009 C 
ATOM      4  C   UNL     1      -0.552  -2.328   0.015  0.00  0.00    +0.307 C 
ATOM      5  N   UNL     1       0.913  -2.203  -0.071  0.00  0.00    -0.211 N 
ATOM      6  N   UNL     1       1.177  -0.826  -0.086  0.00  0.00    -0.265 N 
ATOM      7  H   UNL     1       2.061  -0.431  -0.141  0.00  0.00    +0.170 HD
ENDROOT
BRANCH   5   8
ATOM      8  C   UNL     1       1.846  -3.240  -0.130  0.00  0.00    +0.052 A 
ATOM      9  C   UNL     1       1.417  -4.557  -0.243  0.00  0.00    +0.025 A 
ATOM     10  C   UNL     1       2.342  -5.580  -0.302  0.00  0.00    +0.002 A 
ATOM     11  C   UNL     1       3.694  -5.296  -0.248  0.00  0.00    +0.000 A 
ATOM     12  C   UNL     1       4.125  -3.987  -0.135  0.00  0.00    +0.002 A 
ATOM     13  C   UNL     1       3.205  -2.958  -0.082  0.00  0.00    +0.025 A 
ENDBRANCH   5   8
BRANCH   4  14
ATOM     14  O   UNL     1      -0.927  -3.018   1.208  0.00  0.00    -0.466 OA
BRANCH  14  15
ATOM     15  C   UNL     1      -2.092  -3.718   1.176  0.00  0.00    +0.124 A 
ATOM     16  C   UNL     1      -2.827  -3.789   0.002  0.00  0.00    +0.048 A 
ATOM     17  C   UNL     1      -4.011  -4.500  -0.029  0.00  0.00    +0.042 A 
ATOM     18  C   UNL     1      -4.464  -5.141   1.111  0.00  0.00    +0.124 A 
ATOM     19  C   UNL     1      -3.732  -5.070   2.284  0.00  0.00    +0.042 A 
ATOM     20  C   UNL     1      -2.545  -4.365   2.316  0.00  0.00    +0.048 A 
ATOM     21  F   UNL     1      -5.623  -5.836   1.079  0.00  0.00    -0.205 F 
ENDBRANCH  14  15
ENDBRANCH   4  14
BRANCH   3  22
ATOM     22  C   UNL     1      -2.493  -0.465   0.137  0.00  0.00    -0.044 C 
BRANCH  22  23
ATOM     23  N   UNL     1      -3.077  -0.432  -1.210  0.00  0.00    +0.382 N 
ATOM     24  H   UNL     1      -2.562   0.218  -1.784  0.00  0.00    -0.085 HD
ATOM     25  H   UNL     1      -3.029  -1.353  -1.620  0.00  0.00    -0.085 HD
BRANCH  23  26
ATOM     26  C   UNL     1      -4.481  -0.007  -1.125  0.00  0.00    -0.082 C 
BRANCH  26  27
ATOM     27  C   UNL     1      -5.089   0.027  -2.529  0.00  0.00    -0.013 C 
BRANCH  27  28
ATOM     28  C   UNL     1      -6.551   0.470  -2.441  0.00  0.00    +0.057 C 
BRANCH  28  29
ATOM     29  C   UNL     1      -7.150   0.503  -3.823  0.00  0.00    +0.082 A 
ATOM     30  C   UNL     1      -7.804  -0.572  -4.469  0.00  0.00    +0.113 A 
ATOM     31  C   UNL     1      -8.200  -0.112  -5.723  0.00  0.00    +0.129 A 
ATOM     32  N   UNL     1      -7.801   1.173  -5.819  0.00  0.00    -0.263 N 
ATOM     33  N   UNL     1      -7.160   1.529  -4.627  0.00  0.00    -0.176 NA
ATOM     34  H   UNL     1      -7.940   1.754  -6.583  0.00  0.00    +0.190 HD
BRANCH  31  35
ATOM     35  N   UNL     1      -8.874  -0.837  -6.687  0.00  0.00    -0.342 N 
ATOM     36  H   UNL     1      -9.116  -1.761  -6.518  0.00  0.00    +0.144 HD
ATOM     37  H   UNL     1      -9.105  -0.422  -7.532  0.00  0.00    +0.144 HD
ENDBRANCH  31  35
BRANCH  30  38
ATOM     38  C   UNL     1      -8.017  -1.883  -3.936  0.00  0.00    +0.104 C 
ATOM     39  N   UNL     1      -8.187  -2.924  -3.513  0.00  0.00    -0.191 NA
ENDBRANCH  30  38
ENDBRANCH  28  29
ENDBRANCH  27  28
ENDBRANCH  26  27
ENDBRANCH  23  26
ENDBRANCH  22  23
ENDBRANCH   3  22
TORSDOF 11
