REMARK  Name = ZINC56574809
REMARK  11 active torsions:
REMARK  status: ('A' for Active; 'I' for Inactive)
REMARK    1  A    between atoms: C_1  and  C_2
REMARK    2  A    between atoms: N_7  and  C_9
REMARK    3  A    between atoms: C_9  and  C_10
REMARK    4  A    between atoms: C_10  and  C_12
REMARK    5  A    between atoms: C_10  and  N_13
REMARK    6  A    between atoms: N_16  and  C_17
REMARK    7  A    between atoms: C_20  and  S_23
REMARK    8  A    between atoms: S_23  and  N_26
REMARK    9  A    between atoms: N_26  and  C_27
REMARK   10  A    between atoms: C_27  and  C_28
REMARK   11  A    between atoms: C_27  and  C_29
REMARK                            x       y       z     vdW  Elec       q    Type
REMARK                         _______ _______ _______ _____ _____    ______ ____
ROOT
ATOM      1  N   UNL     1      -0.082  -4.399   2.402  0.00  0.00    -0.298 N 
ATOM      2  C   UNL     1      -0.388  -5.621   1.922  0.00  0.00    +0.304 C 
ATOM      3  O   UNL     1       0.499  -6.383   1.589  0.00  0.00    -0.253 OA
ATOM      4  N   UNL     1      -1.677  -5.997   1.810  0.00  0.00    -0.269 N 
ATOM      5  H   UNL     1      -0.789  -3.791   2.667  0.00  0.00    +0.150 HD
ATOM      6  H   UNL     1      -2.382  -5.416   2.137  0.00  0.00    +0.156 HD
ENDROOT
BRANCH   4   7
ATOM      7  C   UNL     1      -1.999  -7.226   1.222  0.00  0.00    +0.035 A 
ATOM      8  C   UNL     1      -3.148  -7.349   0.451  0.00  0.00    +0.025 A 
ATOM      9  C   UNL     1      -3.462  -8.563  -0.128  0.00  0.00    +0.030 A 
ATOM     10  C   UNL     1      -2.635  -9.655   0.060  0.00  0.00    +0.105 A 
ATOM     11  C   UNL     1      -1.492  -9.536   0.828  0.00  0.00    +0.030 A 
ATOM     12  C   UNL     1      -1.168  -8.323   1.405  0.00  0.00    +0.025 A 
BRANCH  10  13
ATOM     13  S   UNL     1      -3.040 -11.202  -0.680  0.00  0.00    +0.059 S 
ATOM     14  O   UNL     1      -2.397 -12.204   0.095  0.00  0.00    -0.153 OA
ATOM     15  O   UNL     1      -4.445 -11.192  -0.898  0.00  0.00    -0.153 OA
BRANCH  13  16
ATOM     16  N   UNL     1      -2.329 -11.230  -2.175  0.00  0.00    -0.187 NA
ATOM     17  H   UNL     1      -2.880 -11.254  -2.974  0.00  0.00    +0.148 HD
BRANCH  16  18
ATOM     18  C   UNL     1      -0.869 -11.220  -2.292  0.00  0.00    +0.070 C 
ATOM     19  C   UNL     1      -0.358 -12.655  -2.425  0.00  0.00    +0.025 C 
ATOM     20  C   UNL     1      -0.463 -10.417  -3.530  0.00  0.00    +0.025 C 
ENDBRANCH  16  18
ENDBRANCH  13  16
ENDBRANCH  10  13
ENDBRANCH   4   7
BRANCH   1  21
ATOM     21  C   UNL     1       1.320  -3.990   2.523  0.00  0.00    +0.055 C 
ATOM     22  C   UNL     1       1.884  -4.493   3.853  0.00  0.00    +0.026 C 
BRANCH  21  23
ATOM     23  C   UNL     1       1.411  -2.464   2.474  0.00  0.00    -0.057 C 
BRANCH  23  29
ATOM     24  C   UNL     1      -0.034   1.540   0.055  0.00  0.00    +0.005 C 
ATOM     25  C   UNL     1      -0.011   0.010   0.037  0.00  0.00    -0.031 C 
ATOM     26  C   UNL     1       0.704  -0.476  -1.227  0.00  0.00    -0.001 C 
ATOM     27  C   UNL     1       0.790  -2.004  -1.198  0.00  0.00    -0.018 C 
ATOM     28  C   UNL     1       1.508  -2.445   0.080  0.00  0.00    -0.079 C 
ATOM     29  N   UNL     1       0.762  -1.973   1.252  0.00  0.00    +0.381 N 
ATOM     30  C   UNL     1       0.736  -0.505   1.269  0.00  0.00    -0.076 C 
ATOM     31  H   UNL     1      -0.183  -2.324   1.211  0.00  0.00    -0.082 HD
ENDBRANCH  23  29
ENDBRANCH  21  23
ENDBRANCH   1  21
TORSDOF 7
