REMARK  Name = ZINC09648881
REMARK  12 active torsions:
REMARK  status: ('A' for Active; 'I' for Inactive)
REMARK    1  A    between atoms: C_1  and  C_2
REMARK    2  A    between atoms: C_2  and  O_3
REMARK    3  A    between atoms: O_3  and  C_4
REMARK    4  A    between atoms: C_4  and  C_6
REMARK    5  A    between atoms: C_10  and  N_11
REMARK    6  A    between atoms: C_12  and  C_14
REMARK    7  A    between atoms: C_14  and  C_16
REMARK    8  A    between atoms: C_14  and  N_17
REMARK    9  A    between atoms: C_21  and  O_31
REMARK   10  A    between atoms: C_22  and  C_30
REMARK   11  A    between atoms: N_26  and  C_29
REMARK   12  A    between atoms: O_31  and  C_32
REMARK                            x       y       z     vdW  Elec       q    Type
REMARK                         _______ _______ _______ _____ _____    ______ ____
ROOT
ATOM      1  C   UNL     1      -1.421  -0.699  -4.927  0.00  0.00    +0.178 C 
ATOM      2  C   UNL     1      -1.227  -2.000  -5.709  0.00  0.00    +0.041 C 
ENDROOT
BRANCH   1   3
ATOM      3  N   UNL     1      -1.969  -1.003  -3.603  0.00  0.00    -0.248 N 
ATOM      4  C   UNL     1      -1.274  -0.650  -2.499  0.00  0.00    +0.270 A 
ATOM      5  O   UNL     1      -0.201  -0.083  -2.591  0.00  0.00    -0.267 OA
ATOM      6  C   UNL     1      -1.849  -0.967  -1.185  0.00  0.00    +0.124 A 
ATOM      7  C   UNL     1      -1.197  -0.636   0.010  0.00  0.00    +0.140 A 
ATOM      8  C   UNL     1      -1.820  -0.983   1.207  0.00  0.00    +0.010 A 
ATOM      9  C   UNL     1      -3.044  -1.621   1.173  0.00  0.00    +0.120 A 
ATOM     10  N   UNL     1      -3.638  -1.921   0.032  0.00  0.00    -0.236 NA
ATOM     11  C   UNL     1      -3.092  -1.622  -1.135  0.00  0.00    +0.153 A 
ATOM     12  N   UNL     1      -3.719  -1.939  -2.327  0.00  0.00    -0.281 N 
ATOM     13  C   UNL     1      -3.153  -1.628  -3.505  0.00  0.00    +0.334 A 
ATOM     14  O   UNL     1      -3.739  -1.925  -4.528  0.00  0.00    -0.246 OA
ATOM     15  C   UNL     1      -5.015  -2.622  -2.305  0.00  0.00    +0.155 C 
ATOM     16  C   UNL     1      -1.167  -0.661   2.526  0.00  0.00    +0.049 C 
BRANCH   7  17
ATOM     17  O   UNL     1       0.002  -0.004   0.002  0.00  0.00    -0.494 OA
ATOM     18  C   UNL     1      -0.017   1.425   0.010  0.00  0.00    +0.277 C 
ENDBRANCH   7  17
ENDBRANCH   1   3
BRANCH   1  20
ATOM     19  N   UNL     1      -2.079   0.609  -6.920  0.00  0.00    -0.278 N 
ATOM     20  C   UNL     1      -2.376   0.197  -5.672  0.00  0.00    +0.240 C 
ATOM     21  O   UNL     1      -3.413   0.548  -5.148  0.00  0.00    -0.273 OA
ATOM     22  H   UNL     1      -1.250   0.329  -7.339  0.00  0.00    +0.155 HD
BRANCH  19  27
ATOM     23  C   UNL     1      -2.827   1.961  -8.880  0.00  0.00    +0.091 A 
ATOM     24  C   UNL     1      -3.912   2.809  -9.376  0.00  0.00    -0.021 A 
ATOM     25  C   UNL     1      -4.931   2.993  -8.518  0.00  0.00    -0.004 A 
ATOM     26  S   UNL     1      -4.481   2.061  -7.074  0.00  0.00    -0.077 S 
ATOM     27  C   UNL     1      -2.958   1.434  -7.605  0.00  0.00    +0.086 A 
ATOM     28  C   UNL     1      -6.003   3.875  -9.096  0.00  0.00    +0.043 C 
ATOM     29  C   UNL     1      -5.725   3.880 -10.616  0.00  0.00    +0.010 C 
ATOM     30  C   UNL     1      -4.213   3.583 -10.659  0.00  0.00    +0.037 C 
BRANCH  23  31
ATOM     31  C   UNL     1      -1.649   1.677  -9.702  0.00  0.00    +0.342 C 
ATOM     32  O   UNL     1      -1.643   0.713 -10.443  0.00  0.00    -0.245 OA
BRANCH  31  33
ATOM     33  O   UNL     1      -0.571   2.485  -9.637  0.00  0.00    -0.461 OA
BRANCH  33  35
ATOM     34  C   UNL     1       1.680   3.166 -10.271  0.00  0.00    +0.048 C 
ATOM     35  C   UNL     1       0.561   2.143 -10.480  0.00  0.00    +0.229 C 
ENDBRANCH  33  35
ENDBRANCH  31  33
ENDBRANCH  23  31
ENDBRANCH  19  27
ENDBRANCH   1  20
TORSDOF 7
