REMARK  Name = ZINC27559303
REMARK  10 active torsions:
REMARK  status: ('A' for Active; 'I' for Inactive)
REMARK    1  A    between atoms: C_1  and  C_2
REMARK    2  A    between atoms: C_2  and  C_4
REMARK    3  A    between atoms: C_2  and  N_17
REMARK    4  A    between atoms: N_6  and  C_7
REMARK    5  A    between atoms: C_10  and  S_13
REMARK    6  A    between atoms: S_13  and  N_16
REMARK    7  A    between atoms: N_20  and  C_23
REMARK    8  A    between atoms: C_23  and  C_24
REMARK    9  A    between atoms: N_26  and  C_27
REMARK   10  A    between atoms: C_27  and  C_28
REMARK                            x       y       z     vdW  Elec       q    Type
REMARK                         _______ _______ _______ _____ _____    ______ ____
ROOT
ATOM      1  C   UNL     1       0.642  -0.151  -1.312  0.00  0.00    +0.034 C 
ATOM      2  C   UNL     1      -0.059   0.101   0.024  0.00  0.00    +0.140 C 
ENDROOT
BRANCH   2   3
ATOM      3  N   UNL     1      -1.343  -0.615   0.046  0.00  0.00    -0.295 NA
ATOM      4  C   UNL     1      -1.138  -2.057   0.239  0.00  0.00    +0.066 C 
ATOM      5  C   UNL     1      -2.497  -2.754   0.335  0.00  0.00    -0.063 C 
ATOM      6  N   UNL     1      -3.267  -2.493  -0.890  0.00  0.00    +0.387 N 
ATOM      7  C   UNL     1      -3.471  -1.050  -1.083  0.00  0.00    -0.063 C 
ATOM      8  C   UNL     1      -2.112  -0.354  -1.179  0.00  0.00    +0.066 C 
ATOM      9  H   UNL     1      -2.685  -2.870  -1.743  0.00  0.00    -0.081 HD
BRANCH   6  10
ATOM     10  C   UNL     1      -4.550  -3.208  -0.868  0.00  0.00    +0.019 C 
BRANCH  10  11
ATOM     11  C   UNL     1      -4.298  -4.693  -0.916  0.00  0.00    +0.197 C 
ATOM     12  O   UNL     1      -3.162  -5.114  -0.964  0.00  0.00    -0.278 OA
ATOM     13  N   UNL     1      -5.335  -5.553  -0.907  0.00  0.00    -0.313 N 
ATOM     14  H   UNL     1      -6.366  -5.171  -0.863  0.00  0.00    +0.149 HD
BRANCH  13  15
ATOM     15  C   UNL     1      -5.091  -6.997  -0.954  0.00  0.00    +0.131 C 
BRANCH  15  16
ATOM     16  C   UNL     1      -6.407  -7.730  -0.931  0.00  0.00    -0.016 C 
ATOM     17  C   UNL     1      -6.692  -8.592  -1.876  0.00  0.00    +0.005 C 
ENDBRANCH  15  16
ENDBRANCH  13  15
ENDBRANCH  10  11
ENDBRANCH   6  10
ENDBRANCH   2   3
BRANCH   2  18
ATOM     18  C   UNL     1      -0.305   1.578   0.192  0.00  0.00    +0.234 C 
ATOM     19  O   UNL     1      -1.439   2.008   0.195  0.00  0.00    -0.274 OA
ATOM     20  N   UNL     1       0.736   2.422   0.338  0.00  0.00    -0.284 N 
ATOM     21  H   UNL     1       1.766   2.044   0.257  0.00  0.00    +0.155 HD
BRANCH  20  22
ATOM     22  C   UNL     1       0.506   3.778   0.593  0.00  0.00    +0.034 A 
ATOM     23  C   UNL     1      -0.581   4.421   0.015  0.00  0.00    +0.025 A 
ATOM     24  C   UNL     1      -0.807   5.758   0.273  0.00  0.00    +0.030 A 
ATOM     25  C   UNL     1       0.052   6.461   1.098  0.00  0.00    +0.105 A 
ATOM     26  C   UNL     1       1.139   5.825   1.670  0.00  0.00    +0.030 A 
ATOM     27  C   UNL     1       1.368   4.486   1.421  0.00  0.00    +0.025 A 
BRANCH  25  28
ATOM     28  S   UNL     1      -0.237   8.169   1.419  0.00  0.00    +0.056 S 
ATOM     29  O   UNL     1      -1.623   8.393   1.203  0.00  0.00    -0.153 OA
ATOM     30  O   UNL     1       0.399   8.463   2.656  0.00  0.00    -0.153 OA
BRANCH  28  31
ATOM     31  N   UNL     1       0.569   9.029   0.256  0.00  0.00    -0.204 NA
ATOM     32  H   UNL     1       0.413  10.105   0.423  0.00  0.00    +0.144 HD
ATOM     33  H   UNL     1       0.185   8.752  -0.737  0.00  0.00    +0.144 HD
ENDBRANCH  28  31
ENDBRANCH  25  28
ENDBRANCH  20  22
ENDBRANCH   2  18
TORSDOF 9
