REMARK  Name = ZINC03006956
REMARK  6 active torsions:
REMARK  status: ('A' for Active; 'I' for Inactive)
REMARK    1  A    between atoms: C_1  and  N_61
REMARK    2  A    between atoms: C_7  and  N_12
REMARK    3  A    between atoms: C_8  and  C_9
REMARK    4  A    between atoms: C_13  and  C_15
REMARK    5  A    between atoms: C_18  and  S_21
REMARK    6  A    between atoms: S_21  and  N_24
REMARK                            x       y       z     vdW  Elec       q    Type
REMARK                         _______ _______ _______ _____ _____    ______ ____
ROOT
ATOM      1  N   UNL     1      -1.321   3.463   0.027  0.00  0.00    -0.275 N 
ATOM      2  C   UNL     1      -1.306   2.115   0.020  0.00  0.00    +0.249 C 
ATOM      3  O   UNL     1      -2.351   1.496   0.021  0.00  0.00    -0.270 OA
ATOM      4  H   UNL     1      -0.486   3.957   0.026  0.00  0.00    +0.156 HD
ENDROOT
BRANCH   1  11
ATOM      5  C   UNL     1      -8.258   6.883   0.298  0.00  0.00    -0.096 C 
ATOM      6  C   UNL     1      -6.016   7.507  -0.373  0.00  0.00    -0.074 C 
ATOM      7  C   UNL     1      -4.549   7.435   0.060  0.00  0.00    +0.018 C 
ATOM      8  C   UNL     1      -4.123   5.971   0.054  0.00  0.00    -0.027 A 
ATOM      9  C   UNL     1      -5.058   4.993   0.054  0.00  0.00    -0.021 A 
ATOM     10  S   UNL     1      -4.133   3.486   0.033  0.00  0.00    -0.079 S 
ATOM     11  C   UNL     1      -2.528   4.142   0.036  0.00  0.00    +0.085 A 
ATOM     12  C   UNL     1      -2.747   5.514   0.045  0.00  0.00    +0.068 A 
ATOM     13  C   UNL     1      -6.542   5.183   0.064  0.00  0.00    -0.036 C 
ATOM     14  N   UNL     1      -6.818   6.586   0.458  0.00  0.00    +0.381 N 
ATOM     15  H   UNL     1      -6.559   6.713   1.444  0.00  0.00    -0.082 HD
BRANCH  12  16
ATOM     16  C   UNL     1      -1.629   6.463   0.044  0.00  0.00    +0.244 C 
ATOM     17  O   UNL     1      -1.170   6.862  -1.010  0.00  0.00    -0.270 OA
ATOM     18  N   UNL     1      -1.110   6.893   1.211  0.00  0.00    -0.325 N 
ATOM     19  H   UNL     1      -1.476   6.575   2.051  0.00  0.00    +0.145 HD
ATOM     20  H   UNL     1      -0.371   7.521   1.211  0.00  0.00    +0.145 HD
ENDBRANCH  12  16
ENDBRANCH   1  11
BRANCH   2  21
ATOM     21  C   UNL     1      -0.018   1.391   0.010  0.00  0.00    +0.037 A 
ATOM     22  C   UNL     1       1.185   2.099   0.002  0.00  0.00    +0.015 A 
ATOM     23  C   UNL     1       2.384   1.417  -0.013  0.00  0.00    +0.029 A 
ATOM     24  C   UNL     1       2.396   0.033  -0.021  0.00  0.00    +0.109 A 
ATOM     25  C   UNL     1       1.208  -0.675  -0.013  0.00  0.00    +0.029 A 
ATOM     26  C   UNL     1       0.002  -0.005   0.002  0.00  0.00    +0.015 A 
BRANCH  24  27
ATOM     27  S   UNL     1       3.932  -0.830  -0.040  0.00  0.00    +0.075 S 
ATOM     28  O   UNL     1       4.902   0.053   0.506  0.00  0.00    -0.150 OA
ATOM     29  O   UNL     1       3.681  -2.118   0.506  0.00  0.00    -0.150 OA
BRANCH  27  30
ATOM     30  N   UNL     1       4.343  -1.062  -1.627  0.00  0.00    -0.203 N 
ATOM     31  C   UNL     1       4.008  -2.319  -2.309  0.00  0.00    +0.132 C 
ATOM     32  C   UNL     1       5.234  -2.765  -3.110  0.00  0.00    +0.025 C 
ATOM     33  C   UNL     1       5.538  -1.715  -4.178  0.00  0.00    +0.038 C 
ATOM     34  C   UNL     1       5.610  -0.342  -3.563  0.00  0.00    -0.025 A 
ATOM     35  C   UNL     1       5.021  -0.066  -2.339  0.00  0.00    +0.054 A 
ATOM     36  C   UNL     1       5.101   1.214  -1.802  0.00  0.00    +0.025 A 
ATOM     37  C   UNL     1       5.768   2.211  -2.487  0.00  0.00    +0.002 A 
ATOM     38  C   UNL     1       6.356   1.933  -3.707  0.00  0.00    +0.000 A 
ATOM     39  C   UNL     1       6.278   0.662  -4.242  0.00  0.00    +0.005 A 
ENDBRANCH  27  30
ENDBRANCH  24  27
ENDBRANCH   2  21
TORSDOF 5
