REMARK  Name = ZINC65789971
REMARK  9 active torsions:
REMARK  status: ('A' for Active; 'I' for Inactive)
REMARK    1  A    between atoms: C_1  and  C_2
REMARK    2  A    between atoms: C_2  and  N_3
REMARK    3  A    between atoms: N_3  and  C_4
REMARK    4  A    between atoms: C_4  and  C_5
REMARK    5  A    between atoms: C_9  and  C_11
REMARK    6  A    between atoms: N_14  and  C_15
REMARK    7  A    between atoms: C_19  and  C_21
REMARK    8  A    between atoms: C_21  and  N_22
REMARK    9  A    between atoms: C_26  and  C_27
REMARK                            x       y       z     vdW  Elec       q    Type
REMARK                         _______ _______ _______ _____ _____    ______ ____
ROOT
ATOM      1  C   UNL     1      -1.980  -0.671   3.588  0.00  0.00    +0.035 A 
ATOM      2  C   UNL     1      -3.277  -1.162   3.656  0.00  0.00    +0.023 A 
ATOM      3  C   UNL     1      -3.895  -1.306   4.883  0.00  0.00    +0.002 A 
ATOM      4  C   UNL     1      -3.224  -0.962   6.042  0.00  0.00    +0.002 A 
ATOM      5  C   UNL     1      -1.933  -0.472   5.977  0.00  0.00    -0.062 A 
ATOM      6  C   UNL     1      -1.307  -0.331   4.754  0.00  0.00    +0.025 A 
ENDROOT
BRANCH   1  10
ATOM      7  N   UNL     1      -1.447   0.076   0.093  0.00  0.00    -0.281 N 
ATOM      8  C   UNL     1      -2.067  -0.155   1.267  0.00  0.00    +0.307 C 
ATOM      9  O   UNL     1      -3.274  -0.032   1.351  0.00  0.00    -0.252 OA
ATOM     10  N   UNL     1      -1.350  -0.524   2.347  0.00  0.00    -0.269 N 
ATOM     11  H   UNL     1      -0.398  -0.687   2.264  0.00  0.00    +0.156 HD
BRANCH   7  13
ATOM     12  C   UNL     1       0.680   1.263   0.317  0.00  0.00    +0.024 C 
ATOM     13  C   UNL     1       0.007  -0.072  -0.009  0.00  0.00    +0.106 C 
ENDBRANCH   7  13
BRANCH   7  14
ATOM     14  C   UNL     1      -2.227   0.477  -1.081  0.00  0.00    +0.144 C 
BRANCH  14  15
ATOM     15  C   UNL     1      -2.658  -0.751  -1.840  0.00  0.00    -0.030 A 
ATOM     16  C   UNL     1      -1.850  -1.269  -2.835  0.00  0.00    +0.005 A 
ATOM     17  C   UNL     1      -2.245  -2.396  -3.531  0.00  0.00    +0.001 A 
ATOM     18  C   UNL     1      -3.450  -3.005  -3.232  0.00  0.00    +0.003 A 
ATOM     19  C   UNL     1      -4.258  -2.488  -2.237  0.00  0.00    -0.050 A 
ATOM     20  C   UNL     1      -3.860  -1.364  -1.538  0.00  0.00    +0.008 A 
ATOM     21  C   UNL     1      -5.572  -3.152  -1.912  0.00  0.00    +0.044 C 
ENDBRANCH  14  15
ENDBRANCH   7  14
ENDBRANCH   1  10
BRANCH   5  22
ATOM     22  C   UNL     1      -1.206  -0.096   7.242  0.00  0.00    -0.042 C 
BRANCH  22  23
ATOM     23  N   UNL     1      -0.475  -1.264   7.752  0.00  0.00    +0.390 N 
ATOM     24  C   UNL     1       0.647  -1.604   6.841  0.00  0.00    -0.077 C 
ATOM     25  C   UNL     1       1.606  -2.417   7.747  0.00  0.00    -0.020 C 
ATOM     26  C   UNL     1       1.494  -1.692   9.107  0.00  0.00    -0.008 C 
ATOM     27  C   UNL     1       0.146  -0.948   9.056  0.00  0.00    +0.019 C 
ATOM     28  H   UNL     1      -1.099  -2.052   7.846  0.00  0.00    -0.080 HD
BRANCH  27  29
ATOM     29  C   UNL     1      -0.743  -1.420  10.177  0.00  0.00    +0.197 C 
ATOM     30  O   UNL     1      -1.796  -1.968   9.926  0.00  0.00    -0.278 OA
ATOM     31  N   UNL     1      -0.370  -1.233  11.459  0.00  0.00    -0.331 N 
ATOM     32  H   UNL     1       0.472  -0.794  11.659  0.00  0.00    +0.145 HD
ATOM     33  H   UNL     1      -0.943  -1.537  12.180  0.00  0.00    +0.145 HD
ENDBRANCH  27  29
ENDBRANCH  22  23
ENDBRANCH   5  22
TORSDOF 7
