REMARK  Name = ZINC15709091
REMARK  13 active torsions:
REMARK  status: ('A' for Active; 'I' for Inactive)
REMARK    1  A    between atoms: C_1  and  C_2
REMARK    2  A    between atoms: C_10  and  C_12
REMARK    3  A    between atoms: C_12  and  N_13
REMARK    4  A    between atoms: N_13  and  C_14
REMARK    5  A    between atoms: N_13  and  C_15
REMARK    6  A    between atoms: C_17  and  C_37
REMARK    7  A    between atoms: C_20  and  O_36
REMARK    8  A    between atoms: C_22  and  C_26
REMARK    9  A    between atoms: C_26  and  C_28
REMARK   10  A    between atoms: C_26  and  C_29
REMARK   11  A    between atoms: N_31  and  C_32
REMARK   12  A    between atoms: N_31  and  C_33
REMARK   13  A    between atoms: C_33  and  C_34
REMARK                            x       y       z     vdW  Elec       q    Type
REMARK                         _______ _______ _______ _____ _____    ______ ____
ROOT
ATOM      1  C   UNL     1      -0.288   0.098  -0.172  0.00  0.00    +0.014 C 
ATOM      2  C   UNL     1      -0.299  -1.355   0.308  0.00  0.00    +0.042 C 
ATOM      3  C   UNL     1      -1.725  -1.771   0.628  0.00  0.00    +0.057 A 
ATOM      4  C   UNL     1      -1.991  -2.519   1.729  0.00  0.00    +0.015 A 
ATOM      5  S   UNL     1      -3.748  -2.725   1.640  0.00  0.00    -0.057 S 
ATOM      6  C   UNL     1      -4.000  -1.849   0.222  0.00  0.00    +0.165 A 
ATOM      7  N   UNL     1      -2.789  -1.458  -0.106  0.00  0.00    -0.229 NA
ATOM      8  N   UNL     1      -5.197  -1.602  -0.440  0.00  0.00    -0.266 N 
ATOM      9  C   UNL     1      -6.352  -2.091   0.053  0.00  0.00    +0.202 C 
ATOM     10  O   UNL     1      -6.348  -2.747   1.073  0.00  0.00    -0.277 OA
ATOM     11  C   UNL     1      -1.022  -3.021   2.740  0.00  0.00    +0.051 C 
ATOM     12  C   UNL     1       0.407  -2.878   2.179  0.00  0.00    -0.022 C 
ATOM     13  C   UNL     1       0.566  -1.484   1.569  0.00  0.00    +0.033 C 
ATOM     14  C   UNL     1       2.023  -1.253   1.152  0.00  0.00    +0.123 C 
ATOM     15  C   UNL     1       2.951  -1.415   2.354  0.00  0.00    +0.029 C 
ATOM     16  C   UNL     1       2.814  -2.841   2.894  0.00  0.00    +0.007 C 
ATOM     17  C   UNL     1       1.373  -3.055   3.354  0.00  0.00    +0.008 C 
ATOM     18  C   UNL     1       0.664  -3.956   1.124  0.00  0.00    +0.012 C 
ATOM     19  H   UNL     1      -5.201  -1.078  -1.256  0.00  0.00    +0.157 HD
ENDROOT
BRANCH  15  20
ATOM     20  C   UNL     1       2.562  -0.411   3.441  0.00  0.00    +0.078 C 
ATOM     21  C   UNL     1       2.702   1.012   2.896  0.00  0.00    +0.017 C 
BRANCH  20  22
ATOM     22  C   UNL     1       3.469  -0.584   4.633  0.00  0.00    +0.219 C 
ATOM     23  O   UNL     1       4.415  -1.341   4.570  0.00  0.00    -0.275 OA
ATOM     24  N   UNL     1       3.229   0.101   5.768  0.00  0.00    -0.301 N 
ATOM     25  C   UNL     1       2.020   0.921   5.886  0.00  0.00    +0.132 C 
BRANCH  24  26
ATOM     26  C   UNL     1       4.176   0.027   6.883  0.00  0.00    +0.134 C 
BRANCH  26  27
ATOM     27  C   UNL     1       5.206   1.118   6.740  0.00  0.00    -0.016 C 
ATOM     28  C   UNL     1       5.405   1.964   7.721  0.00  0.00    +0.005 C 
ENDBRANCH  26  27
ENDBRANCH  24  26
ENDBRANCH  20  22
ENDBRANCH  15  20
BRANCH  14  29
ATOM     29  O   UNL     1       2.160   0.068   0.626  0.00  0.00    -0.391 OA
ATOM     30  H   UNL     1       3.058   0.286   0.341  0.00  0.00    +0.210 HD
ENDBRANCH  14  29
BRANCH   9  31
ATOM     31  C   UNL     1      -7.650  -1.823  -0.665  0.00  0.00    +0.018 C 
BRANCH  31  32
ATOM     32  N   UNL     1      -8.755  -2.458   0.067  0.00  0.00    +0.382 N 
ATOM     33  C   UNL     1      -8.899  -1.822   1.383  0.00  0.00    -0.096 C 
ATOM     34  C   UNL     1     -10.001  -2.300  -0.694  0.00  0.00    -0.096 C 
ATOM     35  H   UNL     1      -8.557  -3.440   0.188  0.00  0.00    -0.082 HD
ENDBRANCH  31  32
ENDBRANCH   9  31
TORSDOF 7
