REMARK  Name = ZINC38019265
REMARK  6 active torsions:
REMARK  status: ('A' for Active; 'I' for Inactive)
REMARK    1  A    between atoms: C_1  and  N_2
REMARK    2  A    between atoms: C_10  and  C_12
REMARK    3  A    between atoms: C_12  and  N_13
REMARK    4  A    between atoms: N_13  and  C_14
REMARK    5  A    between atoms: C_17  and  S_20
REMARK    6  A    between atoms: S_20  and  N_23
REMARK                            x       y       z     vdW  Elec       q    Type
REMARK                         _______ _______ _______ _____ _____    ______ ____
ROOT
ATOM      1  N   UNL     1      -1.515  -4.895   0.612  0.00  0.00    -0.344 N 
ATOM      2  H   UNL     1      -2.317  -4.409   0.857  0.00  0.00    +0.146 HD
ENDROOT
BRANCH   1   3
ATOM      3  C   UNL     1      -1.587  -6.258   0.317  0.00  0.00    +0.027 A 
ATOM      4  C   UNL     1      -0.437  -6.958  -0.028  0.00  0.00    +0.025 A 
ATOM      5  C   UNL     1      -0.512  -8.306  -0.319  0.00  0.00    +0.030 A 
ATOM      6  C   UNL     1      -1.730  -8.959  -0.268  0.00  0.00    +0.105 A 
ATOM      7  C   UNL     1      -2.876  -8.266   0.075  0.00  0.00    +0.030 A 
ATOM      8  C   UNL     1      -2.807  -6.919   0.373  0.00  0.00    +0.025 A 
BRANCH   6   9
ATOM      9  S   UNL     1      -1.821 -10.679  -0.641  0.00  0.00    +0.056 S 
ATOM     10  O   UNL     1      -3.156 -10.935  -1.053  0.00  0.00    -0.153 OA
ATOM     11  O   UNL     1      -0.700 -10.976  -1.463  0.00  0.00    -0.153 OA
BRANCH   9  12
ATOM     12  N   UNL     1      -1.597 -11.500   0.779  0.00  0.00    -0.204 NA
ATOM     13  H   UNL     1      -1.451 -11.012   1.604  0.00  0.00    +0.144 HD
ATOM     14  H   UNL     1      -1.612 -12.470   0.786  0.00  0.00    +0.144 HD
ENDBRANCH   9  12
ENDBRANCH   6   9
ENDBRANCH   1   3
BRANCH   1  15
ATOM     15  C   UNL     1      -0.227  -4.200   0.552  0.00  0.00    +0.105 C 
BRANCH  15  23
ATOM     16  C   UNL     1      -0.018   1.465   0.010  0.00  0.00    -0.095 C 
ATOM     17  N   UNL     1       0.002  -0.004   0.002  0.00  0.00    +0.382 N 
ATOM     18  C   UNL     1      -1.374  -0.547   0.157  0.00  0.00    -0.068 C 
ATOM     19  C   UNL     1      -1.682  -0.375   1.663  0.00  0.00    -0.017 C 
ATOM     20  C   UNL     1      -0.301  -0.360   2.350  0.00  0.00    -0.017 C 
ATOM     21  C   UNL     1       0.717  -0.525   1.198  0.00  0.00    -0.068 C 
ATOM     22  C   UNL     1       0.938  -2.030   0.977  0.00  0.00    -0.010 C 
ATOM     23  C   UNL     1      -0.424  -2.727   0.918  0.00  0.00    +0.003 C 
ATOM     24  C   UNL     1      -1.308  -2.051  -0.154  0.00  0.00    -0.010 C 
ATOM     25  H   UNL     1       0.429  -0.349  -0.845  0.00  0.00    -0.081 HD
ENDBRANCH  15  23
ENDBRANCH   1  15
TORSDOF 5
