REMARK  Name = ZINC20023821
REMARK  4 active torsions:
REMARK  status: ('A' for Active; 'I' for Inactive)
REMARK    1  A    between atoms: C_8  and  S_10
REMARK    2  A    between atoms: S_10  and  C_11
REMARK    3  A    between atoms: C_11  and  C_12
REMARK    4  A    between atoms: C_15  and  C_19
REMARK                            x       y       z     vdW  Elec       q    Type
REMARK                         _______ _______ _______ _____ _____    ______ ____
ROOT
ATOM      1  C   UNL     1       1.984   3.586   0.002  0.00  0.00    -0.002 A 
ATOM      2  C   UNL     1       2.100   4.261   1.204  0.00  0.00    +0.008 A 
ATOM      3  C   UNL     1       2.309   5.624   1.216  0.00  0.00    +0.012 A 
ATOM      4  C   UNL     1       2.404   6.324   0.014  0.00  0.00    +0.015 A 
ATOM      5  C   UNL     1       2.287   5.641  -1.196  0.00  0.00    +0.050 A 
ATOM      6  C   UNL     1       2.083   4.274  -1.196  0.00  0.00    +0.128 A 
ATOM      7  F   UNL     1       1.974   3.608  -2.367  0.00  0.00    -0.205 F 
ENDROOT
BRANCH   4   8
ATOM      8  C   UNL     1       2.628   7.788   0.022  0.00  0.00    +0.094 C 
ATOM      9  N   UNL     1       2.737   8.424   1.153  0.00  0.00    -0.387 N 
ATOM     10  N   UNL     1       2.722   8.477  -1.168  0.00  0.00    -0.345 N 
ATOM     11  H   UNL     1       2.904   9.511   1.159  0.00  0.00    +0.157 HD
ATOM     12  H   UNL     1       2.889   9.564  -1.162  0.00  0.00    +0.144 HD
ATOM     13  H   UNL     1       2.630   7.940  -2.123  0.00  0.00    +0.144 HD
ATOM     14  H   UNL     1       2.663   7.874   2.103  0.00  0.00    +0.157 HD
ENDBRANCH   4   8
BRANCH   1  15
ATOM     15  C   UNL     1       1.756   2.096  -0.004  0.00  0.00    +0.114 C 
BRANCH  15  16
ATOM     16  S   UNL     1      -0.022   1.758   0.012  0.00  0.00    -0.094 S 
BRANCH  16  24
ATOM     17  C   UNL     1      -1.492  -4.514  -0.011  0.00  0.00    +0.002 A 
ATOM     18  C   UNL     1      -0.166  -4.918  -0.026  0.00  0.00    +0.001 A 
ATOM     19  C   UNL     1       0.834  -3.962  -0.029  0.00  0.00    +0.017 A 
ATOM     20  C   UNL     1       0.498  -2.631  -0.018  0.00  0.00    +0.040 A 
ATOM     21  C   UNL     1      -0.842  -2.183  -0.002  0.00  0.00    +0.079 A 
ATOM     22  C   UNL     1      -1.837  -3.187   0.001  0.00  0.00    +0.029 A 
ATOM     23  N   UNL     1      -1.010  -0.842   0.007  0.00  0.00    -0.233 NA
ATOM     24  C   UNL     1       0.002  -0.004   0.002  0.00  0.00    +0.136 A 
ATOM     25  S   UNL     1       1.409  -1.106  -0.025  0.00  0.00    -0.061 S 
ENDBRANCH  16  24
ENDBRANCH  15  16
ENDBRANCH   1  15
TORSDOF 4
