REMARK  Name = ZINC12281379
REMARK  8 active torsions:
REMARK  status: ('A' for Active; 'I' for Inactive)
REMARK    1  A    between atoms: C_1  and  C_2
REMARK    2  A    between atoms: C_2  and  C_3
REMARK    3  A    between atoms: C_3  and  C_4
REMARK    4  A    between atoms: C_4  and  N_5
REMARK    5  A    between atoms: C_16  and  N_57
REMARK    6  A    between atoms: C_20  and  C_21
REMARK    7  A    between atoms: C_20  and  N_57
REMARK    8  A    between atoms: C_21  and  O_27
REMARK                            x       y       z     vdW  Elec       q    Type
REMARK                         _______ _______ _______ _____ _____    ______ ____
ROOT
ATOM      1  N   UNL     1      -0.949   3.663   0.032  0.00  0.00    -0.299 N 
ATOM      2  C   UNL     1       0.304   4.186   0.022  0.00  0.00    +0.203 A 
ATOM      3  N   UNL     1       1.358   3.414   0.008  0.00  0.00    -0.230 NA
ATOM      4  C   UNL     1       1.236   2.090   0.002  0.00  0.00    +0.116 A 
ATOM      5  C   UNL     1      -0.018   1.458   0.010  0.00  0.00    +0.076 A 
ATOM      6  C   UNL     1      -1.153   2.333   0.031  0.00  0.00    +0.262 A 
ATOM      7  O   UNL     1      -2.285   1.879   0.045  0.00  0.00    -0.267 OA
ATOM      8  C   UNL     1       0.002  -0.004   0.002  0.00  0.00    -0.023 A 
ATOM      9  C   UNL     1       1.213  -0.600  -0.013  0.00  0.00    -0.006 A 
ATOM     10  S   UNL     1       2.381   0.734  -0.017  0.00  0.00    -0.073 S 
ATOM     11  C   UNL     1       1.501  -2.070  -0.024  0.00  0.00    +0.027 C 
ATOM     12  C   UNL     1       0.209  -2.814  -0.390  0.00  0.00    -0.067 C 
ATOM     13  C   UNL     1      -0.936  -2.258   0.462  0.00  0.00    -0.011 C 
ATOM     14  C   UNL     1      -1.276  -0.838   0.011  0.00  0.00    +0.035 C 
ENDROOT
BRANCH  12  15
ATOM     15  N   UNL     1       0.370  -4.253  -0.110  0.00  0.00    +0.383 N 
ATOM     16  H   UNL     1      -0.553  -4.671   0.056  0.00  0.00    -0.085 HD
ATOM     17  H   UNL     1       0.956  -4.373   0.725  0.00  0.00    -0.085 HD
BRANCH  15  18
ATOM     18  C   UNL     1       1.011  -4.929  -1.254  0.00  0.00    -0.047 C 
BRANCH  18  19
ATOM     19  C   UNL     1       1.164  -6.418  -0.936  0.00  0.00    +0.051 C 
ATOM     20  C   UNL     1       1.927  -6.582   0.381  0.00  0.00    +0.033 C 
ATOM     21  C   UNL     1       2.080  -8.070   0.699  0.00  0.00    +0.003 C 
ATOM     22  C   UNL     1       2.855  -8.756  -0.428  0.00  0.00    +0.000 C 
ATOM     23  C   UNL     1       2.093  -8.592  -1.744  0.00  0.00    +0.003 C 
ATOM     24  C   UNL     1       1.939  -7.103  -2.063  0.00  0.00    +0.033 C 
BRANCH  19  25
ATOM     25  O   UNL     1      -0.128  -7.015  -0.815  0.00  0.00    -0.390 OA
ATOM     26  H   UNL     1      -0.676  -6.629  -0.118  0.00  0.00    +0.210 HD
ENDBRANCH  19  25
ENDBRANCH  18  19
ENDBRANCH  15  18
ENDBRANCH  12  15
BRANCH   1  27
ATOM     27  C   UNL     1      -2.103   4.566   0.050  0.00  0.00    +0.126 C 
BRANCH  27  28
ATOM     28  C   UNL     1      -2.519   4.889  -1.387  0.00  0.00    +0.021 C 
BRANCH  28  30
ATOM     29  C   UNL     1      -4.141   6.156  -2.804  0.00  0.00    +0.004 C 
ATOM     30  C   UNL     1      -3.724   5.832  -1.368  0.00  0.00    -0.002 C 
ENDBRANCH  28  30
ENDBRANCH  27  28
ENDBRANCH   1  27
TORSDOF 7
