REMARK  Name = ZINC09661927
REMARK  8 active torsions:
REMARK  status: ('A' for Active; 'I' for Inactive)
REMARK    1  A    between atoms: C_1  and  O_2
REMARK    2  A    between atoms: O_2  and  C_3
REMARK    3  A    between atoms: C_3  and  C_4
REMARK    4  A    between atoms: C_12  and  C_13
REMARK    5  A    between atoms: N_15  and  C_16
REMARK    6  A    between atoms: C_16  and  C_17
REMARK    7  A    between atoms: C_17  and  N_18
REMARK    8  A    between atoms: C_22  and  C_23
REMARK                            x       y       z     vdW  Elec       q    Type
REMARK                         _______ _______ _______ _____ _____    ______ ____
ROOT
ATOM      1  C   UNL     1       0.955   3.569  -0.908  0.00  0.00    +0.136 C 
ENDROOT
BRANCH   1   2
ATOM      2  N   UNL     1       0.966   2.109  -0.785  0.00  0.00    -0.227 N 
ATOM      3  C   UNL     1      -0.144   1.482  -0.434  0.00  0.00    +0.260 C 
ATOM      4  O   UNL     1      -1.178   2.086  -0.215  0.00  0.00    -0.269 OA
ATOM      5  C   UNL     1      -0.068   0.011  -0.328  0.00  0.00    +0.080 C 
ATOM      6  C   UNL     1      -1.032  -0.883   0.008  0.00  0.00    +0.028 C 
ATOM      7  S   UNL     1       1.644  -0.267  -0.761  0.00  0.00    -0.026 S 
ATOM      8  C   UNL     1       2.108   1.435  -1.032  0.00  0.00    +0.286 C 
ATOM      9  O   UNL     1       3.191   1.880  -1.360  0.00  0.00    -0.262 OA
BRANCH   6  10
ATOM     10  C   UNL     1      -0.771  -2.324  -0.113  0.00  0.00    -0.020 A 
ATOM     11  C   UNL     1       0.394  -2.776  -0.744  0.00  0.00    +0.012 A 
ATOM     12  C   UNL     1       0.638  -4.127  -0.850  0.00  0.00    +0.050 A 
ATOM     13  C   UNL     1      -0.274  -5.045  -0.345  0.00  0.00    +0.166 A 
ATOM     14  C   UNL     1      -1.441  -4.602   0.279  0.00  0.00    +0.167 A 
ATOM     15  C   UNL     1      -1.691  -3.249   0.396  0.00  0.00    +0.057 A 
ATOM     16  O   UNL     1      -2.160  -5.691   0.682  0.00  0.00    -0.453 OA
ATOM     17  C   UNL     1      -1.624  -6.801  -0.062  0.00  0.00    +0.466 C 
ATOM     18  O   UNL     1      -0.265  -6.409  -0.331  0.00  0.00    -0.453 OA
ENDBRANCH   6  10
ENDBRANCH   1   2
BRANCH   1  19
ATOM     19  C   UNL     1       1.322   4.197   0.438  0.00  0.00    +0.124 C 
BRANCH  19  22
ATOM     20  C   UNL     1       1.605   6.426   1.381  0.00  0.00    +0.280 C 
ATOM     21  O   UNL     1       1.881   5.907   2.447  0.00  0.00    -0.267 OA
ATOM     22  N   UNL     1       1.310   5.657   0.314  0.00  0.00    -0.307 N 
ATOM     23  H   UNL     1       1.091   6.070  -0.535  0.00  0.00    +0.149 HD
BRANCH  20  32
ATOM     24  C   UNL     1       1.874   8.762   2.261  0.00  0.00    +0.036 A 
ATOM     25  C   UNL     1       1.740  10.099   1.685  0.00  0.00    +0.026 A 
ATOM     26  C   UNL     1       1.892  11.395   2.185  0.00  0.00    +0.012 A 
ATOM     27  C   UNL     1       1.690  12.466   1.363  0.00  0.00    +0.001 A 
ATOM     28  C   UNL     1       1.334  12.276   0.034  0.00  0.00    +0.004 A 
ATOM     29  C   UNL     1       1.179  11.007  -0.479  0.00  0.00    +0.047 A 
ATOM     30  C   UNL     1       1.380   9.901   0.339  0.00  0.00    +0.136 A 
ATOM     31  O   UNL     1       1.310   8.572   0.128  0.00  0.00    -0.450 OA
ATOM     32  C   UNL     1       1.594   7.890   1.257  0.00  0.00    +0.196 A 
BRANCH  24  33
ATOM     33  C   UNL     1       2.247   8.419   3.680  0.00  0.00    +0.199 C 
BRANCH  33  35
ATOM     34  C   UNL     1       4.128   7.967   5.095  0.00  0.00    +0.194 C 
ATOM     35  O   UNL     1       3.666   8.292   3.782  0.00  0.00    -0.378 OA
ENDBRANCH  33  35
ENDBRANCH  24  33
ENDBRANCH  20  32
ENDBRANCH  19  22
ENDBRANCH   1  19
TORSDOF 7
