REMARK  Name = ZINC39211083
REMARK  10 active torsions:
REMARK  status: ('A' for Active; 'I' for Inactive)
REMARK    1  A    between atoms: C_1  and  C_2
REMARK    2  A    between atoms: C_2  and  O_27
REMARK    3  A    between atoms: C_5  and  C_11
REMARK    4  A    between atoms: C_5  and  C_12
REMARK    5  A    between atoms: C_7  and  C_9
REMARK    6  A    between atoms: C_7  and  C_10
REMARK    7  A    between atoms: N_16  and  C_17
REMARK    8  A    between atoms: C_17  and  C_18
REMARK    9  A    between atoms: C_18  and  C_20
REMARK   10  A    between atoms: C_18  and  O_26
REMARK                            x       y       z     vdW  Elec       q    Type
REMARK                         _______ _______ _______ _____ _____    ______ ____
ROOT
ATOM      1  C   UNL     1      -0.168   1.956  -0.103  0.00  0.00    +0.068 C 
ATOM      2  C   UNL     1      -0.123   0.443   0.098  0.00  0.00    +0.175 C 
ATOM      3  C   UNL     1      -1.522  -0.205  -0.020  0.00  0.00    +0.158 C 
ATOM      4  C   UNL     1      -1.359  -1.675  -0.381  0.00  0.00    +0.040 C 
ATOM      5  C   UNL     1      -2.716  -2.358  -0.536  0.00  0.00    -0.070 C 
ATOM      6  N   UNL     1      -3.582  -1.637  -1.458  0.00  0.00    +0.386 N 
ATOM      7  C   UNL     1      -3.712  -0.203  -1.278  0.00  0.00    -0.070 C 
ATOM      8  C   UNL     1      -2.387   0.514  -1.030  0.00  0.00    +0.040 C 
ATOM      9  C   UNL     1      -4.709   0.141  -0.167  0.00  0.00    -0.010 C 
ATOM     10  C   UNL     1      -4.297   0.374  -2.593  0.00  0.00    -0.010 C 
ATOM     11  C   UNL     1      -3.375  -2.583   0.823  0.00  0.00    -0.010 C 
ATOM     12  C   UNL     1      -2.454  -3.756  -1.149  0.00  0.00    -0.010 C 
ATOM     13  O   UNL     1      -2.009  -0.045   1.322  0.00  0.00    -0.439 OA
ATOM     14  C   UNL     1      -0.943  -0.134   2.143  0.00  0.00    +0.406 C 
ATOM     15  O   UNL     1      -1.020  -0.412   3.321  0.00  0.00    -0.226 OA
ATOM     16  N   UNL     1       0.217   0.119   1.504  0.00  0.00    -0.233 N 
ATOM     17  H   UNL     1      -3.253  -1.816  -2.411  0.00  0.00    -0.084 HD
ATOM     18  H   UNL     1      -4.514  -2.056  -1.416  0.00  0.00    -0.084 HD
ENDROOT
BRANCH   2  19
ATOM     19  O   UNL     1       0.804  -0.166  -0.801  0.00  0.00    -0.368 OA
ATOM     20  H   UNL     1       1.711   0.156  -0.709  0.00  0.00    +0.212 HD
ENDBRANCH   2  19
BRANCH  16  21
ATOM     21  C   UNL     1       1.559   0.083   2.084  0.00  0.00    +0.150 C 
BRANCH  21  22
ATOM     22  C   UNL     1       2.148  -1.319   1.919  0.00  0.00    +0.162 C 
BRANCH  22  23
ATOM     23  C   UNL     1       3.575  -1.325   2.405  0.00  0.00    -0.018 A 
ATOM     24  C   UNL     1       3.847  -1.519   3.746  0.00  0.00    +0.006 A 
ATOM     25  C   UNL     1       5.156  -1.524   4.192  0.00  0.00    +0.000 A 
ATOM     26  C   UNL     1       6.192  -1.337   3.296  0.00  0.00    +0.000 A 
ATOM     27  C   UNL     1       5.920  -1.144   1.955  0.00  0.00    +0.000 A 
ATOM     28  C   UNL     1       4.611  -1.143   1.508  0.00  0.00    +0.006 A 
ENDBRANCH  22  23
BRANCH  22  29
ATOM     29  O   UNL     1       1.381  -2.252   2.683  0.00  0.00    -0.386 OA
ATOM     30  H   UNL     1       1.360  -2.061   3.631  0.00  0.00    +0.210 HD
ENDBRANCH  22  29
ENDBRANCH  21  22
ENDBRANCH  16  21
TORSDOF 5
