REMARK  Name = ZINC03186649
REMARK  14 active torsions:
REMARK  status: ('A' for Active; 'I' for Inactive)
REMARK    1  A    between atoms: C_1  and  C_2
REMARK    2  A    between atoms: C_2  and  C_3
REMARK    3  A    between atoms: C_2  and  C_4
REMARK    4  A    between atoms: C_2  and  C_5
REMARK    5  A    between atoms: C_5  and  C_6
REMARK    6  A    between atoms: C_6  and  C_7
REMARK    7  A    between atoms: C_6  and  C_8
REMARK    8  A    between atoms: C_6  and  C_9
REMARK    9  A    between atoms: C_12  and  O_18
REMARK   10  A    between atoms: C_13  and  N_15
REMARK   11  A    between atoms: O_18  and  C_19
REMARK   12  A    between atoms: C_19  and  C_20
REMARK   13  A    between atoms: N_22  and  N_23
REMARK   14  A    between atoms: C_24  and  C_25
REMARK                            x       y       z     vdW  Elec       q    Type
REMARK                         _______ _______ _______ _____ _____    ______ ____
ROOT
ATOM      1  C   UNL     1     -10.297  -2.606   0.104  0.00  0.00    -0.039 A 
ATOM      2  C   UNL     1      -9.234  -3.126   0.819  0.00  0.00    +0.008 A 
ATOM      3  C   UNL     1      -8.144  -2.332   1.114  0.00  0.00    +0.048 A 
ATOM      4  C   UNL     1      -8.116  -1.010   0.691  0.00  0.00    +0.151 A 
ATOM      5  C   UNL     1      -9.185  -0.490  -0.022  0.00  0.00    +0.168 A 
ATOM      6  C   UNL     1     -10.271  -1.290  -0.319  0.00  0.00    +0.040 A 
ENDROOT
BRANCH   1   7
ATOM      7  C   UNL     1     -11.486  -3.476  -0.216  0.00  0.00    -0.009 C 
ATOM      8  C   UNL     1     -12.746  -2.865   0.400  0.00  0.00    +0.016 C 
ATOM      9  C   UNL     1     -11.655  -3.570  -1.734  0.00  0.00    +0.016 C 
BRANCH   7  10
ATOM     10  C   UNL     1     -11.264  -4.876   0.360  0.00  0.00    +0.017 C 
BRANCH  10  12
ATOM     11  C   UNL     1     -13.358  -5.390  -0.901  0.00  0.00    +0.010 C 
ATOM     12  C   UNL     1     -12.596  -5.627   0.404  0.00  0.00    -0.037 C 
ATOM     13  C   UNL     1     -12.332  -7.124   0.576  0.00  0.00    +0.010 C 
ATOM     14  C   UNL     1     -13.430  -5.117   1.581  0.00  0.00    +0.010 C 
ENDBRANCH  10  12
ENDBRANCH   7  10
ENDBRANCH   1   7
BRANCH   5  15
ATOM     15  N   UNL     1      -9.161   0.921  -0.470  0.00  0.00    +0.060 N 
ATOM     16  O   UNL     1     -10.100   1.377  -1.097  0.00  0.00    -0.126 OA
ATOM     17  O   UNL     1      -8.201   1.625  -0.212  0.00  0.00    -0.126 OA
ENDBRANCH   5  15
BRANCH   4  18
ATOM     18  O   UNL     1      -7.044  -0.226   0.980  0.00  0.00    -0.480 OA
BRANCH  18  19
ATOM     19  C   UNL     1      -5.982  -0.827   1.723  0.00  0.00    +0.326 C 
BRANCH  19  20
ATOM     20  C   UNL     1      -4.889   0.186   1.947  0.00  0.00    +0.270 C 
ATOM     21  O   UNL     1      -5.008   1.313   1.513  0.00  0.00    -0.270 OA
ATOM     22  N   UNL     1      -3.779  -0.159   2.630  0.00  0.00    -0.204 N 
ATOM     23  H   UNL     1      -3.684  -1.060   2.977  0.00  0.00    +0.177 HD
BRANCH  22  24
ATOM     24  N   UNL     1      -2.764   0.783   2.838  0.00  0.00    -0.185 NA
ATOM     25  C   UNL     1      -1.692   0.450   3.497  0.00  0.00    +0.176 C 
BRANCH  25  26
ATOM     26  C   UNL     1      -0.630   1.436   3.714  0.00  0.00    +0.149 A 
ATOM     27  C   UNL     1       0.539   1.220   4.385  0.00  0.00    +0.052 A 
ATOM     28  C   UNL     1       1.255   2.430   4.351  0.00  0.00    +0.057 A 
ATOM     29  C   UNL     1       0.500   3.319   3.671  0.00  0.00    +0.171 A 
ATOM     30  O   UNL     1      -0.636   2.715   3.288  0.00  0.00    -0.447 OA
ATOM     31 BR   UNL     1       0.967   5.116   3.315  0.00  0.00    -0.008 Br
ENDBRANCH  25  26
ENDBRANCH  22  24
ENDBRANCH  19  20
ENDBRANCH  18  19
ENDBRANCH   4  18
TORSDOF 9
