REMARK  Name = ZINC02777440
REMARK  10 active torsions:
REMARK  status: ('A' for Active; 'I' for Inactive)
REMARK    1  A    between atoms: C_1  and  C_2
REMARK    2  A    between atoms: C_3  and  C_22
REMARK    3  A    between atoms: C_4  and  C_19
REMARK    4  A    between atoms: C_5  and  N_7
REMARK    5  A    between atoms: C_8  and  C_10
REMARK    6  A    between atoms: C_13  and  N_16
REMARK    7  A    between atoms: C_25  and  C_28
REMARK    8  A    between atoms: C_28  and  C_29
REMARK    9  A    between atoms: C_29  and  C_30
REMARK   10  A    between atoms: C_29  and  C_31
REMARK                            x       y       z     vdW  Elec       q    Type
REMARK                         _______ _______ _______ _____ _____    ______ ____
ROOT
ATOM      1  C   UNL     1       4.071   4.680  -0.010  0.00  0.00    +0.052 C 
ATOM      2  C   UNL     1       3.183   3.462  -0.008  0.00  0.00    -0.003 A 
ATOM      3  C   UNL     1       3.548   2.154  -0.019  0.00  0.00    +0.006 A 
ATOM      4  C   UNL     1       2.475   1.178  -0.010  0.00  0.00    +0.073 A 
ATOM      5  C   UNL     1       1.179   1.675  -0.000  0.00  0.00    +0.085 A 
ATOM      6  S   UNL     1       1.404   3.391   0.007  0.00  0.00    -0.077 S 
ENDROOT
BRANCH   3   7
ATOM      7  C   UNL     1       4.972   1.744  -0.035  0.00  0.00    -0.016 A 
ATOM      8  C   UNL     1       5.492   1.061  -1.133  0.00  0.00    +0.009 A 
ATOM      9  C   UNL     1       6.820   0.686  -1.144  0.00  0.00    +0.004 A 
ATOM     10  C   UNL     1       7.633   0.977  -0.063  0.00  0.00    -0.047 A 
ATOM     11  C   UNL     1       7.121   1.649   1.032  0.00  0.00    +0.004 A 
ATOM     12  C   UNL     1       5.796   2.034   1.052  0.00  0.00    +0.009 A 
BRANCH  10  13
ATOM     13  C   UNL     1       9.081   0.560  -0.079  0.00  0.00    +0.038 C 
BRANCH  13  14
ATOM     14  C   UNL     1       9.214  -0.841   0.522  0.00  0.00    -0.013 C 
ATOM     15  C   UNL     1       8.492  -1.850  -0.372  0.00  0.00    +0.007 C 
ATOM     16  C   UNL     1      10.695  -1.214   0.621  0.00  0.00    +0.007 C 
ENDBRANCH  13  14
ENDBRANCH  10  13
ENDBRANCH   3   7
BRANCH   4  17
ATOM     17  C   UNL     1       2.746  -0.261  -0.013  0.00  0.00    +0.244 C 
ATOM     18  O   UNL     1       2.852  -0.858  -1.069  0.00  0.00    -0.270 OA
ATOM     19  N   UNL     1       2.878  -0.925   1.153  0.00  0.00    -0.325 N 
ATOM     20  H   UNL     1       2.794  -0.449   1.994  0.00  0.00    +0.145 HD
ATOM     21  H   UNL     1       3.057  -1.878   1.150  0.00  0.00    +0.145 HD
ENDBRANCH   4  17
BRANCH   5  22
ATOM     22  N   UNL     1      -0.011   0.966   0.007  0.00  0.00    -0.275 N 
ATOM     23  C   UNL     1      -1.187   1.624   0.017  0.00  0.00    +0.249 C 
ATOM     24  O   UNL     1      -1.204   2.839   0.023  0.00  0.00    -0.270 OA
ATOM     25  H   UNL     1       0.002  -0.004   0.002  0.00  0.00    +0.156 HD
BRANCH  23  26
ATOM     26  C   UNL     1      -2.457   0.868   0.018  0.00  0.00    +0.037 A 
ATOM     27  C   UNL     1      -2.442  -0.528   0.005  0.00  0.00    +0.015 A 
ATOM     28  C   UNL     1      -3.631  -1.228   0.012  0.00  0.00    +0.033 A 
ATOM     29  C   UNL     1      -4.836  -0.550   0.021  0.00  0.00    +0.126 A 
ATOM     30  C   UNL     1      -4.859   0.834   0.029  0.00  0.00    +0.033 A 
ATOM     31  C   UNL     1      -3.677   1.546   0.028  0.00  0.00    +0.015 A 
BRANCH  29  32
ATOM     32  N   UNL     1      -6.108  -1.307   0.021  0.00  0.00    +0.056 N 
ATOM     33  O   UNL     1      -7.171  -0.712   0.030  0.00  0.00    -0.126 OA
ATOM     34  O   UNL     1      -6.091  -2.525   0.014  0.00  0.00    -0.126 OA
ENDBRANCH  29  32
ENDBRANCH  23  26
ENDBRANCH   5  22
TORSDOF 7
