REMARK  Name = ZINC42361880
REMARK  7 active torsions:
REMARK  status: ('A' for Active; 'I' for Inactive)
REMARK    1  A    between atoms: C_1  and  N_2
REMARK    2  A    between atoms: N_2  and  C_3
REMARK    3  A    between atoms: N_2  and  C_10
REMARK    4  A    between atoms: C_3  and  C_4
REMARK    5  A    between atoms: C_10  and  C_12
REMARK    6  A    between atoms: C_10  and  C_14
REMARK    7  A    between atoms: C_12  and  N_13
REMARK                            x       y       z     vdW  Elec       q    Type
REMARK                         _______ _______ _______ _____ _____    ______ ____
ROOT
ATOM      1  C   UNL     1      -1.386  -0.497   0.188  0.00  0.00    +0.069 C 
ENDROOT
BRANCH   1   2
ATOM      2  C   UNL     1      -2.091  -0.115  -1.088  0.00  0.00    -0.032 A 
ATOM      3  C   UNL     1      -1.421  -0.185  -2.296  0.00  0.00    +0.006 A 
ATOM      4  C   UNL     1      -2.067   0.165  -3.466  0.00  0.00    +0.015 A 
ATOM      5  C   UNL     1      -3.384   0.585  -3.430  0.00  0.00    +0.018 A 
ATOM      6  C   UNL     1      -4.054   0.655  -2.221  0.00  0.00    +0.015 A 
ATOM      7  C   UNL     1      -3.409   0.300  -1.052  0.00  0.00    +0.006 A 
ATOM      8 BR   UNL     1      -4.269   1.064  -5.031  0.00  0.00    -0.050 Br
ENDBRANCH   1   2
BRANCH   1  10
ATOM      9  C   UNL     1       0.017   1.458  -0.086  0.00  0.00    +0.105 C 
ATOM     10  N   UNL     1      -0.007   0.009   0.156  0.00  0.00    -0.296 NA
BRANCH  10  11
ATOM     11  C   UNL     1       0.707  -0.330   1.394  0.00  0.00    +0.120 C 
BRANCH  11  12
ATOM     12  C   UNL     1       2.171  -0.010   1.233  0.00  0.00    -0.025 A 
ATOM     13  C   UNL     1       3.047  -0.959   0.740  0.00  0.00    +0.028 A 
ATOM     14  C   UNL     1       4.358  -0.638   0.608  0.00  0.00    +0.055 A 
ATOM     15  S   UNL     1       4.385   1.049   1.191  0.00  0.00    -0.090 S 
ATOM     16  C   UNL     1       2.647   1.214   1.565  0.00  0.00    +0.051 A 
ATOM     17 BR   UNL     1       5.787  -1.701  -0.028  0.00  0.00    -0.043 Br
ENDBRANCH  11  12
ENDBRANCH  10  11
ENDBRANCH   1  10
BRANCH   1  18
ATOM     18  C   UNL     1      -1.366  -2.021   0.323  0.00  0.00    -0.063 C 
BRANCH  18  19
ATOM     19  N   UNL     1      -2.742  -2.518   0.464  0.00  0.00    +0.379 N 
ATOM     20  H   UNL     1      -3.146  -2.154   1.314  0.00  0.00    -0.090 HD
ATOM     21  H   UNL     1      -3.291  -2.214  -0.326  0.00  0.00    -0.090 HD
ATOM     22  H   UNL     1      -2.733  -3.526   0.500  0.00  0.00    -0.090 HD
ENDBRANCH  18  19
ENDBRANCH   1  18
TORSDOF 6
