REMARK  Name = ZINC19354793
REMARK  11 active torsions:
REMARK  status: ('A' for Active; 'I' for Inactive)
REMARK    1  A    between atoms: C_1  and  C_2
REMARK    2  A    between atoms: C_6  and  C_35
REMARK    3  A    between atoms: C_7  and  N_8
REMARK    4  A    between atoms: C_9  and  C_11
REMARK    5  A    between atoms: C_11  and  N_12
REMARK    6  A    between atoms: C_18  and  C_20
REMARK    7  A    between atoms: C_20  and  S_21
REMARK    8  A    between atoms: S_21  and  C_22
REMARK    9  A    between atoms: C_25  and  C_27
REMARK   10  A    between atoms: C_29  and  C_34
REMARK   11  A    between atoms: C_31  and  C_33
REMARK                            x       y       z     vdW  Elec       q    Type
REMARK                         _______ _______ _______ _____ _____    ______ ____
ROOT
ATOM      1  N   UNL     1      -2.249  -2.825   0.315  0.00  0.00    +0.387 N 
ATOM      2  C   UNL     1      -2.628  -2.534   1.704  0.00  0.00    -0.059 C 
ATOM      3  C   UNL     1      -4.058  -3.024   1.953  0.00  0.00    +0.089 C 
ATOM      4  N   UNL     1      -4.140  -4.441   1.570  0.00  0.00    -0.304 N 
ATOM      5  C   UNL     1      -3.650  -4.832   0.240  0.00  0.00    +0.089 C 
ATOM      6  C   UNL     1      -2.235  -4.271   0.058  0.00  0.00    -0.059 C 
ATOM      7  C   UNL     1      -4.650  -5.358   2.416  0.00  0.00    +0.226 C 
ATOM      8  O   UNL     1      -4.710  -6.523   2.084  0.00  0.00    -0.275 OA
ATOM      9  H   UNL     1      -3.010  -2.376  -0.340  0.00  0.00    -0.081 HD
ENDROOT
BRANCH   1  10
ATOM     10  C   UNL     1      -0.952  -2.219  -0.015  0.00  0.00    +0.019 C 
BRANCH  10  12
ATOM     11  N   UNL     1      -0.002   0.053  -0.246  0.00  0.00    -0.287 N 
ATOM     12  C   UNL     1      -1.074  -0.718   0.025  0.00  0.00    +0.201 C 
ATOM     13  O   UNL     1      -2.137  -0.203   0.300  0.00  0.00    -0.278 OA
ATOM     14  H   UNL     1       0.940  -0.411  -0.575  0.00  0.00    +0.155 HD
BRANCH  11  21
ATOM     15  C   UNL     1      -2.021   1.426  -1.707  0.00  0.00    +0.045 C 
ATOM     16  C   UNL     1      -1.058   2.152  -0.804  0.00  0.00    -0.029 A 
ATOM     17  C   UNL     1      -1.143   3.523  -0.662  0.00  0.00    +0.005 A 
ATOM     18  C   UNL     1      -0.255   4.191   0.161  0.00  0.00    +0.001 A 
ATOM     19  C   UNL     1       0.717   3.489   0.850  0.00  0.00    +0.005 A 
ATOM     20  C   UNL     1       0.803   2.116   0.717  0.00  0.00    -0.029 A 
ATOM     21  C   UNL     1      -0.087   1.443  -0.110  0.00  0.00    +0.039 A 
ATOM     22  C   UNL     1       1.862   1.351   1.468  0.00  0.00    +0.045 C 
ENDBRANCH  11  21
ENDBRANCH  10  12
ENDBRANCH   1  10
BRANCH   7  23
ATOM     23  C   UNL     1      -5.147  -4.936   3.775  0.00  0.00    +0.174 C 
BRANCH  23  24
ATOM     24  S   UNL     1      -5.767  -6.383   4.667  0.00  0.00    -0.056 S 
BRANCH  24  25
ATOM     25  C   UNL     1      -6.269  -5.622   6.175  0.00  0.00    +0.278 A 
ATOM     26  N   UNL     1      -6.170  -4.346   6.471  0.00  0.00    -0.101 NA
ATOM     27  N   UNL     1      -6.636  -4.144   7.653  0.00  0.00    -0.106 NA
ATOM     28  C   UNL     1      -7.043  -5.282   8.162  0.00  0.00    +0.249 A 
ATOM     29  O   UNL     1      -6.819  -6.241   7.236  0.00  0.00    -0.411 OA
BRANCH  28  30
ATOM     30  C   UNL     1      -7.638  -5.479   9.499  0.00  0.00    +0.039 A 
ATOM     31  C   UNL     1      -8.034  -6.754   9.910  0.00  0.00    +0.016 A 
ATOM     32  C   UNL     1      -8.583  -6.932  11.162  0.00  0.00    -0.049 A 
ATOM     33  C   UNL     1      -8.753  -5.849  12.007  0.00  0.00    +0.006 A 
ATOM     34  C   UNL     1      -8.367  -4.583  11.605  0.00  0.00    -0.049 A 
ATOM     35  C   UNL     1      -7.811  -4.391  10.357  0.00  0.00    +0.016 A 
ATOM     36  C   UNL     1      -8.556  -3.410  12.532  0.00  0.00    +0.044 C 
ATOM     37  C   UNL     1      -9.006  -8.308  11.609  0.00  0.00    +0.044 C 
ENDBRANCH  28  30
ENDBRANCH  24  25
ENDBRANCH  23  24
ENDBRANCH   7  23
TORSDOF 7
