REMARK  Name = ZINC23339615
REMARK  11 active torsions:
REMARK  status: ('A' for Active; 'I' for Inactive)
REMARK    1  A    between atoms: C_1  and  C_2
REMARK    2  A    between atoms: C_2  and  C_3
REMARK    3  A    between atoms: C_3  and  N_4
REMARK    4  A    between atoms: C_7  and  N_10
REMARK    5  A    between atoms: C_12  and  N_23
REMARK    6  A    between atoms: C_15  and  C_17
REMARK    7  A    between atoms: N_19  and  C_20
REMARK    8  A    between atoms: C_20  and  C_21
REMARK    9  A    between atoms: C_20  and  C_22
REMARK   10  A    between atoms: N_23  and  C_24
REMARK   11  A    between atoms: C_24  and  C_25
REMARK                            x       y       z     vdW  Elec       q    Type
REMARK                         _______ _______ _______ _____ _____    ______ ____
ROOT
ATOM      1  N   UNL     1      -2.018  -6.069   0.950  0.00  0.00    -0.290 NA
ATOM      2  C   UNL     1      -1.303  -6.459  -0.279  0.00  0.00    +0.070 C 
ATOM      3  C   UNL     1      -2.245  -7.379  -1.084  0.00  0.00    -0.055 C 
ATOM      4  C   UNL     1      -3.218  -7.915  -0.001  0.00  0.00    +0.014 C 
ATOM      5  C   UNL     1      -3.361  -6.685   0.928  0.00  0.00    +0.142 C 
ENDROOT
BRANCH   1   9
ATOM      6  N   UNL     1      -1.413  -2.002   0.005  0.00  0.00    +0.380 N 
ATOM      7  C   UNL     1      -0.802  -2.489   1.247  0.00  0.00    -0.077 C 
ATOM      8  C   UNL     1      -0.705  -4.016   1.209  0.00  0.00    +0.000 C 
ATOM      9  C   UNL     1      -2.110  -4.607   1.064  0.00  0.00    +0.054 C 
ATOM     10  C   UNL     1      -2.766  -4.036  -0.196  0.00  0.00    +0.000 C 
ATOM     11  C   UNL     1      -2.787  -2.508  -0.105  0.00  0.00    -0.077 C 
ATOM     12  H   UNL     1      -0.873  -2.326  -0.783  0.00  0.00    -0.082 HD
BRANCH   6  13
ATOM     13  C   UNL     1      -1.433  -0.534   0.013  0.00  0.00    -0.079 C 
BRANCH  13  15
ATOM     14  C   UNL     1      -0.019   1.526   0.010  0.00  0.00    +0.002 C 
ATOM     15  C   UNL     1       0.002  -0.004   0.002  0.00  0.00    -0.022 C 
ENDBRANCH  13  15
ENDBRANCH   6  13
ENDBRANCH   1   9
BRANCH   5  16
ATOM     16  C   UNL     1      -3.763  -7.118   2.315  0.00  0.00    +0.230 C 
ATOM     17  O   UNL     1      -3.009  -6.938   3.248  0.00  0.00    -0.274 OA
ATOM     18  N   UNL     1      -4.958  -7.706   2.518  0.00  0.00    -0.312 N 
ATOM     19  H   UNL     1      -5.561  -7.849   1.771  0.00  0.00    +0.149 HD
BRANCH  18  20
ATOM     20  C   UNL     1      -5.348  -8.127   3.865  0.00  0.00    +0.067 C 
ATOM     21  C   UNL     1      -5.968  -6.943   4.611  0.00  0.00    +0.027 C 
ATOM     22  C   UNL     1      -6.371  -9.261   3.769  0.00  0.00    +0.027 C 
ENDBRANCH  18  20
ENDBRANCH   5  16
BRANCH   3  23
ATOM     23  N   UNL     1      -1.493  -8.479  -1.703  0.00  0.00    +0.384 N 
ATOM     24  H   UNL     1      -0.957  -8.959  -0.997  0.00  0.00    -0.085 HD
ATOM     25  H   UNL     1      -2.137  -9.125  -2.134  0.00  0.00    -0.085 HD
BRANCH  23  26
ATOM     26  C   UNL     1      -0.586  -7.938  -2.724  0.00  0.00    -0.046 C 
BRANCH  26  27
ATOM     27  C   UNL     1       0.185  -9.066  -3.359  0.00  0.00    -0.062 A 
ATOM     28  C   UNL     1       1.394  -9.466  -2.820  0.00  0.00    +0.005 A 
ATOM     29  C   UNL     1       2.103 -10.501  -3.401  0.00  0.00    +0.041 A 
ATOM     30  C   UNL     1       1.603 -11.138  -4.523  0.00  0.00    +0.158 A 
ATOM     31  C   UNL     1       0.391 -10.737  -5.064  0.00  0.00    +0.159 A 
ATOM     32  C   UNL     1      -0.319  -9.704  -4.477  0.00  0.00    +0.043 A 
ATOM     33  F   UNL     1      -0.099 -11.357  -6.160  0.00  0.00    -0.202 F 
ATOM     34  F   UNL     1       2.295 -12.149  -5.092  0.00  0.00    -0.202 F 
ENDBRANCH  26  27
ENDBRANCH  23  26
ENDBRANCH   3  23
TORSDOF 8
