REMARK  Name = ZINC43036733
REMARK  11 active torsions:
REMARK  status: ('A' for Active; 'I' for Inactive)
REMARK    1  A    between atoms: C_1  and  C_2
REMARK    2  A    between atoms: C_2  and  C_3
REMARK    3  A    between atoms: N_5  and  C_6
REMARK    4  A    between atoms: C_9  and  C_12
REMARK    5  A    between atoms: C_12  and  C_14
REMARK    6  A    between atoms: C_12  and  N_15
REMARK    7  A    between atoms: N_18  and  C_19
REMARK    8  A    between atoms: C_19  and  C_20
REMARK    9  A    between atoms: C_20  and  C_21
REMARK   10  A    between atoms: C_21  and  N_22
REMARK   11  A    between atoms: N_22  and  C_23
REMARK                            x       y       z     vdW  Elec       q    Type
REMARK                         _______ _______ _______ _____ _____    ______ ____
ROOT
ATOM      1  N   UNL     1      -7.226  -4.741   0.583  0.00  0.00    -0.293 N 
ATOM      2  C   UNL     1      -8.454  -5.011   1.067  0.00  0.00    +0.300 C 
ATOM      3  O   UNL     1      -9.398  -4.309   0.758  0.00  0.00    -0.253 OA
ATOM      4  N   UNL     1      -8.637  -6.059   1.895  0.00  0.00    -0.299 N 
ATOM      5  H   UNL     1      -6.474  -5.301   0.829  0.00  0.00    +0.151 HD
ATOM      6  H   UNL     1      -7.885  -6.620   2.141  0.00  0.00    +0.150 HD
ENDROOT
BRANCH   1   7
ATOM      7  C   UNL     1      -7.027  -3.602  -0.316  0.00  0.00    +0.102 C 
ATOM      8  C   UNL     1      -7.341  -4.025  -1.753  0.00  0.00    +0.033 C 
BRANCH   7  12
ATOM      9  C   UNL     1      -2.969  -2.285  -0.072  0.00  0.00    +0.033 A 
ATOM     10  C   UNL     1      -3.998  -1.356  -0.159  0.00  0.00    +0.023 A 
ATOM     11  C   UNL     1      -5.308  -1.785  -0.237  0.00  0.00    +0.007 A 
ATOM     12  C   UNL     1      -5.596  -3.137  -0.230  0.00  0.00    -0.027 A 
ATOM     13  C   UNL     1      -4.574  -4.065  -0.144  0.00  0.00    +0.007 A 
ATOM     14  C   UNL     1      -3.261  -3.643  -0.071  0.00  0.00    +0.023 A 
BRANCH   9  17
ATOM     15  C   UNL     1      -0.664  -2.565  -0.591  0.00  0.00    +0.217 C 
ATOM     16  O   UNL     1      -0.924  -3.621  -1.126  0.00  0.00    -0.275 OA
ATOM     17  N   UNL     1      -1.640  -1.854   0.008  0.00  0.00    -0.286 N 
ATOM     18  H   UNL     1      -1.421  -1.043   0.494  0.00  0.00    +0.155 HD
BRANCH  15  20
ATOM     19  C   UNL     1       1.655  -3.037  -1.332  0.00  0.00    +0.013 C 
ATOM     20  C   UNL     1       0.751  -2.047  -0.594  0.00  0.00    +0.093 C 
ENDBRANCH  15  20
ENDBRANCH   9  17
ENDBRANCH   7  12
ENDBRANCH   1   7
BRANCH   4  21
ATOM     21  C   UNL     1      -9.973  -6.353   2.421  0.00  0.00    +0.104 C 
BRANCH  21  22
ATOM     22  C   UNL     1      -9.904  -7.583   3.327  0.00  0.00    -0.000 C 
BRANCH  22  23
ATOM     23  C   UNL     1     -11.299  -7.890   3.877  0.00  0.00    -0.081 C 
BRANCH  23  24
ATOM     24  N   UNL     1     -11.233  -9.072   4.747  0.00  0.00    +0.381 N 
ATOM     25  H   UNL     1     -10.900  -9.862   4.216  0.00  0.00    -0.086 HD
ATOM     26  H   UNL     1     -10.601  -8.891   5.513  0.00  0.00    -0.086 HD
BRANCH  24  27
ATOM     27  C   UNL     1     -12.572  -9.366   5.276  0.00  0.00    -0.072 C 
ATOM     28  C   UNL     1     -13.025  -8.220   6.183  0.00  0.00    -0.016 C 
ATOM     29  C   UNL     1     -14.420  -8.527   6.733  0.00  0.00    -0.002 C 
ATOM     30  C   UNL     1     -14.376  -9.827   7.537  0.00  0.00    -0.000 C 
ATOM     31  C   UNL     1     -13.923 -10.973   6.630  0.00  0.00    -0.002 C 
ATOM     32  C   UNL     1     -12.528 -10.667   6.080  0.00  0.00    -0.016 C 
ENDBRANCH  24  27
ENDBRANCH  23  24
ENDBRANCH  22  23
ENDBRANCH  21  22
ENDBRANCH   4  21
TORSDOF 9
