REMARK  Name = ZINC40853308
REMARK  8 active torsions:
REMARK  status: ('A' for Active; 'I' for Inactive)
REMARK    1  A    between atoms: C_1  and  C_2
REMARK    2  A    between atoms: C_2  and  C_3
REMARK    3  A    between atoms: C_2  and  C_4
REMARK    4  A    between atoms: C_4  and  C_5
REMARK    5  A    between atoms: C_5  and  C_7
REMARK    6  A    between atoms: C_5  and  N_22
REMARK    7  A    between atoms: N_9  and  C_10
REMARK    8  A    between atoms: C_11  and  C_20
REMARK                            x       y       z     vdW  Elec       q    Type
REMARK                         _______ _______ _______ _____ _____    ______ ____
ROOT
ATOM      1  C   UNL     1      -2.826  -2.559  -0.234  0.00  0.00    +0.203 C 
ATOM      2  O   UNL     1      -3.498  -2.940   0.701  0.00  0.00    -0.277 OA
ATOM      3  N   UNL     1      -3.329  -2.592  -1.484  0.00  0.00    -0.280 N 
ATOM      4  H   UNL     1      -2.791  -2.287  -2.231  0.00  0.00    +0.155 HD
ENDROOT
BRANCH   3   5
ATOM      5  C   UNL     1      -4.617  -3.063  -1.701  0.00  0.00    +0.090 A 
ATOM      6  C   UNL     1      -5.290  -3.174  -2.905  0.00  0.00    +0.084 A 
ATOM      7  C   UNL     1      -6.646  -3.703  -2.868  0.00  0.00    -0.018 A 
ATOM      8  C   UNL     1      -7.077  -4.016  -1.628  0.00  0.00    -0.004 A 
ATOM      9  S   UNL     1      -5.712  -3.635  -0.566  0.00  0.00    -0.077 S 
ATOM     10  C   UNL     1      -8.415  -4.560  -1.236  0.00  0.00    +0.043 C 
ATOM     11  C   UNL     1      -8.764  -5.745  -2.146  0.00  0.00    +0.005 C 
ATOM     12  C   UNL     1      -9.497  -5.217  -3.374  0.00  0.00    +0.001 C 
ATOM     13  C   UNL     1      -8.976  -3.831  -3.745  0.00  0.00    +0.005 C 
ATOM     14  C   UNL     1      -7.497  -3.898  -4.114  0.00  0.00    +0.037 C 
BRANCH   6  15
ATOM     15  C   UNL     1      -4.676  -2.784  -4.139  0.00  0.00    +0.102 C 
ATOM     16  N   UNL     1      -4.190  -2.475  -5.117  0.00  0.00    -0.191 NA
ENDBRANCH   6  15
ENDBRANCH   3   5
BRANCH   1  17
ATOM     17  C   UNL     1      -1.428  -2.048   0.003  0.00  0.00    +0.013 C 
BRANCH  17  18
ATOM     18  N   UNL     1      -0.940  -2.538   1.299  0.00  0.00    +0.386 N 
ATOM     19  H   UNL     1      -1.014  -3.544   1.327  0.00  0.00    -0.089 HD
ATOM     20  H   UNL     1       0.025  -2.268   1.419  0.00  0.00    -0.089 HD
ATOM     21  H   UNL     1      -1.496  -2.138   2.040  0.00  0.00    -0.089 HD
ENDBRANCH  17  18
BRANCH  17  22
ATOM     22  C   UNL     1      -1.439  -0.518   0.007  0.00  0.00    -0.004 C 
BRANCH  22  24
ATOM     23  C   UNL     1       0.784  -0.381  -1.125  0.00  0.00    +0.007 C 
ATOM     24  C   UNL     1      -0.005   0.002   0.129  0.00  0.00    -0.018 C 
ATOM     25  C   UNL     1      -0.025   1.525   0.274  0.00  0.00    +0.007 C 
ENDBRANCH  22  24
ENDBRANCH  17  22
ENDBRANCH   1  17
TORSDOF 6
