REMARK  Name = ZINC49073913
REMARK  8 active torsions:
REMARK  status: ('A' for Active; 'I' for Inactive)
REMARK    1  A    between atoms: C_1  and  C_2
REMARK    2  A    between atoms: C_2  and  C_4
REMARK    3  A    between atoms: C_2  and  N_10
REMARK    4  A    between atoms: C_4  and  N_5
REMARK    5  A    between atoms: N_13  and  C_14
REMARK    6  A    between atoms: C_14  and  C_15
REMARK    7  A    between atoms: C_15  and  C_17
REMARK    8  A    between atoms: C_15  and  N_25
REMARK                            x       y       z     vdW  Elec       q    Type
REMARK                         _______ _______ _______ _____ _____    ______ ____
ROOT
ATOM      1  C   UNL     1      -0.107  -1.182  -4.728  0.00  0.00    +0.095 C 
ENDROOT
BRANCH   1   5
ATOM      2  N   UNL     1      -3.280  -2.679  -3.631  0.00  0.00    -0.295 N 
ATOM      3  C   UNL     1      -2.227  -1.844  -3.727  0.00  0.00    +0.300 C 
ATOM      4  O   UNL     1      -2.156  -0.870  -3.003  0.00  0.00    -0.253 OA
ATOM      5  N   UNL     1      -1.252  -2.090  -4.624  0.00  0.00    -0.301 N 
ATOM      6  H   UNL     1      -3.337  -3.457  -4.208  0.00  0.00    +0.151 HD
ATOM      7  H   UNL     1      -1.308  -2.867  -5.202  0.00  0.00    +0.150 HD
BRANCH   2   9
ATOM      8  C   UNL     1      -3.942  -2.996  -1.298  0.00  0.00    +0.029 C 
ATOM      9  C   UNL     1      -4.340  -2.413  -2.655  0.00  0.00    +0.091 C 
BRANCH   9  10
ATOM     10  C   UNL     1      -5.643  -3.062  -3.127  0.00  0.00    +0.144 C 
BRANCH  10  11
ATOM     11  N   UNL     1      -6.087  -2.421  -4.367  0.00  0.00    -0.337 N 
ATOM     12  C   UNL     1      -6.907  -1.329  -4.468  0.00  0.00    +0.104 A 
ATOM     13  C   UNL     1      -7.056  -1.075  -5.782  0.00  0.00    +0.101 A 
ATOM     14  N   UNL     1      -6.348  -1.987  -6.464  0.00  0.00    -0.352 N 
ATOM     15  C   UNL     1      -5.761  -2.793  -5.623  0.00  0.00    +0.173 A 
ATOM     16  H   UNL     1      -6.280  -2.037  -7.431  0.00  0.00    +0.166 HD
ENDBRANCH  10  11
ENDBRANCH   9  10
ENDBRANCH   2   9
ENDBRANCH   1   5
BRANCH   1  17
ATOM     17  C   UNL     1       0.905  -1.749  -5.726  0.00  0.00    -0.016 C 
BRANCH  17  18
ATOM     18  C   UNL     1       0.296  -1.765  -7.105  0.00  0.00    -0.006 A 
ATOM     19  C   UNL     1       0.167  -0.586  -7.819  0.00  0.00    +0.126 A 
ATOM     20  C   UNL     1      -0.392  -0.602  -9.085  0.00  0.00    +0.038 A 
ATOM     21  C   UNL     1      -0.822  -1.794  -9.636  0.00  0.00    +0.004 A 
ATOM     22  C   UNL     1      -0.694  -2.971  -8.923  0.00  0.00    +0.020 A 
ATOM     23  C   UNL     1      -0.130  -2.958  -7.659  0.00  0.00    +0.045 A 
ATOM     24 CL   UNL     1       0.037  -4.438  -6.768  0.00  0.00    -0.083 Cl
ATOM     25  F   UNL     1       0.588   0.580  -7.280  0.00  0.00    -0.205 F 
ENDBRANCH  17  18
BRANCH  17  26
ATOM     26  N   UNL     1       2.110  -0.909  -5.733  0.00  0.00    +0.385 N 
ATOM     27  C   UNL     1       2.841  -1.052  -4.448  0.00  0.00    -0.078 C 
ATOM     28  C   UNL     1       4.280  -0.606  -4.807  0.00  0.00    -0.020 C 
ATOM     29  C   UNL     1       4.471  -1.171  -6.233  0.00  0.00    -0.020 C 
ATOM     30  C   UNL     1       3.046  -1.368  -6.782  0.00  0.00    -0.078 C 
ATOM     31  H   UNL     1       1.861   0.056  -5.888  0.00  0.00    -0.081 HD
ENDBRANCH  17  26
ENDBRANCH   1  17
TORSDOF 7
