REMARK  Name = ZINC57663009
REMARK  12 active torsions:
REMARK  status: ('A' for Active; 'I' for Inactive)
REMARK    1  A    between atoms: C_1  and  C_2
REMARK    2  A    between atoms: C_2  and  C_3
REMARK    3  A    between atoms: C_3  and  O_4
REMARK    4  A    between atoms: O_4  and  C_5
REMARK    5  A    between atoms: C_8  and  C_12
REMARK    6  A    between atoms: C_10  and  N_11
REMARK    7  A    between atoms: C_12  and  C_14
REMARK    8  A    between atoms: C_12  and  O_24
REMARK    9  A    between atoms: C_14  and  C_15
REMARK   10  A    between atoms: C_15  and  N_16
REMARK   11  A    between atoms: N_16  and  C_17
REMARK   12  A    between atoms: N_16  and  C_18
REMARK                            x       y       z     vdW  Elec       q    Type
REMARK                         _______ _______ _______ _____ _____    ______ ____
ROOT
ATOM      1  C   UNL     1       3.352  -4.482   5.548  0.00  0.00    +0.143 C 
ENDROOT
BRANCH   1   5
ATOM      2  C   UNL     1       1.386  -2.555   2.274  0.00  0.00    +0.141 A 
ATOM      3  C   UNL     1       1.961  -1.800   3.282  0.00  0.00    +0.048 A 
ATOM      4  C   UNL     1       2.596  -2.426   4.339  0.00  0.00    +0.010 A 
ATOM      5  C   UNL     1       2.658  -3.806   4.394  0.00  0.00    -0.017 A 
ATOM      6  C   UNL     1       2.086  -4.567   3.391  0.00  0.00    +0.032 A 
ATOM      7  C   UNL     1       1.443  -3.945   2.331  0.00  0.00    +0.067 A 
BRANCH   7   8
ATOM      8  N   UNL     1       0.857  -4.714   1.318  0.00  0.00    -0.355 N 
ATOM      9  H   UNL     1       0.411  -4.278   0.575  0.00  0.00    +0.142 HD
ATOM     10  H   UNL     1       0.897  -5.682   1.359  0.00  0.00    +0.142 HD
ENDBRANCH   7   8
BRANCH   2  11
ATOM     11  O   UNL     1       0.761  -1.940   1.234  0.00  0.00    -0.490 OA
BRANCH  11  12
ATOM     12  C   UNL     1       0.742  -0.511   1.242  0.00  0.00    +0.229 C 
BRANCH  12  14
ATOM     13  C   UNL     1      -0.019   1.526   0.010  0.00  0.00    +0.007 C 
ATOM     14  C   UNL     1       0.002  -0.004   0.002  0.00  0.00    +0.038 C 
ENDBRANCH  12  14
ENDBRANCH  11  12
ENDBRANCH   2  11
ENDBRANCH   1   5
BRANCH   1  15
ATOM     15  O   UNL     1       4.472  -3.696   5.957  0.00  0.00    -0.387 OA
ATOM     16  H   UNL     1       4.241  -2.803   6.247  0.00  0.00    +0.210 HD
ENDBRANCH   1  15
BRANCH   1  17
ATOM     17  C   UNL     1       2.375  -4.626   6.716  0.00  0.00    +0.017 C 
BRANCH  17  18
ATOM     18  C   UNL     1       3.039  -5.423   7.841  0.00  0.00    -0.076 C 
BRANCH  18  19
ATOM     19  N   UNL     1       2.101  -5.560   8.964  0.00  0.00    +0.380 N 
ATOM     20  C   UNL     1       1.825  -4.236   9.536  0.00  0.00    -0.096 C 
ATOM     21  H   UNL     1       1.240  -5.971   8.634  0.00  0.00    -0.082 HD
BRANCH  19  22
ATOM     22  C   UNL     1       2.693  -6.425   9.993  0.00  0.00    -0.069 C 
ATOM     23  C   UNL     1       2.982  -7.804   9.397  0.00  0.00    -0.015 C 
ATOM     24  C   UNL     1       3.598  -8.705  10.469  0.00  0.00    -0.002 C 
ATOM     25  C   UNL     1       2.621  -8.848  11.638  0.00  0.00    -0.000 C 
ATOM     26  C   UNL     1       2.333  -7.469  12.234  0.00  0.00    -0.002 C 
ATOM     27  C   UNL     1       1.717  -6.568  11.162  0.00  0.00    -0.015 C 
ENDBRANCH  19  22
ENDBRANCH  18  19
ENDBRANCH  17  18
ENDBRANCH   1  17
TORSDOF 10
