REMARK  Name = ZINC39226380
REMARK  7 active torsions:
REMARK  status: ('A' for Active; 'I' for Inactive)
REMARK    1  A    between atoms: C_1  and  C_2
REMARK    2  A    between atoms: C_2  and  C_4
REMARK    3  A    between atoms: C_2  and  N_10
REMARK    4  A    between atoms: C_11  and  C_13
REMARK    5  A    between atoms: C_17  and  C_19
REMARK    6  A    between atoms: C_25  and  O_36
REMARK    7  A    between atoms: N_32  and  C_35
REMARK                            x       y       z     vdW  Elec       q    Type
REMARK                         _______ _______ _______ _____ _____    ______ ____
ROOT
ATOM      1  C   UNL     1       0.046  -1.909   7.169  0.00  0.00    -0.017 A 
ATOM      2  C   UNL     1      -1.312  -1.610   7.256  0.00  0.00    +0.012 A 
ATOM      3  C   UNL     1      -1.972  -1.767   8.454  0.00  0.00    +0.046 A 
ATOM      4  C   UNL     1      -1.291  -2.224   9.579  0.00  0.00    +0.127 A 
ATOM      5  C   UNL     1       0.058  -2.525   9.494  0.00  0.00    +0.023 A 
ATOM      6  C   UNL     1       0.725  -2.371   8.292  0.00  0.00    +0.018 A 
ATOM      7  C   UNL     1       0.826  -3.036  10.687  0.00  0.00    +0.152 C 
ATOM      8  C   UNL     1       0.055  -2.722  11.971  0.00  0.00    +0.084 C 
ATOM      9  C   UNL     1      -1.403  -3.152  11.776  0.00  0.00    +0.110 C 
ATOM     10  O   UNL     1      -1.981  -2.357  10.742  0.00  0.00    -0.485 OA
ATOM     11  C   UNL     1      -1.454  -4.630  11.383  0.00  0.00    +0.029 C 
ATOM     12  C   UNL     1      -2.915  -5.073  11.271  0.00  0.00    -0.075 C 
ATOM     13  N   UNL     1      -3.589  -4.880  12.561  0.00  0.00    +0.378 N 
ATOM     14  C   UNL     1      -3.609  -3.453  12.904  0.00  0.00    -0.075 C 
ATOM     15  C   UNL     1      -2.175  -2.947  13.081  0.00  0.00    +0.029 C 
ATOM     16  C   UNL     1      -4.967  -5.379  12.471  0.00  0.00    -0.096 C 
ATOM     17  H   UNL     1      -3.095  -5.390  13.277  0.00  0.00    -0.082 HD
ENDROOT
BRANCH   1  22
ATOM     18  C   UNL     1       0.766  -1.123   3.553  0.00  0.00    +0.037 A 
ATOM     19  C   UNL     1       2.127  -1.432   3.479  0.00  0.00    +0.013 A 
ATOM     20  C   UNL     1       2.794  -1.889   4.597  0.00  0.00    +0.001 A 
ATOM     21  C   UNL     1       2.123  -2.044   5.795  0.00  0.00    +0.008 A 
ATOM     22  C   UNL     1       0.765  -1.740   5.881  0.00  0.00    -0.017 A 
ATOM     23  C   UNL     1       0.086  -1.273   4.761  0.00  0.00    +0.021 A 
BRANCH  18  25
ATOM     24  N   UNL     1       0.711  -0.489   1.189  0.00  0.00    -0.305 N 
ATOM     25  C   UNL     1       0.051  -0.633   2.355  0.00  0.00    +0.245 C 
ATOM     26  O   UNL     1      -1.131  -0.361   2.423  0.00  0.00    -0.270 OA
ATOM     27  H   UNL     1       1.654  -0.707   1.135  0.00  0.00    +0.150 HD
BRANCH  24  29
ATOM     28  C   UNL     1      -0.019   1.526   0.010  0.00  0.00    +0.033 C 
ATOM     29  C   UNL     1       0.002  -0.004   0.002  0.00  0.00    +0.100 C 
BRANCH  29  30
ATOM     30  C   UNL     1       0.707  -0.490  -1.238  0.00  0.00    -0.027 A 
ATOM     31  C   UNL     1       2.089  -0.511  -1.284  0.00  0.00    +0.005 A 
ATOM     32  C   UNL     1       2.736  -0.957  -2.421  0.00  0.00    +0.000 A 
ATOM     33  C   UNL     1       2.002  -1.382  -3.512  0.00  0.00    +0.000 A 
ATOM     34  C   UNL     1       0.620  -1.362  -3.466  0.00  0.00    +0.000 A 
ATOM     35  C   UNL     1      -0.027  -0.920  -2.327  0.00  0.00    +0.005 A 
ENDBRANCH  29  30
ENDBRANCH  24  29
ENDBRANCH  18  25
ENDBRANCH   1  22
BRANCH   7  36
ATOM     36  O   UNL     1       2.106  -2.401  10.735  0.00  0.00    -0.387 OA
ATOM     37  H   UNL     1       2.653  -2.559   9.954  0.00  0.00    +0.210 HD
ENDBRANCH   7  36
TORSDOF 5
