REMARK  Name = ZINC39530644
REMARK  9 active torsions:
REMARK  status: ('A' for Active; 'I' for Inactive)
REMARK    1  A    between atoms: C_1  and  C_2
REMARK    2  A    between atoms: C_2  and  C_3
REMARK    3  A    between atoms: C_2  and  S_4
REMARK    4  A    between atoms: S_4  and  C_7
REMARK    5  A    between atoms: C_9  and  C_27
REMARK    6  A    between atoms: C_12  and  N_13
REMARK    7  A    between atoms: C_17  and  C_20
REMARK    8  A    between atoms: C_20  and  C_21
REMARK    9  A    between atoms: C_27  and  C_28
REMARK                            x       y       z     vdW  Elec       q    Type
REMARK                         _______ _______ _______ _____ _____    ______ ____
ROOT
ATOM      1  C   UNL     1      -1.560  -2.389  -0.011  0.00  0.00    +0.110 A 
ATOM      2  C   UNL     1      -2.086  -3.139   1.023  0.00  0.00    +0.032 A 
ATOM      3  C   UNL     1      -1.932  -4.513   1.030  0.00  0.00    -0.041 A 
ATOM      4  C   UNL     1      -1.252  -5.141   0.002  0.00  0.00    +0.006 A 
ATOM      5  C   UNL     1      -0.724  -4.397  -1.034  0.00  0.00    +0.025 A 
ATOM      6  C   UNL     1      -0.882  -3.017  -1.047  0.00  0.00    +0.055 A 
ENDROOT
BRANCH   6   7
ATOM      7  N   UNL     1      -0.354  -2.261  -2.097  0.00  0.00    -0.332 N 
ATOM      8  C   UNL     1      -1.194  -1.859  -3.236  0.00  0.00    +0.086 C 
ATOM      9  C   UNL     1      -0.468  -2.236  -4.532  0.00  0.00    -0.063 C 
ATOM     10  N   UNL     1       0.875  -1.643  -4.529  0.00  0.00    +0.383 N 
ATOM     11  C   UNL     1       1.677  -2.224  -3.445  0.00  0.00    -0.050 C 
ATOM     12  C   UNL     1       1.056  -1.841  -2.092  0.00  0.00    +0.089 C 
ATOM     13  H   UNL     1       1.325  -1.827  -5.414  0.00  0.00    -0.085 HD
ATOM     14  H   UNL     1       0.801  -0.646  -4.394  0.00  0.00    -0.085 HD
BRANCH  11  15
ATOM     15  C   UNL     1       3.106  -1.682  -3.519  0.00  0.00    +0.021 C 
BRANCH  15  16
ATOM     16  C   UNL     1       3.756  -2.156  -4.793  0.00  0.00    -0.049 A 
ATOM     17  C   UNL     1       4.449  -3.352  -4.812  0.00  0.00    +0.003 A 
ATOM     18  C   UNL     1       5.046  -3.787  -5.981  0.00  0.00    +0.000 A 
ATOM     19  C   UNL     1       4.949  -3.026  -7.131  0.00  0.00    +0.000 A 
ATOM     20  C   UNL     1       4.256  -1.831  -7.112  0.00  0.00    +0.000 A 
ATOM     21  C   UNL     1       3.655  -1.398  -5.945  0.00  0.00    +0.003 A 
ENDBRANCH  15  16
ENDBRANCH  11  15
ENDBRANCH   6   7
BRANCH   1  22
ATOM     22  S   UNL     1      -1.756  -0.638  -0.018  0.00  0.00    +0.001 S 
ATOM     23  O   UNL     1      -2.611  -0.364   1.084  0.00  0.00    -0.169 OA
ATOM     24  O   UNL     1      -2.161  -0.324  -1.343  0.00  0.00    -0.169 OA
BRANCH  22  26
ATOM     25  C   UNL     1      -0.133   1.548   0.250  0.00  0.00    +0.032 C 
ATOM     26  C   UNL     1      -0.096   0.019   0.301  0.00  0.00    +0.130 C 
ATOM     27  C   UNL     1       0.375  -0.434   1.685  0.00  0.00    +0.032 C 
ENDBRANCH  22  26
ENDBRANCH   1  22
BRANCH   3  28
ATOM     28  C   UNL     1      -2.506  -5.328   2.160  0.00  0.00    +0.070 C 
BRANCH  28  29
ATOM     29  C   UNL     1      -3.914  -5.740   1.817  0.00  0.00    -0.043 A 
ATOM     30  C   UNL     1      -4.976  -4.926   2.165  0.00  0.00    +0.004 A 
ATOM     31  C   UNL     1      -6.269  -5.304   1.851  0.00  0.00    +0.000 A 
ATOM     32  C   UNL     1      -6.499  -6.495   1.188  0.00  0.00    +0.000 A 
ATOM     33  C   UNL     1      -5.437  -7.309   0.840  0.00  0.00    +0.000 A 
ATOM     34  C   UNL     1      -4.144  -6.929   1.150  0.00  0.00    +0.004 A 
ENDBRANCH  28  29
ENDBRANCH   3  28
TORSDOF 7
