REMARK  Name = ZINC37984842
REMARK  13 active torsions:
REMARK  status: ('A' for Active; 'I' for Inactive)
REMARK    1  A    between atoms: C_1  and  C_2
REMARK    2  A    between atoms: C_2  and  C_4
REMARK    3  A    between atoms: C_2  and  O_8
REMARK    4  A    between atoms: C_4  and  C_5
REMARK    5  A    between atoms: C_5  and  C_6
REMARK    6  A    between atoms: C_5  and  C_7
REMARK    7  A    between atoms: O_8  and  C_9
REMARK    8  A    between atoms: C_9  and  C_10
REMARK    9  A    between atoms: C_10  and  C_12
REMARK   10  A    between atoms: C_10  and  O_21
REMARK   11  A    between atoms: C_12  and  N_13
REMARK   12  A    between atoms: N_13  and  C_14
REMARK   13  A    between atoms: C_14  and  C_15
REMARK                            x       y       z     vdW  Elec       q    Type
REMARK                         _______ _______ _______ _____ _____    ______ ____
ROOT
ATOM      1  C   UNL     1      -3.326  -1.221  -1.157  0.00  0.00    +0.123 C 
ENDROOT
BRANCH   1   2
ATOM      2  O   UNL     1      -3.301  -2.519  -0.559  0.00  0.00    -0.391 OA
ATOM      3  H   UNL     1      -2.800  -3.175  -1.063  0.00  0.00    +0.210 HD
ENDBRANCH   1   2
BRANCH   1   4
ATOM      4  C   UNL     1      -1.896  -0.693  -1.289  0.00  0.00    +0.189 C 
BRANCH   4   5
ATOM      5  O   UNL     1      -1.339  -0.499   0.012  0.00  0.00    -0.374 OA
BRANCH   5   7
ATOM      6  C   UNL     1      -0.019   1.526   0.010  0.00  0.00    +0.038 C 
ATOM      7  C   UNL     1       0.002  -0.004   0.002  0.00  0.00    +0.116 C 
BRANCH   7   8
ATOM      8  C   UNL     1       0.742  -0.511   1.242  0.00  0.00    +0.034 C 
BRANCH   8   9
ATOM      9  C   UNL     1       0.872  -2.034   1.171  0.00  0.00    -0.015 C 
ATOM     10  C   UNL     1       1.760  -2.415  -0.015  0.00  0.00    +0.007 C 
ATOM     11  C   UNL     1       1.500  -2.553   2.466  0.00  0.00    +0.007 C 
ENDBRANCH   8   9
ENDBRANCH   7   8
ENDBRANCH   5   7
ENDBRANCH   4   5
ENDBRANCH   1   4
BRANCH   1  12
ATOM     12  C   UNL     1      -3.966  -1.311  -2.544  0.00  0.00    -0.048 C 
BRANCH  12  13
ATOM     13  N   UNL     1      -5.375  -1.704  -2.409  0.00  0.00    +0.384 N 
ATOM     14  H   UNL     1      -5.432  -2.603  -1.953  0.00  0.00    -0.085 HD
ATOM     15  H   UNL     1      -5.864  -1.016  -1.856  0.00  0.00    -0.085 HD
BRANCH  13  16
ATOM     16  C   UNL     1      -5.990  -1.790  -3.740  0.00  0.00    -0.039 C 
BRANCH  16  17
ATOM     17  C   UNL     1      -7.436  -2.193  -3.601  0.00  0.00    -0.026 A 
ATOM     18  C   UNL     1      -8.531  -1.407  -3.465  0.00  0.00    +0.010 A 
ATOM     19  C   UNL     1      -9.774  -2.002  -3.353  0.00  0.00    +0.023 A 
ATOM     20  C   UNL     1      -9.859  -3.355  -3.381  0.00  0.00    +0.055 A 
ATOM     21  S   UNL     1      -8.149  -3.829  -3.579  0.00  0.00    -0.088 S 
ATOM     22 BR   UNL     1     -11.392  -4.455  -3.251  0.00  0.00    -0.043 Br
ENDBRANCH  16  17
ENDBRANCH  13  16
ENDBRANCH  12  13
ENDBRANCH   1  12
TORSDOF 10
