REMARK  Name = ZINC39659928
REMARK  7 active torsions:
REMARK  status: ('A' for Active; 'I' for Inactive)
REMARK    1  A    between atoms: C_1  and  C_2
REMARK    2  A    between atoms: C_2  and  C_3
REMARK    3  A    between atoms: C_3  and  C_5
REMARK    4  A    between atoms: C_3  and  C_6
REMARK    5  A    between atoms: C_6  and  C_7
REMARK    6  A    between atoms: C_11  and  C_20
REMARK    7  A    between atoms: N_22  and  C_23
REMARK                            x       y       z     vdW  Elec       q    Type
REMARK                         _______ _______ _______ _____ _____    ______ ____
ROOT
ATOM      1  C   UNL     1      -2.986  -2.586  -0.278  0.00  0.00    +0.216 C 
ATOM      2  O   UNL     1      -3.937  -1.836  -0.202  0.00  0.00    -0.276 OA
ATOM      3  N   UNL     1      -3.183  -3.916  -0.370  0.00  0.00    -0.300 N 
ATOM      4  C   UNL     1      -2.157  -4.981  -0.464  0.00  0.00    +0.121 C 
ATOM      5  C   UNL     1      -2.705  -6.129   0.413  0.00  0.00    +0.100 C 
ATOM      6  C   UNL     1      -4.226  -5.904   0.449  0.00  0.00    -0.004 C 
ATOM      7  C   UNL     1      -4.474  -4.644  -0.394  0.00  0.00    +0.115 C 
ATOM      8  C   UNL     1      -4.691  -5.671   1.883  0.00  0.00    -0.010 C 
ATOM      9  C   UNL     1      -6.214  -5.506   1.900  0.00  0.00    -0.082 C 
ATOM     10  N   UNL     1      -6.844  -6.712   1.349  0.00  0.00    +0.379 N 
ATOM     11  C   UNL     1      -6.464  -6.877  -0.059  0.00  0.00    -0.082 C 
ATOM     12  C   UNL     1      -4.952  -7.099  -0.159  0.00  0.00    -0.010 C 
ATOM     13  H   UNL     1      -6.542  -7.518   1.875  0.00  0.00    -0.086 HD
ATOM     14  H   UNL     1      -7.847  -6.626   1.417  0.00  0.00    -0.086 HD
ENDROOT
BRANCH   5  15
ATOM     15  C   UNL     1      -2.385  -7.464  -0.210  0.00  0.00    +0.218 C 
ATOM     16  O   UNL     1      -2.305  -7.566  -1.416  0.00  0.00    -0.275 OA
ATOM     17  N   UNL     1      -2.188  -8.543   0.573  0.00  0.00    -0.312 N 
ATOM     18  H   UNL     1      -2.252  -8.461   1.537  0.00  0.00    +0.149 HD
BRANCH  17  19
ATOM     19  C   UNL     1      -1.876  -9.840  -0.033  0.00  0.00    +0.073 C 
ATOM     20  C   UNL     1      -0.371  -9.934  -0.291  0.00  0.00    +0.022 C 
ATOM     21  C   UNL     1       0.013 -11.394  -0.541  0.00  0.00    +0.002 C 
ATOM     22  C   UNL     1      -0.418 -11.800  -1.952  0.00  0.00    +0.000 C 
ATOM     23  C   UNL     1      -1.931 -12.026  -1.978  0.00  0.00    +0.000 C 
ATOM     24  C   UNL     1      -2.349 -12.827  -0.744  0.00  0.00    +0.000 C 
ATOM     25  C   UNL     1      -3.204 -11.947   0.171  0.00  0.00    +0.002 C 
ATOM     26  C   UNL     1      -2.303 -10.961   0.917  0.00  0.00    +0.022 C 
ENDBRANCH  17  19
ENDBRANCH   5  15
BRANCH   1  27
ATOM     27  C   UNL     1      -1.586  -2.030  -0.269  0.00  0.00    +0.099 C 
BRANCH  27  28
ATOM     28  C   UNL     1      -1.643  -0.505  -0.157  0.00  0.00    -0.006 C 
ATOM     29  C   UNL     1      -2.242  -0.115   1.196  0.00  0.00    +0.008 C 
BRANCH  28  31
ATOM     30  C   UNL     1      -0.299   1.597  -0.287  0.00  0.00    +0.004 C 
ATOM     31  C   UNL     1      -0.230   0.069  -0.274  0.00  0.00    +0.000 C 
ENDBRANCH  28  31
ENDBRANCH  27  28
ENDBRANCH   1  27
TORSDOF 5
