REMARK  Name = ZINC30717801
REMARK  13 active torsions:
REMARK  status: ('A' for Active; 'I' for Inactive)
REMARK    1  A    between atoms: C_1  and  C_2
REMARK    2  A    between atoms: C_2  and  N_3
REMARK    3  A    between atoms: N_3  and  C_4
REMARK    4  A    between atoms: N_3  and  C_6
REMARK    5  A    between atoms: C_4  and  C_5
REMARK    6  A    between atoms: C_6  and  C_7
REMARK    7  A    between atoms: C_10  and  C_13
REMARK    8  A    between atoms: N_15  and  N_16
REMARK    9  A    between atoms: N_16  and  C_17
REMARK   10  A    between atoms: C_17  and  N_19
REMARK   11  A    between atoms: N_19  and  C_20
REMARK   12  A    between atoms: C_24  and  C_27
REMARK   13  A    between atoms: C_25  and  C_26
REMARK                            x       y       z     vdW  Elec       q    Type
REMARK                         _______ _______ _______ _____ _____    ______ ____
ROOT
ATOM      1  C   UNL     1      -3.735   3.507   4.680  0.00  0.00    +0.260 C 
ATOM      2  O   UNL     1      -4.410   2.679   5.260  0.00  0.00    -0.269 OA
ATOM      3  N   UNL     1      -3.575   4.736   5.208  0.00  0.00    -0.231 N 
ATOM      4  H   UNL     1      -2.965   5.486   4.683  0.00  0.00    +0.173 HD
ENDROOT
BRANCH   1   8
ATOM      5  C   UNL     1      -1.884   2.526   0.984  0.00  0.00    -0.064 A 
ATOM      6  C   UNL     1      -1.713   3.787   1.527  0.00  0.00    +0.002 A 
ATOM      7  C   UNL     1      -2.316   4.114   2.724  0.00  0.00    +0.013 A 
ATOM      8  C   UNL     1      -3.091   3.165   3.394  0.00  0.00    +0.038 A 
ATOM      9  C   UNL     1      -3.255   1.893   2.844  0.00  0.00    +0.013 A 
ATOM     10  C   UNL     1      -2.651   1.581   1.643  0.00  0.00    +0.002 A 
BRANCH   5  11
ATOM     11  C   UNL     1      -1.228   2.178  -0.327  0.00  0.00    -0.043 C 
BRANCH  11  12
ATOM     12  N   UNL     1      -2.139   2.504  -1.432  0.00  0.00    +0.382 N 
ATOM     13  H   UNL     1      -2.467   3.546  -1.304  0.00  0.00    -0.081 HD
BRANCH  12  15
ATOM     14  C   UNL     1      -0.562   3.631  -2.929  0.00  0.00    -0.017 C 
ATOM     15  C   UNL     1      -1.453   2.403  -2.727  0.00  0.00    -0.082 C 
ENDBRANCH  12  15
BRANCH  12  16
ATOM     16  C   UNL     1      -3.332   1.647  -1.401  0.00  0.00    -0.082 C 
ATOM     17  C   UNL     1      -4.407   2.236  -2.317  0.00  0.00    -0.017 C 
ENDBRANCH  12  16
ENDBRANCH  11  12
ENDBRANCH   5  11
ENDBRANCH   1   8
BRANCH   3  18
ATOM     18  N   UNL     1      -4.186   5.060   6.427  0.00  0.00    -0.245 N 
ATOM     19  H   UNL     1      -4.796   4.311   6.952  0.00  0.00    +0.172 HD
BRANCH  18  20
ATOM     20  C   UNL     1      -4.026   6.289   6.955  0.00  0.00    +0.151 C 
ATOM     21  S   UNL     1      -4.772   6.685   8.445  0.00  0.00    -0.017 S 
BRANCH  20  22
ATOM     22  N   UNL     1      -3.278   7.207   6.312  0.00  0.00    -0.296 N 
ATOM     23  H   UNL     1      -2.868   6.982   5.316  0.00  0.00    +0.154 HD
BRANCH  22  24
ATOM     24  C   UNL     1      -3.023   8.446   6.910  0.00  0.00    +0.036 A 
ATOM     25  C   UNL     1      -4.038   9.117   7.580  0.00  0.00    +0.023 A 
ATOM     26  C   UNL     1      -3.784  10.340   8.169  0.00  0.00    +0.002 A 
ATOM     27  C   UNL     1      -2.520  10.896   8.093  0.00  0.00    +0.004 A 
ATOM     28  C   UNL     1      -1.508  10.231   7.427  0.00  0.00    -0.046 A 
ATOM     29  C   UNL     1      -1.754   9.005   6.839  0.00  0.00    -0.026 A 
ATOM     30  C   UNL     1      -0.648   8.278   6.119  0.00  0.00    +0.046 C 
ATOM     31  C   UNL     1      -0.132  10.841   7.346  0.00  0.00    +0.044 C 
ENDBRANCH  22  24
ENDBRANCH  20  22
ENDBRANCH  18  20
ENDBRANCH   3  18
TORSDOF 9
