REMARK  Name = ZINC42346256
REMARK  14 active torsions:
REMARK  status: ('A' for Active; 'I' for Inactive)
REMARK    1  A    between atoms: C_1  and  C_2
REMARK    2  A    between atoms: C_2  and  N_3
REMARK    3  A    between atoms: N_3  and  C_4
REMARK    4  A    between atoms: N_3  and  C_6
REMARK    5  A    between atoms: C_4  and  C_5
REMARK    6  A    between atoms: C_6  and  C_8
REMARK    7  A    between atoms: C_6  and  C_24
REMARK    8  A    between atoms: C_8  and  N_9
REMARK    9  A    between atoms: N_12  and  C_13
REMARK   10  A    between atoms: C_13  and  C_14
REMARK   11  A    between atoms: C_14  and  C_16
REMARK   12  A    between atoms: C_14  and  N_21
REMARK   13  A    between atoms: N_21  and  C_22
REMARK   14  A    between atoms: N_21  and  C_23
REMARK                            x       y       z     vdW  Elec       q    Type
REMARK                         _______ _______ _______ _____ _____    ______ ____
ROOT
ATOM      1  N   UNL     1       3.253  -2.900  -2.101  0.00  0.00    -0.301 N 
ATOM      2  C   UNL     1       3.741  -2.538  -3.304  0.00  0.00    +0.300 C 
ATOM      3  O   UNL     1       3.050  -2.644  -4.298  0.00  0.00    -0.253 OA
ATOM      4  N   UNL     1       4.997  -2.058  -3.405  0.00  0.00    -0.301 N 
ATOM      5  H   UNL     1       3.776  -2.746  -1.299  0.00  0.00    +0.150 HD
ATOM      6  H   UNL     1       5.574  -2.041  -2.626  0.00  0.00    +0.150 HD
ENDROOT
BRANCH   1   7
ATOM      7  C   UNL     1       1.931  -3.524  -2.005  0.00  0.00    +0.095 C 
BRANCH   7   8
ATOM      8  C   UNL     1       1.563  -3.715  -0.532  0.00  0.00    -0.020 C 
BRANCH   8   9
ATOM      9  C   UNL     1       0.165  -4.266  -0.431  0.00  0.00    -0.052 A 
ATOM     10  C   UNL     1      -0.098  -5.374   0.352  0.00  0.00    +0.009 A 
ATOM     11  C   UNL     1      -1.367  -5.845   0.421  0.00  0.00    +0.045 A 
ATOM     12  S   UNL     1      -2.240  -4.710  -0.643  0.00  0.00    -0.105 S 
ATOM     13  C   UNL     1      -0.856  -3.680  -1.104  0.00  0.00    +0.047 A 
ENDBRANCH   8   9
BRANCH   8  14
ATOM     14  N   UNL     1       1.630  -2.421   0.160  0.00  0.00    +0.385 N 
ATOM     15  H   UNL     1       2.556  -2.033   0.058  0.00  0.00    -0.081 HD
BRANCH  14  17
ATOM     16  C   UNL     1       0.832  -0.106   0.177  0.00  0.00    -0.017 C 
ATOM     17  C   UNL     1       0.646  -1.501  -0.424  0.00  0.00    -0.081 C 
ENDBRANCH  14  17
BRANCH  14  18
ATOM     18  C   UNL     1       1.334  -2.613   1.586  0.00  0.00    -0.081 C 
ATOM     19  C   UNL     1       2.446  -3.444   2.231  0.00  0.00    -0.017 C 
ENDBRANCH  14  18
ENDBRANCH   8  14
ENDBRANCH   7   8
ENDBRANCH   1   7
BRANCH   4  20
ATOM     20  C   UNL     1       5.490  -1.561  -4.692  0.00  0.00    +0.095 C 
BRANCH  20  21
ATOM     21  C   UNL     1       6.970  -1.196  -4.565  0.00  0.00    -0.014 C 
BRANCH  21  22
ATOM     22  C   UNL     1       7.766  -2.432  -4.236  0.00  0.00    -0.022 A 
ATOM     23  C   UNL     1       8.233  -2.852  -3.034  0.00  0.00    +0.009 A 
ATOM     24  C   UNL     1       8.948  -4.034  -2.969  0.00  0.00    +0.008 A 
ATOM     25  C   UNL     1       9.160  -4.737  -4.108  0.00  0.00    +0.045 A 
ATOM     26  S   UNL     1       8.332  -3.728  -5.325  0.00  0.00    -0.103 S 
ENDBRANCH  21  22
BRANCH  21  27
ATOM     27  N   UNL     1       7.446  -0.630  -5.834  0.00  0.00    +0.382 N 
ATOM     28  C   UNL     1       6.652   0.560  -6.168  0.00  0.00    -0.096 C 
ATOM     29  C   UNL     1       8.860  -0.255  -5.704  0.00  0.00    -0.096 C 
ATOM     30  H   UNL     1       7.346  -1.317  -6.567  0.00  0.00    -0.082 HD
ENDBRANCH  21  27
ENDBRANCH  20  21
ENDBRANCH   4  20
TORSDOF 10
