REMARK  Name = ZINC67474535
REMARK  7 active torsions:
REMARK  status: ('A' for Active; 'I' for Inactive)
REMARK    1  A    between atoms: C_6  and  C_7
REMARK    2  A    between atoms: C_7  and  C_8
REMARK    3  A    between atoms: C_8  and  C_9
REMARK    4  A    between atoms: C_9  and  N_10
REMARK    5  A    between atoms: C_11  and  C_13
REMARK    6  A    between atoms: C_15  and  S_18
REMARK    7  A    between atoms: S_18  and  N_21
REMARK                            x       y       z     vdW  Elec       q    Type
REMARK                         _______ _______ _______ _____ _____    ______ ____
ROOT
ATOM      1  N   UNL     1      -3.493  -2.053  -2.798  0.00  0.00    -0.311 N 
ATOM      2  C   UNL     1      -4.635  -2.729  -3.037  0.00  0.00    +0.245 C 
ATOM      3  O   UNL     1      -5.304  -3.138  -2.108  0.00  0.00    -0.270 OA
ATOM      4  H   UNL     1      -2.959  -1.726  -3.539  0.00  0.00    +0.149 HD
ENDROOT
BRANCH   2   5
ATOM      5  C   UNL     1      -5.070  -2.973  -4.422  0.00  0.00    +0.046 A 
ATOM      6  C   UNL     1      -6.288  -3.688  -4.716  0.00  0.00    +0.049 A 
ATOM      7  C   UNL     1      -6.574  -3.844  -6.024  0.00  0.00    +0.143 A 
ATOM      8  S   UNL     1      -5.213  -3.033  -6.834  0.00  0.00    -0.076 S 
ATOM      9  C   UNL     1      -4.337  -2.524  -5.497  0.00  0.00    +0.060 A 
BRANCH   7  10
ATOM     10  S   UNL     1      -7.959  -4.653  -6.754  0.00  0.00    +0.062 S 
ATOM     11  O   UNL     1      -7.559  -5.043  -8.060  0.00  0.00    -0.153 OA
ATOM     12  O   UNL     1      -8.438  -5.584  -5.793  0.00  0.00    -0.153 OA
BRANCH  10  13
ATOM     13  N   UNL     1      -9.147  -3.515  -6.943  0.00  0.00    -0.203 NA
ATOM     14  H   UNL     1      -8.991  -2.599  -6.664  0.00  0.00    +0.144 HD
ATOM     15  H   UNL     1     -10.000  -3.764  -7.333  0.00  0.00    +0.144 HD
ENDBRANCH  10  13
ENDBRANCH   7  10
ENDBRANCH   2   5
BRANCH   1  16
ATOM     16  C   UNL     1      -3.060  -1.810  -1.420  0.00  0.00    +0.105 C 
BRANCH  16  17
ATOM     17  C   UNL     1      -1.745  -1.028  -1.429  0.00  0.00    +0.023 C 
BRANCH  17  18
ATOM     18  C   UNL     1      -1.293  -0.775   0.011  0.00  0.00    +0.037 C 
BRANCH  18  24
ATOM     19  C   UNL     1      -0.017   1.378   0.010  0.00  0.00    +0.005 A 
ATOM     20  C   UNL     1       1.171   2.086   0.002  0.00  0.00    +0.022 A 
ATOM     21  C   UNL     1       2.378   1.412  -0.013  0.00  0.00    +0.059 A 
ATOM     22  C   UNL     1       2.397   0.027  -0.021  0.00  0.00    +0.060 A 
ATOM     23  C   UNL     1       1.208  -0.680  -0.013  0.00  0.00    +0.025 A 
ATOM     24  C   UNL     1       0.002  -0.004   0.002  0.00  0.00    -0.046 A 
ATOM     25 CL   UNL     1       3.912  -0.821  -0.040  0.00  0.00    -0.082 Cl
ATOM     26 CL   UNL     1       3.869   2.301  -0.023  0.00  0.00    -0.082 Cl
ENDBRANCH  18  24
ENDBRANCH  17  18
ENDBRANCH  16  17
ENDBRANCH   1  16
TORSDOF 7
