REMARK  Name = ZINC63503306
REMARK  5 active torsions:
REMARK  status: ('A' for Active; 'I' for Inactive)
REMARK    1  A    between atoms: C_1  and  C_2
REMARK    2  A    between atoms: C_2  and  O_3
REMARK    3  A    between atoms: O_3  and  C_4
REMARK    4  A    between atoms: C_7  and  C_10
REMARK    5  A    between atoms: C_25  and  C_27
REMARK                            x       y       z     vdW  Elec       q    Type
REMARK                         _______ _______ _______ _____ _____    ______ ____
ROOT
ATOM      1  C   UNL     1      -1.881  -6.128  -0.220  0.00  0.00    +0.133 C 
ATOM      2  C   UNL     1      -1.952  -6.944   1.075  0.00  0.00    +0.131 C 
ATOM      3  C   UNL     1      -2.246  -8.382   0.668  0.00  0.00    -0.035 C 
ATOM      4  C   UNL     1      -1.276  -9.125   1.188  0.00  0.00    -0.001 A 
ATOM      5  C   UNL     1      -1.055 -10.580   1.195  0.00  0.00    +0.010 A 
ATOM      6  C   UNL     1       0.071 -11.011   1.822  0.00  0.00    +0.001 A 
ATOM      7  C   UNL     1       0.988 -10.151   2.435  0.00  0.00    +0.002 A 
ATOM      8  C   UNL     1       0.861  -8.801   2.480  0.00  0.00    +0.026 A 
ATOM      9  C   UNL     1      -0.286  -8.229   1.858  0.00  0.00    +0.043 A 
ATOM     10  N   UNL     1      -0.666  -6.966   1.776  0.00  0.00    -0.375 N 
ATOM     11  C   UNL     1      -3.405  -8.749  -0.226  0.00  0.00    +0.052 C 
ATOM     12  C   UNL     1      -3.322  -7.832  -1.459  0.00  0.00    +0.113 C 
ATOM     13  N   UNL     1      -3.068  -6.454  -1.025  0.00  0.00    -0.285 N 
ATOM     14  C   UNL     1      -3.932  -5.477  -1.366  0.00  0.00    +0.283 C 
ATOM     15  O   UNL     1      -3.671  -4.317  -1.109  0.00  0.00    -0.267 OA
ATOM     16  H   UNL     1      -0.188  -6.190   2.108  0.00  0.00    +0.160 HD
ENDROOT
BRANCH  14  17
ATOM     17  C   UNL     1      -5.190  -5.814  -2.048  0.00  0.00    +0.191 A 
ATOM     18  C   UNL     1      -5.955  -4.940  -2.752  0.00  0.00    +0.063 A 
ATOM     19  C   UNL     1      -7.097  -5.708  -3.247  0.00  0.00    +0.022 A 
ATOM     20  C   UNL     1      -8.219  -5.398  -4.019  0.00  0.00    +0.027 A 
ATOM     21  C   UNL     1      -9.129  -6.374  -4.315  0.00  0.00    +0.019 A 
ATOM     22  C   UNL     1      -8.944  -7.671  -3.854  0.00  0.00    +0.019 A 
ATOM     23  C   UNL     1      -7.843  -7.997  -3.092  0.00  0.00    +0.048 A 
ATOM     24  C   UNL     1      -6.905  -7.021  -2.778  0.00  0.00    +0.136 A 
ATOM     25  O   UNL     1      -5.755  -7.038  -2.075  0.00  0.00    -0.450 OA
ATOM     26 BR   UNL     1     -10.649  -5.955  -5.359  0.00  0.00    -0.050 Br
ENDBRANCH  14  17
BRANCH   1  30
ATOM     27  C   UNL     1      -1.857  -1.954   0.699  0.00  0.00    +0.121 A 
ATOM     28  C   UNL     1      -2.709  -2.811   1.380  0.00  0.00    +0.046 A 
ATOM     29  C   UNL     1      -2.716  -4.160   1.081  0.00  0.00    +0.009 A 
ATOM     30  C   UNL     1      -1.873  -4.656   0.104  0.00  0.00    -0.025 A 
ATOM     31  C   UNL     1      -1.021  -3.805  -0.576  0.00  0.00    +0.009 A 
ATOM     32  C   UNL     1      -1.016  -2.454  -0.285  0.00  0.00    +0.046 A 
BRANCH  27  33
ATOM     33  O   UNL     1      -1.849  -0.627   0.991  0.00  0.00    -0.492 OA
BRANCH  33  35
ATOM     34  C   UNL     1      -2.592   1.328   2.202  0.00  0.00    +0.048 C 
ATOM     35  C   UNL     1      -2.741  -0.183   2.015  0.00  0.00    +0.225 C 
ENDBRANCH  33  35
ENDBRANCH  27  33
ENDBRANCH   1  30
TORSDOF 4
