REMARK  Name = ZINC39467131
REMARK  10 active torsions:
REMARK  status: ('A' for Active; 'I' for Inactive)
REMARK    1  A    between atoms: C_1  and  C_2
REMARK    2  A    between atoms: C_4  and  C_8
REMARK    3  A    between atoms: C_8  and  C_9
REMARK    4  A    between atoms: C_9  and  N_10
REMARK    5  A    between atoms: N_10  and  C_11
REMARK    6  A    between atoms: C_11  and  C_12
REMARK    7  A    between atoms: N_15  and  C_26
REMARK    8  A    between atoms: C_17  and  C_19
REMARK    9  A    between atoms: C_29  and  O_32
REMARK   10  A    between atoms: O_32  and  C_33
REMARK                            x       y       z     vdW  Elec       q    Type
REMARK                         _______ _______ _______ _____ _____    ______ ____
ROOT
ATOM      1  C   UNL     1      -1.026  -7.143   3.647  0.00  0.00    +0.014 C 
ATOM      2  C   UNL     1      -0.309  -6.628   4.918  0.00  0.00    +0.127 C 
ATOM      3  N   UNL     1       0.760  -7.603   5.186  0.00  0.00    -0.266 N 
ATOM      4  N   UNL     1       0.780  -8.554   4.199  0.00  0.00    -0.232 NA
ATOM      5  C   UNL     1      -0.595  -8.635   3.641  0.00  0.00    +0.107 C 
ATOM      6  H   UNL     1       1.448  -8.316   3.481  0.00  0.00    +0.145 HD
ENDROOT
BRANCH   5   7
ATOM      7  C   UNL     1      -0.578  -9.186   2.239  0.00  0.00    -0.010 A 
ATOM      8  C   UNL     1       0.597  -9.186   1.510  0.00  0.00    +0.006 A 
ATOM      9  C   UNL     1       0.612  -9.691   0.224  0.00  0.00    +0.000 A 
ATOM     10  C   UNL     1      -0.547 -10.197  -0.335  0.00  0.00    +0.001 A 
ATOM     11  C   UNL     1      -1.722 -10.198   0.392  0.00  0.00    +0.020 A 
ATOM     12  C   UNL     1      -1.737  -9.698   1.682  0.00  0.00    +0.046 A 
ATOM     13 CL   UNL     1      -3.211  -9.704   2.599  0.00  0.00    -0.083 Cl
ENDBRANCH   5   7
BRANCH   3  14
ATOM     14  C   UNL     1       1.627  -7.565   6.284  0.00  0.00    +0.045 A 
ATOM     15  C   UNL     1       1.509  -6.552   7.227  0.00  0.00    +0.028 A 
ATOM     16  C   UNL     1       2.364  -6.515   8.311  0.00  0.00    +0.047 A 
ATOM     17  C   UNL     1       3.341  -7.489   8.457  0.00  0.00    +0.120 A 
ATOM     18  C   UNL     1       3.460  -8.501   7.516  0.00  0.00    +0.047 A 
ATOM     19  C   UNL     1       2.601  -8.542   6.434  0.00  0.00    +0.028 A 
BRANCH  17  20
ATOM     20  O   UNL     1       4.183  -7.452   9.525  0.00  0.00    -0.495 OA
ATOM     21  C   UNL     1       5.165  -8.487   9.613  0.00  0.00    +0.277 C 
ENDBRANCH  17  20
ENDBRANCH   3  14
BRANCH   1  22
ATOM     22  C   UNL     1      -0.521  -6.419   2.397  0.00  0.00    -0.076 C 
BRANCH  22  23
ATOM     23  N   UNL     1      -0.980  -5.024   2.420  0.00  0.00    +0.379 N 
ATOM     24  H   UNL     1      -0.621  -4.565   3.243  0.00  0.00    -0.086 HD
ATOM     25  H   UNL     1      -1.989  -5.003   2.436  0.00  0.00    -0.086 HD
BRANCH  23  26
ATOM     26  C   UNL     1      -0.495  -4.329   1.220  0.00  0.00    -0.079 C 
BRANCH  26  27
ATOM     27  C   UNL     1      -0.973  -2.876   1.244  0.00  0.00    +0.031 C 
BRANCH  27  31
ATOM     28  C   UNL     1       0.137   1.495   0.015  0.00  0.00    +0.067 C 
ATOM     29  C   UNL     1       0.137  -0.012   0.007  0.00  0.00    +0.053 C 
ATOM     30  N   UNL     1      -0.919  -0.755   0.002  0.00  0.00    -0.261 NA
ATOM     31  C   UNL     1      -0.467  -2.152  -0.005  0.00  0.00    +0.219 C 
ATOM     32  N   UNL     1       1.000  -2.103  -0.004  0.00  0.00    -0.264 NA
ATOM     33  C   UNL     1       1.341  -0.858  -0.003  0.00  0.00    +0.130 C 
ENDBRANCH  27  31
ENDBRANCH  26  27
ENDBRANCH  23  26
ENDBRANCH  22  23
ENDBRANCH   1  22
TORSDOF 8
