REMARK  Name = ZINC03144151
REMARK  11 active torsions:
REMARK  status: ('A' for Active; 'I' for Inactive)
REMARK    1  A    between atoms: C_1  and  C_2
REMARK    2  A    between atoms: C_5  and  C_8
REMARK    3  A    between atoms: N_10  and  C_11
REMARK    4  A    between atoms: C_16  and  C_17
REMARK    5  A    between atoms: N_19  and  C_20
REMARK    6  A    between atoms: C_20  and  C_22
REMARK    7  A    between atoms: C_20  and  C_25
REMARK    8  A    between atoms: C_22  and  C_23
REMARK    9  A    between atoms: C_22  and  C_24
REMARK   10  A    between atoms: N_27  and  N_28
REMARK   11  A    between atoms: C_29  and  C_31
REMARK                            x       y       z     vdW  Elec       q    Type
REMARK                         _______ _______ _______ _____ _____    ______ ____
ROOT
ATOM      1  C   UNL     1       3.943   1.864   0.161  0.00  0.00    +0.246 C 
ATOM      2  O   UNL     1       4.004   2.934  -0.414  0.00  0.00    -0.270 OA
ATOM      3  N   UNL     1       2.942   1.624   1.032  0.00  0.00    -0.300 N 
ATOM      4  H   UNL     1       2.893   0.771   1.491  0.00  0.00    +0.150 HD
ENDROOT
BRANCH   1  10
ATOM      5  C   UNL     1       5.960   1.044  -1.058  0.00  0.00    +0.046 A 
ATOM      6  C   UNL     1       6.917   0.065  -1.285  0.00  0.00    +0.024 A 
ATOM      7  C   UNL     1       6.882  -1.116  -0.572  0.00  0.00    +0.002 A 
ATOM      8  C   UNL     1       5.897  -1.333   0.378  0.00  0.00    +0.001 A 
ATOM      9  C   UNL     1       4.941  -0.370   0.621  0.00  0.00    +0.015 A 
ATOM     10  C   UNL     1       4.964   0.830  -0.093  0.00  0.00    +0.058 A 
BRANCH   5  13
ATOM     11  C   UNL     1       7.164   2.857  -2.003  0.00  0.00    +0.248 C 
ATOM     12  O   UNL     1       8.204   2.340  -1.643  0.00  0.00    -0.270 OA
ATOM     13  N   UNL     1       5.990   2.233  -1.780  0.00  0.00    -0.281 N 
ATOM     14  H   UNL     1       5.166   2.614  -2.123  0.00  0.00    +0.155 HD
BRANCH  11  19
ATOM     15  C   UNL     1       7.253   7.963  -4.654  0.00  0.00    +0.044 C 
ATOM     16  C   UNL     1       7.230   6.626  -3.960  0.00  0.00    -0.050 A 
ATOM     17  C   UNL     1       8.415   6.041  -3.552  0.00  0.00    +0.004 A 
ATOM     18  C   UNL     1       8.401   4.817  -2.916  0.00  0.00    +0.013 A 
ATOM     19  C   UNL     1       7.187   4.168  -2.684  0.00  0.00    +0.037 A 
ATOM     20  C   UNL     1       5.995   4.761  -3.103  0.00  0.00    +0.013 A 
ATOM     21  C   UNL     1       6.023   5.989  -3.732  0.00  0.00    +0.004 A 
ENDBRANCH  11  19
ENDBRANCH   5  13
ENDBRANCH   1  10
BRANCH   3  22
ATOM     22  C   UNL     1       1.929   2.651   1.284  0.00  0.00    +0.163 C 
BRANCH  22  23
ATOM     23  C   UNL     1       0.656   1.996   1.756  0.00  0.00    +0.250 C 
ATOM     24  O   UNL     1       0.678   0.854   2.166  0.00  0.00    -0.272 OA
ATOM     25  N   UNL     1      -0.507   2.676   1.718  0.00  0.00    -0.233 N 
ATOM     26  H   UNL     1      -0.537   3.562   1.325  0.00  0.00    +0.173 HD
BRANCH  25  27
ATOM     27  N   UNL     1      -1.671   2.103   2.247  0.00  0.00    -0.230 N 
ATOM     28  C   UNL     1      -2.834   2.784   2.209  0.00  0.00    +0.260 C 
ATOM     29  O   UNL     1      -2.872   3.894   1.716  0.00  0.00    -0.269 OA
ATOM     30  H   UNL     1      -1.640   1.217   2.640  0.00  0.00    +0.173 HD
BRANCH  28  31
ATOM     31  C   UNL     1      -4.062   2.179   2.767  0.00  0.00    +0.038 A 
ATOM     32  C   UNL     1      -4.022   0.902   3.328  0.00  0.00    +0.013 A 
ATOM     33  C   UNL     1      -5.171   0.346   3.852  0.00  0.00    +0.001 A 
ATOM     34  C   UNL     1      -6.364   1.047   3.811  0.00  0.00    +0.000 A 
ATOM     35  C   UNL     1      -6.411   2.311   3.251  0.00  0.00    +0.001 A 
ATOM     36  C   UNL     1      -5.268   2.881   2.729  0.00  0.00    +0.013 A 
ENDBRANCH  28  31
ENDBRANCH  25  27
ENDBRANCH  22  23
BRANCH  22  37
ATOM     37  C   UNL     1       2.435   3.614   2.359  0.00  0.00    +0.012 C 
ATOM     38  C   UNL     1       2.800   2.826   3.619  0.00  0.00    +0.009 C 
ATOM     39  C   UNL     1       3.673   4.350   1.842  0.00  0.00    +0.009 C 
ENDBRANCH  22  37
ENDBRANCH   3  22
TORSDOF 8
