REMARK  Name = ZINC55091375
REMARK  5 active torsions:
REMARK  status: ('A' for Active; 'I' for Inactive)
REMARK    1  A    between atoms: C_1  and  C_2
REMARK    2  A    between atoms: C_7  and  N_22
REMARK    3  A    between atoms: C_9  and  C_11
REMARK    4  A    between atoms: C_17  and  C_20
REMARK    5  A    between atoms: C_20  and  O_21
REMARK                            x       y       z     vdW  Elec       q    Type
REMARK                         _______ _______ _______ _____ _____    ______ ____
ROOT
ATOM      1  C   UNL     1      -0.021   1.457   0.257  0.00  0.00    +0.008 C 
ATOM      2  C   UNL     1      -0.013  -0.067   0.126  0.00  0.00    -0.004 C 
ATOM      3  C   UNL     1      -1.444  -0.597   0.240  0.00  0.00    +0.004 C 
ATOM      4  C   UNL     1      -1.436  -2.121   0.109  0.00  0.00    -0.001 C 
ATOM      5  C   UNL     1      -0.579  -2.724   1.224  0.00  0.00    -0.016 C 
ATOM      6  C   UNL     1       0.852  -2.195   1.111  0.00  0.00    -0.063 C 
ATOM      7  C   UNL     1       0.844  -0.670   1.241  0.00  0.00    +0.064 C 
ENDROOT
BRANCH   7   8
ATOM      8  C   UNL     1       0.270  -0.284   2.580  0.00  0.00    +0.217 C 
ATOM      9  O   UNL     1      -0.930  -0.173   2.716  0.00  0.00    -0.275 OA
ATOM     10  N   UNL     1       1.090  -0.062   3.626  0.00  0.00    -0.301 N 
ATOM     11  C   UNL     1       2.549  -0.087   3.452  0.00  0.00    +0.108 C 
ATOM     12  C   UNL     1       3.133   1.222   3.994  0.00  0.00    +0.019 C 
ATOM     13  C   UNL     1       2.676   1.418   5.441  0.00  0.00    +0.009 C 
ATOM     14  C   UNL     1       1.149   1.515   5.488  0.00  0.00    +0.032 C 
ATOM     15  C   UNL     1       0.543   0.216   4.961  0.00  0.00    +0.113 C 
BRANCH  14  16
ATOM     16  C   UNL     1       0.696   1.745   6.931  0.00  0.00    +0.160 C 
BRANCH  16  17
ATOM     17  O   UNL     1       1.168   3.016   7.381  0.00  0.00    -0.395 OA
ATOM     18  H   UNL     1       0.917   3.229   8.291  0.00  0.00    +0.209 HD
ENDBRANCH  16  17
ENDBRANCH  14  16
ENDBRANCH   7   8
BRANCH   6  19
ATOM     19  N   UNL     1       1.674  -2.773   2.181  0.00  0.00    +0.380 N 
ATOM     20  H   UNL     1       1.623  -3.780   2.138  0.00  0.00    -0.090 HD
ATOM     21  H   UNL     1       2.633  -2.481   2.064  0.00  0.00    -0.090 HD
ATOM     22  H   UNL     1       1.333  -2.457   3.076  0.00  0.00    -0.090 HD
ENDBRANCH   6  19
TORSDOF 4
