REMARK  Name = ZINC08877847
REMARK  11 active torsions:
REMARK  status: ('A' for Active; 'I' for Inactive)
REMARK    1  A    between atoms: C_1  and  C_2
REMARK    2  A    between atoms: C_12  and  C_21
REMARK    3  A    between atoms: C_15  and  C_17
REMARK    4  A    between atoms: C_17  and  C_18
REMARK    5  A    between atoms: C_18  and  S_19
REMARK    6  A    between atoms: S_19  and  C_20
REMARK    7  A    between atoms: N_23  and  C_24
REMARK    8  A    between atoms: C_26  and  O_32
REMARK    9  A    between atoms: C_29  and  O_30
REMARK   10  A    between atoms: O_30  and  C_31
REMARK   11  A    between atoms: O_32  and  C_33
REMARK                            x       y       z     vdW  Elec       q    Type
REMARK                         _______ _______ _______ _____ _____    ______ ____
ROOT
ATOM      1  C   UNL     1       0.662  10.229  -3.639  0.00  0.00    +0.045 C 
ATOM      2  C   UNL     1       0.970   9.364  -2.445  0.00  0.00    -0.029 A 
ATOM      3  C   UNL     1       2.281   9.070  -2.127  0.00  0.00    +0.005 A 
ATOM      4  C   UNL     1       2.573   8.277  -1.033  0.00  0.00    +0.001 A 
ATOM      5  C   UNL     1       1.547   7.775  -0.253  0.00  0.00    +0.004 A 
ATOM      6  C   UNL     1       0.238   8.066  -0.566  0.00  0.00    -0.027 A 
ATOM      7  C   UNL     1      -0.069   8.864  -1.664  0.00  0.00    +0.039 A 
ATOM      8  N   UNL     1      -1.452   9.018  -1.777  0.00  0.00    -0.286 N 
ATOM      9  C   UNL     1      -2.117   8.363  -0.807  0.00  0.00    +0.211 C 
ATOM     10  O   UNL     1      -3.320   8.322  -0.657  0.00  0.00    -0.277 OA
ATOM     11  C   UNL     1      -1.080   7.691   0.057  0.00  0.00    +0.049 C 
ATOM     12  C   UNL     1      -1.274   6.167   0.050  0.00  0.00    +0.076 C 
ATOM     13  C   UNL     1      -2.019   5.904   1.387  0.00  0.00    -0.004 C 
ATOM     14  C   UNL     1      -1.381   6.966   2.318  0.00  0.00    -0.068 C 
ATOM     15  H   UNL     1      -1.883   9.537  -2.473  0.00  0.00    +0.155 HD
ATOM     16  N   UNL     1      -1.169   8.141   1.450  0.00  0.00    +0.394 N 
ATOM     17  H   UNL     1      -1.956   8.792   1.554  0.00  0.00    -0.083 HD
ATOM     18  H   UNL     1      -0.297   8.613   1.717  0.00  0.00    -0.083 HD
ENDROOT
BRANCH  12  19
ATOM     19  C   UNL     1       0.057   5.460   0.033  0.00  0.00    +0.220 C 
ATOM     20  O   UNL     1       0.615   5.194   1.077  0.00  0.00    -0.275 OA
ATOM     21  N   UNL     1       0.626   5.124  -1.141  0.00  0.00    -0.282 N 
ATOM     22  H   UNL     1       0.221   5.407  -1.975  0.00  0.00    +0.155 HD
BRANCH  21  23
ATOM     23  C   UNL     1       1.804   4.364  -1.156  0.00  0.00    +0.079 A 
ATOM     24  C   UNL     1       2.112   3.538  -0.086  0.00  0.00    +0.072 A 
ATOM     25  C   UNL     1       3.277   2.788  -0.104  0.00  0.00    +0.122 A 
ATOM     26  C   UNL     1       4.135   2.863  -1.192  0.00  0.00    +0.049 A 
ATOM     27  C   UNL     1       3.828   3.681  -2.262  0.00  0.00    +0.051 A 
ATOM     28  C   UNL     1       2.667   4.438  -2.247  0.00  0.00    +0.141 A 
BRANCH  28  29
ATOM     29  O   UNL     1       2.368   5.247  -3.299  0.00  0.00    -0.493 OA
ATOM     30  C   UNL     1       3.298   5.272  -4.383  0.00  0.00    +0.277 C 
ENDBRANCH  28  29
BRANCH  25  31
ATOM     31  O   UNL     1       3.580   1.978   0.945  0.00  0.00    -0.495 OA
ATOM     32  C   UNL     1       4.797   1.233   0.860  0.00  0.00    +0.277 C 
ENDBRANCH  25  31
ENDBRANCH  21  23
ENDBRANCH  12  19
BRANCH  14  33
ATOM     33  C   UNL     1      -2.332   7.309   3.466  0.00  0.00    -0.005 C 
BRANCH  33  34
ATOM     34  C   UNL     1      -1.635   8.262   4.438  0.00  0.00    +0.067 C 
BRANCH  34  35
ATOM     35  S   UNL     1      -2.763   8.670   5.799  0.00  0.00    -0.164 S 
ATOM     36  C   UNL     1      -1.798   9.792   6.848  0.00  0.00    +0.084 C 
ENDBRANCH  34  35
ENDBRANCH  33  34
ENDBRANCH  14  33
TORSDOF 7
