REMARK  Name = ZINC19915571
REMARK  7 active torsions:
REMARK  status: ('A' for Active; 'I' for Inactive)
REMARK    1  A    between atoms: C_3  and  S_17
REMARK    2  A    between atoms: C_6  and  N_7
REMARK    3  A    between atoms: N_7  and  C_8
REMARK    4  A    between atoms: C_8  and  C_9
REMARK    5  A    between atoms: C_12  and  O_16
REMARK    6  A    between atoms: C_14  and  O_15
REMARK    7  A    between atoms: S_17  and  N_20
REMARK                            x       y       z     vdW  Elec       q    Type
REMARK                         _______ _______ _______ _____ _____    ______ ____
ROOT
ATOM      1  N   UNL     1       4.976   4.767  -0.247  0.00  0.00    -0.340 N 
ATOM      2  H   UNL     1       3.981   5.216  -0.383  0.00  0.00    +0.146 HD
ENDROOT
BRANCH   1   8
ATOM      3  C   UNL     1       7.375   5.008  -0.117  0.00  0.00    +0.025 A 
ATOM      4  C   UNL     1       8.501   5.805  -0.169  0.00  0.00    +0.030 A 
ATOM      5  C   UNL     1       8.377   7.166  -0.386  0.00  0.00    +0.105 A 
ATOM      6  C   UNL     1       7.127   7.731  -0.557  0.00  0.00    +0.030 A 
ATOM      7  C   UNL     1       5.997   6.939  -0.512  0.00  0.00    +0.025 A 
ATOM      8  C   UNL     1       6.117   5.572  -0.294  0.00  0.00    +0.027 A 
BRANCH   5   9
ATOM      9  S   UNL     1       9.817   8.180  -0.446  0.00  0.00    +0.056 S 
ATOM     10  O   UNL     1      10.899   7.330  -0.801  0.00  0.00    -0.153 OA
ATOM     11  O   UNL     1       9.471   9.331  -1.204  0.00  0.00    -0.153 OA
BRANCH   9  12
ATOM     12  N   UNL     1      10.112   8.702   1.098  0.00  0.00    -0.204 NA
ATOM     13  H   UNL     1      11.007   9.342   1.104  0.00  0.00    +0.144 HD
ATOM     14  H   UNL     1      10.277   7.834   1.753  0.00  0.00    +0.144 HD
ENDBRANCH   9  12
ENDBRANCH   5   9
ENDBRANCH   1   8
BRANCH   1  15
ATOM     15  C   UNL     1       5.105   3.326  -0.017  0.00  0.00    +0.140 C 
BRANCH  15  16
ATOM     16  C   UNL     1       3.737   2.694  -0.012  0.00  0.00    +0.011 A 
ATOM     17  C   UNL     1       3.119   2.397   1.188  0.00  0.00    +0.012 A 
ATOM     18  C   UNL     1       1.862   1.822   1.196  0.00  0.00    +0.046 A 
ATOM     19  C   UNL     1       1.223   1.532  -0.001  0.00  0.00    +0.120 A 
ATOM     20  C   UNL     1       1.841   1.830  -1.206  0.00  0.00    +0.091 A 
ATOM     21  C   UNL     1       3.100   2.411  -1.212  0.00  0.00    +0.125 A 
BRANCH  21  22
ATOM     22  O   UNL     1       3.708   2.704  -2.391  0.00  0.00    -0.506 OA
ATOM     23  H   UNL     1       3.203   2.479  -3.341  0.00  0.00    +0.292 HD
ENDBRANCH  21  22
BRANCH  19  24
ATOM     24  O   UNL     1      -0.011   0.963   0.007  0.00  0.00    -0.507 OA
ATOM     25  H   UNL     1      -0.517   0.733  -0.942  0.00  0.00    +0.292 HD
ENDBRANCH  19  24
ENDBRANCH  15  16
ENDBRANCH   1  15
TORSDOF 7
