REMARK  Name = ZINC66214295
REMARK  8 active torsions:
REMARK  status: ('A' for Active; 'I' for Inactive)
REMARK    1  A    between atoms: C_3  and  C_19
REMARK    2  A    between atoms: C_5  and  N_7
REMARK    3  A    between atoms: C_8  and  C_10
REMARK    4  A    between atoms: C_10  and  N_11
REMARK    5  A    between atoms: N_11  and  C_12
REMARK    6  A    between atoms: C_12  and  C_13
REMARK    7  A    between atoms: N_21  and  C_22
REMARK    8  A    between atoms: C_26  and  C_28
REMARK                            x       y       z     vdW  Elec       q    Type
REMARK                         _______ _______ _______ _____ _____    ______ ____
ROOT
ATOM      1  C   UNL     1      -0.639   0.918  -0.051  0.00  0.00    +0.003 A 
ATOM      2  C   UNL     1       0.109   2.052  -0.292  0.00  0.00    +0.013 A 
ATOM      3  C   UNL     1       1.502   1.973  -0.334  0.00  0.00    +0.039 A 
ATOM      4  C   UNL     1       2.133   0.745  -0.131  0.00  0.00    +0.036 A 
ATOM      5  C   UNL     1       1.372  -0.388   0.111  0.00  0.00    +0.034 A 
ATOM      6  C   UNL     1      -0.014  -0.298   0.150  0.00  0.00    +0.023 A 
ENDROOT
BRANCH   5   7
ATOM      7  N   UNL     1       2.000  -1.621   0.315  0.00  0.00    -0.287 N 
ATOM      8  C   UNL     1       3.201  -1.674   0.926  0.00  0.00    +0.200 C 
ATOM      9  O   UNL     1       3.694  -0.664   1.381  0.00  0.00    -0.278 OA
ATOM     10  H   UNL     1       1.571  -2.439   0.017  0.00  0.00    +0.155 HD
BRANCH   8  11
ATOM     11  C   UNL     1       3.930  -2.988   1.043  0.00  0.00    +0.015 C 
BRANCH  11  12
ATOM     12  N   UNL     1       5.204  -2.780   1.743  0.00  0.00    +0.386 N 
ATOM     13  H   UNL     1       5.771  -2.126   1.224  0.00  0.00    -0.085 HD
ATOM     14  H   UNL     1       5.025  -2.411   2.665  0.00  0.00    -0.085 HD
BRANCH  12  15
ATOM     15  C   UNL     1       5.915  -4.060   1.857  0.00  0.00    -0.050 C 
BRANCH  15  16
ATOM     16  C   UNL     1       7.242  -3.844   2.587  0.00  0.00    +0.101 C 
ATOM     17  C   UNL     1       8.025  -5.177   2.687  0.00  0.00    +0.032 C 
ATOM     18  C   UNL     1       9.481  -4.655   2.823  0.00  0.00    +0.030 C 
ATOM     19  C   UNL     1       9.456  -3.383   1.948  0.00  0.00    +0.160 C 
ATOM     20  O   UNL     1       8.090  -2.965   1.830  0.00  0.00    -0.378 OA
ENDBRANCH  15  16
ENDBRANCH  12  15
ENDBRANCH  11  12
ENDBRANCH   8  11
ENDBRANCH   5   7
BRANCH   3  21
ATOM     21  C   UNL     1       2.307   3.186  -0.593  0.00  0.00    +0.248 C 
ATOM     22  O   UNL     1       3.520   3.115  -0.629  0.00  0.00    -0.270 OA
ATOM     23  N   UNL     1       1.695   4.371  -0.789  0.00  0.00    -0.281 N 
ATOM     24  H   UNL     1       0.733   4.443  -0.687  0.00  0.00    +0.155 HD
BRANCH  23  25
ATOM     25  C   UNL     1       2.447   5.497  -1.140  0.00  0.00    +0.034 A 
ATOM     26  C   UNL     1       2.062   6.756  -0.699  0.00  0.00    +0.023 A 
ATOM     27  C   UNL     1       2.807   7.865  -1.047  0.00  0.00    +0.002 A 
ATOM     28  C   UNL     1       3.935   7.724  -1.835  0.00  0.00    +0.012 A 
ATOM     29  C   UNL     1       4.321   6.471  -2.276  0.00  0.00    +0.057 A 
ATOM     30  C   UNL     1       3.583   5.357  -1.926  0.00  0.00    +0.035 A 
BRANCH  29  31
ATOM     31  C   UNL     1       5.550   6.321  -3.135  0.00  0.00    +0.417 C 
ATOM     32  F   UNL     1       6.126   7.578  -3.349  0.00  0.00    -0.166 F 
ATOM     33  F   UNL     1       6.471   5.490  -2.490  0.00  0.00    -0.166 F 
ATOM     34  F   UNL     1       5.193   5.757  -4.365  0.00  0.00    -0.166 F 
ENDBRANCH  29  31
ENDBRANCH  23  25
ENDBRANCH   3  21
TORSDOF 8
