REMARK  Name = ZINC33415280
REMARK  13 active torsions:
REMARK  status: ('A' for Active; 'I' for Inactive)
REMARK    1  A    between atoms: C_1  and  C_2
REMARK    2  A    between atoms: C_2  and  C_3
REMARK    3  A    between atoms: C_3  and  N_4
REMARK    4  A    between atoms: C_5  and  C_38
REMARK    5  A    between atoms: C_6  and  C_31
REMARK    6  A    between atoms: C_7  and  C_12
REMARK    7  A    between atoms: C_15  and  N_18
REMARK    8  A    between atoms: C_19  and  C_21
REMARK    9  A    between atoms: C_31  and  O_33
REMARK   10  A    between atoms: O_33  and  C_34
REMARK   11  A    between atoms: C_34  and  C_35
REMARK   12  A    between atoms: C_35  and  C_36
REMARK   13  A    between atoms: C_35  and  C_37
REMARK                            x       y       z     vdW  Elec       q    Type
REMARK                         _______ _______ _______ _____ _____    ______ ____
ROOT
ATOM      1  C   UNL     1       1.899   0.997  -0.884  0.00  0.00    -0.022 A 
ATOM      2  C   UNL     1       1.873   2.275  -1.412  0.00  0.00    +0.007 A 
ATOM      3  C   UNL     1       1.861   2.458  -2.781  0.00  0.00    +0.023 A 
ATOM      4  C   UNL     1       1.864   1.357  -3.627  0.00  0.00    +0.033 A 
ATOM      5  C   UNL     1       1.885   0.075  -3.094  0.00  0.00    +0.023 A 
ATOM      6  C   UNL     1       1.902  -0.101  -1.724  0.00  0.00    +0.007 A 
ENDROOT
BRANCH   1  10
ATOM      7  N   UNL     1       1.642   2.786   2.517  0.00  0.00    -0.259 N 
ATOM      8  C   UNL     1       0.504   2.171   2.078  0.00  0.00    +0.024 C 
ATOM      9  C   UNL     1       0.555   1.193   1.148  0.00  0.00    +0.078 C 
ATOM     10  C   UNL     1       1.917   0.801   0.610  0.00  0.00    +0.143 C 
ATOM     11  N   UNL     1       3.080   1.525   1.149  0.00  0.00    -0.288 N 
ATOM     12  C   UNL     1       2.869   2.480   2.076  0.00  0.00    +0.307 C 
ATOM     13  O   UNL     1       3.823   3.083   2.527  0.00  0.00    -0.252 OA
ATOM     14  C   UNL     1      -0.829   2.591   2.640  0.00  0.00    +0.061 C 
ATOM     15  H   UNL     1       4.093   1.281   0.793  0.00  0.00    +0.151 HD
BRANCH   9  16
ATOM     16  C   UNL     1      -0.622   0.555   0.693  0.00  0.00    +0.339 C 
ATOM     17  O   UNL     1      -1.712   0.962   1.050  0.00  0.00    -0.245 OA
BRANCH  16  18
ATOM     18  O   UNL     1      -0.537  -0.505  -0.138  0.00  0.00    -0.461 OA
BRANCH  18  19
ATOM     19  C   UNL     1      -1.757  -1.175  -0.461  0.00  0.00    +0.235 C 
BRANCH  19  20
ATOM     20  C   UNL     1      -1.460  -2.360  -1.383  0.00  0.00    +0.020 C 
ATOM     21  C   UNL     1      -2.745  -3.152  -1.626  0.00  0.00    +0.010 C 
ATOM     22  C   UNL     1      -0.919  -1.843  -2.718  0.00  0.00    +0.010 C 
ENDBRANCH  19  20
ENDBRANCH  18  19
ENDBRANCH  16  18
ENDBRANCH   9  16
BRANCH   7  23
ATOM     23  C   UNL     1       1.513   3.839   3.527  0.00  0.00    +0.114 C 
BRANCH  23  25
ATOM     24  C   UNL     1       1.299   4.304   5.973  0.00  0.00    +0.005 C 
ATOM     25  C   UNL     1       1.434   3.205   4.918  0.00  0.00    +0.016 C 
ENDBRANCH  23  25
ENDBRANCH   7  23
ENDBRANCH   1  10
BRANCH   4  26
ATOM     26  N   UNL     1       1.847   1.539  -5.015  0.00  0.00    -0.285 N 
ATOM     27  C   UNL     1       2.469   2.602  -5.563  0.00  0.00    +0.223 C 
ATOM     28  O   UNL     1       3.114   3.354  -4.863  0.00  0.00    -0.275 OA
ATOM     29  H   UNL     1       1.326   0.814  -5.658  0.00  0.00    +0.155 HD
BRANCH  27  30
ATOM     30  C   UNL     1       2.362   2.856  -7.044  0.00  0.00    +0.048 C 
ATOM     31  C   UNL     1       2.932   1.659  -7.809  0.00  0.00    +0.019 C 
ATOM     32  C   UNL     1       2.824   1.917  -9.313  0.00  0.00    -0.009 C 
ATOM     33  C   UNL     1       3.615   3.176  -9.673  0.00  0.00    +0.007 C 
ATOM     34  C   UNL     1       3.045   4.373  -8.908  0.00  0.00    -0.009 C 
ATOM     35  C   UNL     1       3.153   4.115  -7.404  0.00  0.00    +0.019 C 
ATOM     36  C   UNL     1       1.575   4.567  -9.288  0.00  0.00    +0.007 C 
ATOM     37  C   UNL     1       0.784   3.308  -8.928  0.00  0.00    -0.009 C 
ATOM     38  C   UNL     1       1.354   2.112  -9.693  0.00  0.00    +0.007 C 
ATOM     39  C   UNL     1       0.893   3.050  -7.424  0.00  0.00    +0.019 C 
ENDBRANCH  27  30
ENDBRANCH   4  26
TORSDOF 9
