REMARK  Name = ZINC41514548
REMARK  8 active torsions:
REMARK  status: ('A' for Active; 'I' for Inactive)
REMARK    1  A    between atoms: C_1  and  C_2
REMARK    2  A    between atoms: C_4  and  O_31
REMARK    3  A    between atoms: C_5  and  C_21
REMARK    4  A    between atoms: C_11  and  C_12
REMARK    5  A    between atoms: C_21  and  N_22
REMARK    6  A    between atoms: N_22  and  C_23
REMARK    7  A    between atoms: N_22  and  C_24
REMARK    8  A    between atoms: C_24  and  C_25
REMARK                            x       y       z     vdW  Elec       q    Type
REMARK                         _______ _______ _______ _____ _____    ______ ____
ROOT
ATOM      1  C   UNL     1      -0.018   1.503   0.010  0.00  0.00    +0.045 C 
ATOM      2  C   UNL     1       0.002  -0.004   0.002  0.00  0.00    -0.033 A 
ATOM      3  C   UNL     1       0.006  -0.682  -1.185  0.00  0.00    +0.050 A 
ATOM      4  C   UNL     1       0.025  -2.074  -1.194  0.00  0.00    +0.122 A 
ATOM      5  C   UNL     1       0.039  -2.787  -0.007  0.00  0.00    +0.020 A 
ATOM      6  C   UNL     1       0.036  -2.114   1.208  0.00  0.00    +0.145 A 
ATOM      7  C   UNL     1       0.023  -0.709   1.206  0.00  0.00    +0.071 A 
ATOM      8  C   UNL     1       0.031  -0.291   2.619  0.00  0.00    +0.232 C 
ATOM      9  O   UNL     1       0.019   0.845   3.061  0.00  0.00    -0.283 OA
ATOM     10  C   UNL     1       0.055  -1.552   3.377  0.00  0.00    +0.176 C 
ATOM     11  C   UNL     1       0.070  -1.675   4.728  0.00  0.00    +0.061 C 
ATOM     12  O   UNL     1       0.048  -2.567   2.481  0.00  0.00    -0.451 OA
ENDROOT
BRANCH  11  13
ATOM     13  C   UNL     1       0.094  -3.008   5.343  0.00  0.00    +0.015 A 
ATOM     14  C   UNL     1      -0.821  -3.989   4.937  0.00  0.00    +0.050 A 
ATOM     15  C   UNL     1      -0.790  -5.239   5.520  0.00  0.00    +0.021 A 
ATOM     16  C   UNL     1       0.139  -5.525   6.505  0.00  0.00    +0.003 A 
ATOM     17  C   UNL     1       1.046  -4.563   6.913  0.00  0.00    +0.021 A 
ATOM     18  C   UNL     1       1.035  -3.309   6.336  0.00  0.00    +0.050 A 
ATOM     19 CL   UNL     1       2.179  -2.106   6.845  0.00  0.00    -0.083 Cl
ATOM     20 CL   UNL     1      -1.989  -3.632   3.703  0.00  0.00    -0.083 Cl
ENDBRANCH  11  13
BRANCH   4  21
ATOM     21  O   UNL     1       0.028  -2.738  -2.378  0.00  0.00    -0.506 OA
ATOM     22  H   UNL     1       0.912  -2.919  -2.725  0.00  0.00    +0.292 HD
ENDBRANCH   4  21
BRANCH   5  23
ATOM     23  C   UNL     1       0.059  -4.294  -0.033  0.00  0.00    -0.035 C 
BRANCH  23  24
ATOM     24  N   UNL     1       1.450  -4.766  -0.048  0.00  0.00    +0.383 N 
ATOM     25  C   UNL     1       2.095  -4.347  -1.299  0.00  0.00    -0.095 C 
ATOM     26  H   UNL     1       1.947  -4.370   0.736  0.00  0.00    -0.081 HD
BRANCH  24  27
ATOM     27  C   UNL     1       1.471  -6.231   0.048  0.00  0.00    -0.043 C 
BRANCH  27  28
ATOM     28  C   UNL     1       2.897  -6.707   0.156  0.00  0.00    -0.064 A 
ATOM     29  C   UNL     1       3.617  -6.997  -0.987  0.00  0.00    +0.002 A 
ATOM     30  C   UNL     1       4.925  -7.433  -0.888  0.00  0.00    +0.000 A 
ATOM     31  C   UNL     1       5.513  -7.580   0.355  0.00  0.00    +0.000 A 
ATOM     32  C   UNL     1       4.792  -7.289   1.498  0.00  0.00    +0.000 A 
ATOM     33  C   UNL     1       3.486  -6.849   1.399  0.00  0.00    +0.002 A 
ENDBRANCH  27  28
ENDBRANCH  24  27
ENDBRANCH  23  24
ENDBRANCH   5  23
TORSDOF 6
