REMARK  Name = ZINC39350715
REMARK  10 active torsions:
REMARK  status: ('A' for Active; 'I' for Inactive)
REMARK    1  A    between atoms: C_4  and  C_7
REMARK    2  A    between atoms: C_7  and  C_8
REMARK    3  A    between atoms: C_8  and  N_9
REMARK    4  A    between atoms: C_10  and  C_12
REMARK    5  A    between atoms: C_12  and  C_13
REMARK    6  A    between atoms: C_13  and  C_14
REMARK    7  A    between atoms: N_16  and  N_17
REMARK    8  A    between atoms: C_18  and  C_20
REMARK    9  A    between atoms: C_25  and  O_30
REMARK   10  A    between atoms: O_30  and  C_31
REMARK                            x       y       z     vdW  Elec       q    Type
REMARK                         _______ _______ _______ _____ _____    ______ ____
ROOT
ATOM      1  N   UNL     1      10.948  -4.652   5.275  0.00  0.00    -0.232 N 
ATOM      2  C   UNL     1      11.593  -5.012   6.402  0.00  0.00    +0.255 C 
ATOM      3  O   UNL     1      11.132  -4.718   7.485  0.00  0.00    -0.272 OA
ATOM      4  H   UNL     1      11.317  -4.887   4.409  0.00  0.00    +0.173 HD
ENDROOT
BRANCH   2   5
ATOM      5  C   UNL     1      12.886  -5.781   6.317  0.00  0.00    +0.191 C 
ATOM      6  C   UNL     1      12.605  -7.250   6.090  0.00  0.00    +0.016 C 
ATOM      7  C   UNL     1      13.130  -7.901   7.153  0.00  0.00    -0.000 A 
ATOM      8  C   UNL     1      13.187  -9.319   7.522  0.00  0.00    +0.056 A 
ATOM      9  C   UNL     1      13.793  -9.684   8.678  0.00  0.00    +0.129 A 
ATOM     10  C   UNL     1      14.377  -8.746   9.547  0.00  0.00    +0.048 A 
ATOM     11  C   UNL     1      14.375  -7.420   9.294  0.00  0.00    +0.029 A 
ATOM     12  C   UNL     1      13.745  -6.914   8.070  0.00  0.00    +0.043 A 
ATOM     13  N   UNL     1      13.607  -5.701   7.593  0.00  0.00    -0.370 N 
ATOM     14  H   UNL     1      13.927  -4.886   8.011  0.00  0.00    +0.161 HD
BRANCH   9  15
ATOM     15  O   UNL     1      13.838 -11.002   9.008  0.00  0.00    -0.456 OA
BRANCH  15  16
ATOM     16  C   UNL     1      13.123 -11.414  10.087  0.00  0.00    +0.128 A 
ATOM     17  C   UNL     1      12.273 -10.530  10.736  0.00  0.00    +0.046 A 
ATOM     18  C   UNL     1      11.546 -10.953  11.832  0.00  0.00    +0.004 A 
ATOM     19  C   UNL     1      11.666 -12.254  12.284  0.00  0.00    +0.000 A 
ATOM     20  C   UNL     1      12.514 -13.136  11.639  0.00  0.00    +0.004 A 
ATOM     21  C   UNL     1      13.238 -12.721  10.538  0.00  0.00    +0.046 A 
ENDBRANCH  15  16
ENDBRANCH   9  15
ENDBRANCH   2   5
BRANCH   1  24
ATOM     22  C   UNL     1       9.101  -3.576   4.227  0.00  0.00    +0.230 C 
ATOM     23  O   UNL     1       9.562  -3.870   3.144  0.00  0.00    -0.274 OA
ATOM     24  N   UNL     1       9.746  -3.937   5.354  0.00  0.00    -0.234 N 
ATOM     25  H   UNL     1       9.378  -3.701   6.220  0.00  0.00    +0.173 HD
BRANCH  22  26
ATOM     26  C   UNL     1       7.808  -2.807   4.311  0.00  0.00    +0.106 C 
BRANCH  26  27
ATOM     27  C   UNL     1       7.288  -2.525   2.900  0.00  0.00    +0.105 C 
BRANCH  27  29
ATOM     28  N   UNL     1       5.350  -1.395   1.858  0.00  0.00    -0.315 N 
ATOM     29  C   UNL     1       5.995  -1.756   2.985  0.00  0.00    +0.213 C 
ATOM     30  O   UNL     1       5.535  -1.462   4.068  0.00  0.00    -0.276 OA
ATOM     31  H   UNL     1       5.719  -1.631   0.992  0.00  0.00    +0.149 HD
BRANCH  28  32
ATOM     32  C   UNL     1       4.093  -0.648   1.940  0.00  0.00    +0.109 C 
BRANCH  32  33
ATOM     33  C   UNL     1       3.574  -0.367   0.529  0.00  0.00    +0.054 C 
BRANCH  33  37
ATOM     34  C   UNL     1      -0.092   1.813   0.768  0.00  0.00    +0.000 A 
ATOM     35  C   UNL     1       1.112   2.490   0.710  0.00  0.00    +0.000 A 
ATOM     36  C   UNL     1       2.298   1.784   0.633  0.00  0.00    +0.004 A 
ATOM     37  C   UNL     1       2.280   0.402   0.614  0.00  0.00    -0.046 A 
ATOM     38  C   UNL     1       1.076  -0.274   0.672  0.00  0.00    +0.004 A 
ATOM     39  C   UNL     1      -0.110   0.431   0.748  0.00  0.00    +0.000 A 
ENDBRANCH  33  37
ENDBRANCH  32  33
ENDBRANCH  28  32
ENDBRANCH  27  29
ENDBRANCH  26  27
ENDBRANCH  22  26
ENDBRANCH   1  24
TORSDOF 10
