REMARK  Name = ZINC09510166
REMARK  15 active torsions:
REMARK  status: ('A' for Active; 'I' for Inactive)
REMARK    1  A    between atoms: C_1  and  C_2
REMARK    2  A    between atoms: C_2  and  N_62
REMARK    3  A    between atoms: C_3  and  C_4
REMARK    4  A    between atoms: C_3  and  N_62
REMARK    5  A    between atoms: C_4  and  C_6
REMARK    6  A    between atoms: C_4  and  O_23
REMARK    7  A    between atoms: C_6  and  O_7
REMARK    8  A    between atoms: O_7  and  C_8
REMARK    9  A    between atoms: C_8  and  C_9
REMARK   10  A    between atoms: C_8  and  C_16
REMARK   11  A    between atoms: C_24  and  C_25
REMARK   12  A    between atoms: C_24  and  N_62
REMARK   13  A    between atoms: C_25  and  C_27
REMARK   14  A    between atoms: C_25  and  O_34
REMARK   15  A    between atoms: C_31  and  O_33
REMARK                            x       y       z     vdW  Elec       q    Type
REMARK                         _______ _______ _______ _____ _____    ______ ____
ROOT
ATOM      1  C   UNL     1       0.679   9.226   2.841  0.00  0.00    +0.124 C 
ENDROOT
BRANCH   1   2
ATOM      2  O   UNL     1      -0.394  10.095   2.475  0.00  0.00    -0.391 OA
ATOM      3  H   UNL     1      -1.114  10.124   3.119  0.00  0.00    +0.210 HD
ENDBRANCH   1   2
BRANCH   1   4
ATOM      4  C   UNL     1       0.179   7.780   2.867  0.00  0.00    -0.045 C 
BRANCH   4   5
ATOM      5  N   UNL     1      -0.153   7.368   1.487  0.00  0.00    +0.383 N 
ATOM      6  H   UNL     1       0.595   7.681   0.857  0.00  0.00    -0.082 HD
BRANCH   5   8
ATOM      7  C   UNL     1      -2.553   7.608   2.027  0.00  0.00    -0.017 C 
ATOM      8  C   UNL     1      -1.426   7.990   1.066  0.00  0.00    -0.082 C 
ENDBRANCH   5   8
BRANCH   5   9
ATOM      9  C   UNL     1      -0.261   5.896   1.411  0.00  0.00    -0.042 C 
BRANCH   9  10
ATOM     10  C   UNL     1      -0.094   5.467  -0.048  0.00  0.00    +0.128 C 
BRANCH  10  11
ATOM     11  C   UNL     1      -0.016   3.964  -0.124  0.00  0.00    -0.017 A 
ATOM     12  C   UNL     1      -1.176   3.214  -0.174  0.00  0.00    +0.006 A 
ATOM     13  C   UNL     1      -1.107   1.835  -0.249  0.00  0.00    +0.004 A 
ATOM     14  C   UNL     1       0.121   1.203  -0.264  0.00  0.00    +0.045 A 
ATOM     15  C   UNL     1       1.287   1.954  -0.214  0.00  0.00    +0.117 A 
ATOM     16  C   UNL     1       1.215   3.338  -0.144  0.00  0.00    +0.051 A 
BRANCH  15  17
ATOM     17  O   UNL     1       2.496   1.335  -0.233  0.00  0.00    -0.507 OA
ATOM     18  H   UNL     1       2.855   1.200  -1.121  0.00  0.00    +0.292 HD
ENDBRANCH  15  17
ENDBRANCH  10  11
BRANCH  10  19
ATOM     19  O   UNL     1      -1.213   5.925  -0.810  0.00  0.00    -0.389 OA
ATOM     20  H   UNL     1      -2.064   5.579  -0.506  0.00  0.00    +0.210 HD
ENDBRANCH  10  19
ENDBRANCH   9  10
ENDBRANCH   5   9
ENDBRANCH   4   5
ENDBRANCH   1   4
BRANCH   1  21
ATOM     21  C   UNL     1       1.198   9.611   4.228  0.00  0.00    +0.190 C 
BRANCH  21  22
ATOM     22  O   UNL     1       1.771  10.919   4.176  0.00  0.00    -0.365 OA
BRANCH  22  23
ATOM     23  C   UNL     1       2.288  11.377   5.426  0.00  0.00    +0.178 C 
BRANCH  23  24
ATOM     24  C   UNL     1       3.444  12.312   5.180  0.00  0.00    -0.014 A 
ATOM     25  C   UNL     1       3.388  13.222   4.141  0.00  0.00    +0.009 A 
ATOM     26  C   UNL     1       4.446  14.083   3.917  0.00  0.00    +0.039 A 
ATOM     27  C   UNL     1       5.567  14.026   4.728  0.00  0.00    +0.123 A 
ATOM     28  C   UNL     1       5.625  13.111   5.765  0.00  0.00    +0.039 A 
ATOM     29  C   UNL     1       4.563  12.255   5.990  0.00  0.00    +0.009 A 
ATOM     30  F   UNL     1       6.603  14.864   4.507  0.00  0.00    -0.205 F 
ENDBRANCH  23  24
BRANCH  23  31
ATOM     31  C   UNL     1       1.205  12.106   6.181  0.00  0.00    -0.014 A 
ATOM     32  C   UNL     1       0.279  12.868   5.494  0.00  0.00    +0.009 A 
ATOM     33  C   UNL     1      -0.718  13.532   6.185  0.00  0.00    +0.039 A 
ATOM     34  C   UNL     1      -0.780  13.443   7.565  0.00  0.00    +0.123 A 
ATOM     35  C   UNL     1       0.151  12.684   8.252  0.00  0.00    +0.039 A 
ATOM     36  C   UNL     1       1.143  12.016   7.559  0.00  0.00    +0.009 A 
ATOM     37  F   UNL     1      -1.751  14.096   8.241  0.00  0.00    -0.205 F 
ENDBRANCH  23  31
ENDBRANCH  22  23
ENDBRANCH  21  22
ENDBRANCH   1  21
TORSDOF 14
