REMARK  Name = ZINC67389365
REMARK  10 active torsions:
REMARK  status: ('A' for Active; 'I' for Inactive)
REMARK    1  A    between atoms: C_1  and  C_2
REMARK    2  A    between atoms: C_2  and  C_4
REMARK    3  A    between atoms: C_2  and  N_15
REMARK    4  A    between atoms: C_8  and  S_10
REMARK    5  A    between atoms: S_10  and  N_13
REMARK    6  A    between atoms: N_13  and  C_14
REMARK    7  A    between atoms: N_18  and  C_19
REMARK    8  A    between atoms: C_19  and  C_20
REMARK    9  A    between atoms: N_26  and  C_27
REMARK   10  A    between atoms: N_26  and  C_28
REMARK                            x       y       z     vdW  Elec       q    Type
REMARK                         _______ _______ _______ _____ _____    ______ ____
ROOT
ATOM      1  N   UNL     1      -1.372  -0.511   0.012  0.00  0.00    -0.293 N 
ATOM      2  C   UNL     1      -2.051  -0.643  -1.145  0.00  0.00    +0.300 C 
ATOM      3  O   UNL     1      -1.522  -0.341  -2.197  0.00  0.00    -0.253 OA
ATOM      4  N   UNL     1      -3.315  -1.109  -1.135  0.00  0.00    -0.295 N 
ATOM      5  H   UNL     1      -1.794  -0.752   0.852  0.00  0.00    +0.151 HD
ATOM      6  H   UNL     1      -3.737  -1.350  -0.295  0.00  0.00    +0.151 HD
ENDROOT
BRANCH   1   8
ATOM      7  C   UNL     1      -0.019   1.526   0.010  0.00  0.00    +0.033 C 
ATOM      8  C   UNL     1       0.002  -0.004   0.002  0.00  0.00    +0.102 C 
BRANCH   8   9
ATOM      9  C   UNL     1       0.731  -0.503   1.223  0.00  0.00    -0.026 A 
ATOM     10  C   UNL     1       0.081  -0.558   2.442  0.00  0.00    +0.005 A 
ATOM     11  C   UNL     1       0.749  -1.016   3.562  0.00  0.00    +0.002 A 
ATOM     12  C   UNL     1       2.068  -1.420   3.463  0.00  0.00    +0.028 A 
ATOM     13  C   UNL     1       2.718  -1.365   2.244  0.00  0.00    +0.106 A 
ATOM     14  C   UNL     1       2.048  -0.911   1.123  0.00  0.00    +0.034 A 
BRANCH  13  15
ATOM     15  S   UNL     1       4.399  -1.879   2.118  0.00  0.00    +0.058 S 
ATOM     16  O   UNL     1       4.941  -1.217   0.984  0.00  0.00    -0.153 OA
ATOM     17  O   UNL     1       4.961  -1.749   3.417  0.00  0.00    -0.153 OA
BRANCH  15  18
ATOM     18  N   UNL     1       4.391  -3.496   1.764  0.00  0.00    -0.193 NA
ATOM     19  C   UNL     1       3.843  -3.965   0.489  0.00  0.00    +0.127 C 
ATOM     20  H   UNL     1       4.750  -4.134   2.401  0.00  0.00    +0.148 HD
ENDBRANCH  15  18
ENDBRANCH  13  15
ENDBRANCH   8   9
ENDBRANCH   1   8
BRANCH   4  21
ATOM     21  C   UNL     1      -4.053  -1.252  -2.393  0.00  0.00    +0.142 C 
BRANCH  21  22
ATOM     22  C   UNL     1      -5.432  -1.789  -2.108  0.00  0.00    -0.014 A 
ATOM     23  C   UNL     1      -5.660  -3.159  -2.084  0.00  0.00    +0.010 A 
ATOM     24  C   UNL     1      -6.941  -3.610  -1.819  0.00  0.00    +0.042 A 
ATOM     25  C   UNL     1      -7.950  -2.682  -1.587  0.00  0.00    +0.098 A 
ATOM     26  N   UNL     1      -7.692  -1.383  -1.618  0.00  0.00    -0.349 N 
ATOM     27  C   UNL     1      -6.479  -0.925  -1.863  0.00  0.00    +0.089 A 
ATOM     28  N   UNL     1      -9.242  -3.121  -1.320  0.00  0.00    -0.323 N 
ATOM     29  C   UNL     1      -9.534  -4.556  -1.284  0.00  0.00    +0.130 C 
ATOM     30  C   UNL     1     -10.310  -2.149  -1.074  0.00  0.00    +0.130 C 
ATOM     31  H   UNL     1      -8.412  -0.754  -1.453  0.00  0.00    +0.167 HD
ENDBRANCH  21  22
ENDBRANCH   4  21
TORSDOF 6
