REMARK  Name = ZINC63832903
REMARK  5 active torsions:
REMARK  status: ('A' for Active; 'I' for Inactive)
REMARK    1  A    between atoms: C_1  and  C_2
REMARK    2  A    between atoms: C_4  and  N_8
REMARK    3  A    between atoms: N_11  and  C_12
REMARK    4  A    between atoms: C_12  and  C_13
REMARK    5  A    between atoms: C_18  and  C_19
REMARK                            x       y       z     vdW  Elec       q    Type
REMARK                         _______ _______ _______ _____ _____    ______ ____
ROOT
ATOM      1  N   UNL     1      -1.597  -2.668  -1.213  0.00  0.00    -0.269 N 
ATOM      2  C   UNL     1      -1.869  -3.987  -1.271  0.00  0.00    +0.302 C 
ATOM      3  O   UNL     1      -1.617  -4.702  -0.321  0.00  0.00    -0.253 OA
ATOM      4  N   UNL     1      -2.420  -4.513  -2.383  0.00  0.00    -0.298 N 
ATOM      5  H   UNL     1      -1.798  -2.098  -1.971  0.00  0.00    +0.153 HD
ATOM      6  H   UNL     1      -2.621  -3.943  -3.141  0.00  0.00    +0.150 HD
ENDROOT
BRANCH   1  10
ATOM      7  C   UNL     1      -0.018   1.503   0.010  0.00  0.00    +0.081 C 
ATOM      8  C   UNL     1       0.002  -0.004   0.002  0.00  0.00    +0.076 C 
ATOM      9  N   UNL     1      -1.107  -0.621   0.005  0.00  0.00    -0.349 N 
ATOM     10  C   UNL     1      -0.997  -2.097  -0.004  0.00  0.00    +0.249 C 
ATOM     11  S   UNL     1       0.834  -2.273  -0.016  0.00  0.00    -0.015 S 
ATOM     12  N   UNL     1       1.214  -0.636  -0.013  0.00  0.00    -0.276 N 
ATOM     13  H   UNL     1       2.095  -0.230  -0.020  0.00  0.00    +0.161 HD
ATOM     14  H   UNL     1      -1.960  -0.160   0.012  0.00  0.00    +0.163 HD
ENDBRANCH   1  10
BRANCH   4  15
ATOM     15  C   UNL     1      -2.716  -5.947  -2.446  0.00  0.00    +0.121 C 
BRANCH  15  16
ATOM     16  C   UNL     1      -3.332  -6.281  -3.806  0.00  0.00    +0.101 C 
ATOM     17  C   UNL     1      -4.715  -5.674  -3.929  0.00  0.00    +0.119 C 
ATOM     18  N   UNL     1      -5.532  -6.665  -4.082  0.00  0.00    -0.161 NA
ATOM     19  N   UNL     1      -4.884  -7.895  -4.081  0.00  0.00    -0.153 NA
ATOM     20  C   UNL     1      -3.586  -7.771  -3.926  0.00  0.00    +0.087 C 
BRANCH  20  21
ATOM     21  C   UNL     1      -2.623  -8.809  -3.878  0.00  0.00    +0.036 A 
ATOM     22  C   UNL     1      -2.809 -10.181  -3.989  0.00  0.00    +0.017 A 
ATOM     23  C   UNL     1      -1.669 -10.945  -3.904  0.00  0.00    +0.008 A 
ATOM     24  C   UNL     1      -0.475 -10.329  -3.723  0.00  0.00    +0.046 A 
ATOM     25  S   UNL     1      -0.856  -8.694  -3.670  0.00  0.00    -0.095 S 
ENDBRANCH  20  21
ENDBRANCH  15  16
ENDBRANCH   4  15
TORSDOF 4
