REMARK  Name = ZINC37942972
REMARK  5 active torsions:
REMARK  status: ('A' for Active; 'I' for Inactive)
REMARK    1  A    between atoms: C_6  and  C_7
REMARK    2  A    between atoms: C_7  and  C_9
REMARK    3  A    between atoms: C_7  and  N_12
REMARK    4  A    between atoms: N_12  and  C_13
REMARK    5  A    between atoms: C_13  and  C_14
REMARK                            x       y       z     vdW  Elec       q    Type
REMARK                         _______ _______ _______ _____ _____    ______ ____
ROOT
ATOM      1  C   UNL     1      -1.293  -0.775   0.010  0.00  0.00    +0.047 C 
ENDROOT
BRANCH   1   7
ATOM      2  C   UNL     1      -0.017   1.378   0.010  0.00  0.00    +0.005 A 
ATOM      3  C   UNL     1       1.170   2.086   0.002  0.00  0.00    +0.040 A 
ATOM      4  C   UNL     1       2.379   1.411  -0.013  0.00  0.00    +0.137 A 
ATOM      5  C   UNL     1       2.397   0.026  -0.021  0.00  0.00    +0.053 A 
ATOM      6  C   UNL     1       1.208  -0.680  -0.013  0.00  0.00    +0.020 A 
ATOM      7  C   UNL     1       0.002  -0.004   0.002  0.00  0.00    -0.052 A 
ATOM      8 BR   UNL     1       4.046  -0.899  -0.042  0.00  0.00    -0.047 Br
ATOM      9  F   UNL     1       3.539   2.103  -0.021  0.00  0.00    -0.204 F 
ENDBRANCH   1   7
BRANCH   1  10
ATOM     10  C   UNL     1      -1.612  -1.236  -1.389  0.00  0.00    +0.201 C 
ATOM     11  O   UNL     1      -1.720  -2.420  -1.627  0.00  0.00    -0.277 OA
ATOM     12  N   UNL     1      -1.777  -0.333  -2.375  0.00  0.00    -0.330 N 
ATOM     13  H   UNL     1      -1.690   0.615  -2.184  0.00  0.00    +0.145 HD
ATOM     14  H   UNL     1      -1.982  -0.629  -3.275  0.00  0.00    +0.145 HD
ENDBRANCH   1  10
BRANCH   1  15
ATOM     15  N   UNL     1      -1.163  -1.942   0.893  0.00  0.00    +0.391 N 
ATOM     16  H   UNL     1      -0.477  -2.576   0.513  0.00  0.00    -0.084 HD
ATOM     17  H   UNL     1      -0.869  -1.639   1.810  0.00  0.00    -0.084 HD
BRANCH  15  18
ATOM     18  C   UNL     1      -2.459  -2.625   0.995  0.00  0.00    -0.049 C 
BRANCH  18  19
ATOM     19  C   UNL     1      -2.324  -3.840   1.915  0.00  0.00    +0.101 C 
ATOM     20  C   UNL     1      -3.673  -4.597   2.009  0.00  0.00    +0.032 C 
ATOM     21  C   UNL     1      -3.186  -6.022   2.386  0.00  0.00    +0.030 C 
ATOM     22  C   UNL     1      -1.846  -6.123   1.625  0.00  0.00    +0.160 C 
ATOM     23  O   UNL     1      -1.399  -4.787   1.357  0.00  0.00    -0.378 OA
ENDBRANCH  18  19
ENDBRANCH  15  18
ENDBRANCH   1  15
TORSDOF 5
