REMARK  Name = ZINC63385435
REMARK  7 active torsions:
REMARK  status: ('A' for Active; 'I' for Inactive)
REMARK    1  A    between atoms: C_7  and  C_10
REMARK    2  A    between atoms: C_10  and  C_11
REMARK    3  A    between atoms: C_11  and  N_12
REMARK    4  A    between atoms: C_13  and  C_15
REMARK    5  A    between atoms: C_15  and  C_16
REMARK    6  A    between atoms: C_16  and  N_17
REMARK    7  A    between atoms: C_22  and  O_30
REMARK                            x       y       z     vdW  Elec       q    Type
REMARK                         _______ _______ _______ _____ _____    ______ ____
ROOT
ATOM      1  C   UNL     1      -1.752  -6.557  -2.622  0.00  0.00    +0.114 C 
ENDROOT
BRANCH   1   3
ATOM      2  N   UNL     1      -0.458  -4.798  -1.460  0.00  0.00    -0.315 N 
ATOM      3  C   UNL     1      -0.811  -5.380  -2.623  0.00  0.00    +0.215 C 
ATOM      4  O   UNL     1      -0.371  -4.957  -3.671  0.00  0.00    -0.276 OA
ATOM      5  H   UNL     1      -0.810  -5.136  -0.622  0.00  0.00    +0.149 HD
BRANCH   2   6
ATOM      6  C   UNL     1       0.457  -3.653  -1.462  0.00  0.00    +0.108 C 
BRANCH   6   7
ATOM      7  C   UNL     1       0.691  -3.186  -0.024  0.00  0.00    +0.052 C 
BRANCH   7  14
ATOM      8  C   UNL     1      -0.016   1.348   0.009  0.00  0.00    +0.001 A 
ATOM      9  C   UNL     1       1.166   2.101   0.002  0.00  0.00    +0.002 A 
ATOM     10  C   UNL     1       2.391   1.535  -0.013  0.00  0.00    +0.026 A 
ATOM     11  C   UNL     1       2.529   0.120  -0.022  0.00  0.00    +0.043 A 
ATOM     12  N   UNL     1       3.587  -0.654  -0.037  0.00  0.00    -0.380 N 
ATOM     13  C   UNL     1       3.143  -2.053  -0.041  0.00  0.00    +0.144 C 
ATOM     14  C   UNL     1       1.631  -2.008  -0.025  0.00  0.00    -0.040 C 
ATOM     15  C   UNL     1       1.295  -0.698  -0.014  0.00  0.00    -0.001 A 
ATOM     16  C   UNL     1       0.002  -0.004   0.002  0.00  0.00    +0.010 A 
ATOM     17  H   UNL     1       4.509  -0.353  -0.045  0.00  0.00    +0.160 HD
ENDBRANCH   7  14
ENDBRANCH   6   7
ENDBRANCH   2   6
ENDBRANCH   1   3
BRANCH   1  18
ATOM     18  C   UNL     1      -1.986  -7.025  -4.059  0.00  0.00    +0.115 C 
BRANCH  18  19
ATOM     19  N   UNL     1      -2.901  -8.169  -4.058  0.00  0.00    -0.299 N 
ATOM     20  C   UNL     1      -3.253  -8.752  -5.221  0.00  0.00    +0.307 C 
ATOM     21  O   UNL     1      -2.812  -8.328  -6.272  0.00  0.00    -0.252 OA
ATOM     22  N   UNL     1      -4.095  -9.805  -5.220  0.00  0.00    -0.245 N 
ATOM     23  C   UNL     1      -4.652 -10.341  -3.967  0.00  0.00    +0.210 C 
ATOM     24  C   UNL     1      -4.664 -11.845  -4.040  0.00  0.00    +0.206 C 
ATOM     25  N   UNL     1      -4.745 -12.470  -5.171  0.00  0.00    -0.214 NA
ATOM     26  C   UNL     1      -4.810 -11.800  -6.363  0.00  0.00    +0.089 A 
ATOM     27  C   UNL     1      -4.482 -10.434  -6.412  0.00  0.00    +0.064 A 
ATOM     28  C   UNL     1      -4.540  -9.743  -7.606  0.00  0.00    +0.026 A 
ATOM     29  C   UNL     1      -4.932 -10.399  -8.761  0.00  0.00    +0.002 A 
ATOM     30  C   UNL     1      -5.266 -11.740  -8.722  0.00  0.00    +0.002 A 
ATOM     31  C   UNL     1      -5.202 -12.450  -7.530  0.00  0.00    +0.030 A 
ATOM     32  H   UNL     1      -3.252  -8.508  -3.220  0.00  0.00    +0.150 HD
BRANCH  24  33
ATOM     33  O   UNL     1      -4.590 -12.560  -2.898  0.00  0.00    -0.494 OA
ATOM     34  H   UNL     1      -4.603 -13.517  -3.032  0.00  0.00    +0.293 HD
ENDBRANCH  24  33
ENDBRANCH  18  19
ENDBRANCH   1  18
TORSDOF 7
