REMARK  Name = ZINC30829630
REMARK  10 active torsions:
REMARK  status: ('A' for Active; 'I' for Inactive)
REMARK    1  A    between atoms: C_1  and  C_2
REMARK    2  A    between atoms: C_2  and  O_3
REMARK    3  A    between atoms: O_3  and  C_4
REMARK    4  A    between atoms: C_7  and  C_11
REMARK    5  A    between atoms: N_13  and  C_14
REMARK    6  A    between atoms: C_14  and  N_16
REMARK    7  A    between atoms: C_22  and  C_26
REMARK    8  A    between atoms: C_26  and  O_28
REMARK    9  A    between atoms: O_28  and  C_29
REMARK   10  A    between atoms: C_29  and  C_30
REMARK                            x       y       z     vdW  Elec       q    Type
REMARK                         _______ _______ _______ _____ _____    ______ ____
ROOT
ATOM      1  C   UNL     1      -4.853   3.840   0.070  0.00  0.00    +0.163 C 
ATOM      2  S   UNL     1      -4.873   5.552   0.080  0.00  0.00    -0.016 S 
ENDROOT
BRANCH   1   3
ATOM      3  N   UNL     1      -6.013   3.153   0.077  0.00  0.00    -0.169 NA
ATOM      4  C   UNL     1      -7.218   3.830   0.092  0.00  0.00    +0.163 A 
ATOM      5  N   UNL     1      -7.436   5.127   0.102  0.00  0.00    -0.335 N 
ATOM      6  C   UNL     1      -8.669   5.654   0.116  0.00  0.00    +0.055 A 
ATOM      7  C   UNL     1      -9.030   7.025   0.127  0.00  0.00    +0.027 A 
ATOM      8  C   UNL     1     -10.331   7.406   0.141  0.00  0.00    +0.017 A 
ATOM      9  C   UNL     1     -11.370   6.464   0.146  0.00  0.00    +0.060 A 
ATOM     10  C   UNL     1     -11.050   5.101   0.136  0.00  0.00    +0.032 A 
ATOM     11  C   UNL     1      -9.736   4.722   0.121  0.00  0.00    +0.039 A 
ATOM     12  S   UNL     1      -8.877   3.167   0.098  0.00  0.00    -0.052 S 
ATOM     13  H   UNL     1      -6.588   5.827   0.097  0.00  0.00    +0.168 HD
BRANCH   9  14
ATOM     14  C   UNL     1     -12.776   6.902   0.161  0.00  0.00    +0.339 C 
ATOM     15  O   UNL     1     -13.669   6.077   0.165  0.00  0.00    -0.245 OA
BRANCH  14  16
ATOM     16  O   UNL     1     -13.073   8.216   0.170  0.00  0.00    -0.461 OA
BRANCH  16  17
ATOM     17  C   UNL     1     -14.480   8.575   0.185  0.00  0.00    +0.229 C 
ATOM     18  C   UNL     1     -14.618  10.098   0.194  0.00  0.00    +0.048 C 
ENDBRANCH  16  17
ENDBRANCH  14  16
ENDBRANCH   9  14
ENDBRANCH   1   3
BRANCH   1  21
ATOM     19  C   UNL     1      -2.519   3.867   0.047  0.00  0.00    +0.250 C 
ATOM     20  O   UNL     1      -2.533   5.083   0.054  0.00  0.00    -0.270 OA
ATOM     21  N   UNL     1      -3.678   3.180   0.054  0.00  0.00    -0.262 N 
ATOM     22  H   UNL     1      -3.666   2.080   0.048  0.00  0.00    +0.157 HD
BRANCH  19  26
ATOM     23  C   UNL     1       1.182   1.786   0.000  0.00  0.00    +0.134 A 
ATOM     24  C   UNL     1      -0.013   1.076   0.008  0.00  0.00    +0.047 A 
ATOM     25  C   UNL     1      -1.215   1.747   0.017  0.00  0.00    +0.017 A 
ATOM     26  C   UNL     1      -1.233   3.145   0.030  0.00  0.00    +0.038 A 
ATOM     27  C   UNL     1      -0.030   3.856   0.023  0.00  0.00    +0.032 A 
ATOM     28  C   UNL     1       1.169   3.177   0.007  0.00  0.00    +0.060 A 
ATOM     29 BR   UNL     1       2.798   4.137  -0.003  0.00  0.00    -0.046 Br
BRANCH  23  30
ATOM     30  O   UNL     1       2.365   1.121  -0.015  0.00  0.00    -0.491 OA
BRANCH  30  32
ATOM     31  C   UNL     1       3.726  -0.876  -0.038  0.00  0.00    +0.048 C 
ATOM     32  C   UNL     1       2.306  -0.307  -0.022  0.00  0.00    +0.226 C 
ENDBRANCH  30  32
ENDBRANCH  23  30
ENDBRANCH  19  26
ENDBRANCH   1  21
TORSDOF 8
