REMARK  Name = ZINC37062935
REMARK  11 active torsions:
REMARK  status: ('A' for Active; 'I' for Inactive)
REMARK    1  A    between atoms: C_1  and  C_2
REMARK    2  A    between atoms: C_2  and  N_3
REMARK    3  A    between atoms: N_3  and  C_4
REMARK    4  A    between atoms: N_3  and  C_6
REMARK    5  A    between atoms: C_4  and  C_5
REMARK    6  A    between atoms: C_6  and  C_7
REMARK    7  A    between atoms: C_7  and  C_8
REMARK    8  A    between atoms: C_8  and  N_9
REMARK    9  A    between atoms: N_9  and  S_10
REMARK   10  A    between atoms: S_10  and  C_13
REMARK   11  A    between atoms: C_18  and  N_19
REMARK                            x       y       z     vdW  Elec       q    Type
REMARK                         _______ _______ _______ _____ _____    ______ ____
ROOT
ATOM      1  S   UNL     1       2.039  -5.601  -4.593  0.00  0.00    +0.060 S 
ATOM      2  O   UNL     1       2.862  -5.966  -5.693  0.00  0.00    -0.153 OA
ATOM      3  O   UNL     1       2.225  -6.141  -3.292  0.00  0.00    -0.153 OA
ENDROOT
BRANCH   1   4
ATOM      4  C   UNL     1       0.381  -5.970  -5.060  0.00  0.00    +0.126 A 
ATOM      5  C   UNL     1      -0.426  -6.710  -4.218  0.00  0.00    +0.031 A 
ATOM      6  C   UNL     1      -1.728  -7.000  -4.582  0.00  0.00    +0.017 A 
ATOM      7  C   UNL     1      -2.227  -6.550  -5.792  0.00  0.00    +0.020 A 
ATOM      8  C   UNL     1      -1.425  -5.810  -6.640  0.00  0.00    +0.040 A 
ATOM      9  C   UNL     1      -0.118  -5.512  -6.273  0.00  0.00    +0.052 A 
ATOM     10 BR   UNL     1      -4.008  -6.949  -6.287  0.00  0.00    -0.050 Br
BRANCH   9  11
ATOM     11  N   UNL     1       0.694  -4.759  -7.124  0.00  0.00    -0.356 N 
ATOM     12  H   UNL     1       1.625  -4.607  -6.897  0.00  0.00    +0.142 HD
ATOM     13  H   UNL     1       0.327  -4.388  -7.941  0.00  0.00    +0.142 HD
ENDBRANCH   9  11
ENDBRANCH   1   4
BRANCH   1  14
ATOM     14  N   UNL     1       2.152  -3.956  -4.444  0.00  0.00    -0.190 NA
ATOM     15  H   UNL     1       2.734  -3.454  -5.035  0.00  0.00    +0.148 HD
BRANCH  14  16
ATOM     16  C   UNL     1       1.371  -3.258  -3.419  0.00  0.00    +0.104 C 
BRANCH  16  17
ATOM     17  C   UNL     1       1.948  -1.858  -3.204  0.00  0.00    -0.002 C 
BRANCH  17  18
ATOM     18  C   UNL     1       1.133  -1.129  -2.134  0.00  0.00    -0.078 C 
BRANCH  18  19
ATOM     19  N   UNL     1       1.747   0.176  -1.855  0.00  0.00    +0.379 N 
ATOM     20  H   UNL     1       2.719   0.047  -1.616  0.00  0.00    -0.082 HD
BRANCH  19  22
ATOM     21  C   UNL     1       2.392   2.342  -2.798  0.00  0.00    -0.017 C 
ATOM     22  C   UNL     1       1.644   1.030  -3.046  0.00  0.00    -0.082 C 
ENDBRANCH  19  22
BRANCH  19  23
ATOM     23  C   UNL     1       1.048   0.816  -0.732  0.00  0.00    -0.082 C 
ATOM     24  C   UNL     1       1.281   0.002   0.543  0.00  0.00    -0.017 C 
ENDBRANCH  19  23
ENDBRANCH  18  19
ENDBRANCH  17  18
ENDBRANCH  16  17
ENDBRANCH  14  16
ENDBRANCH   1  14
TORSDOF 9
