REMARK  Name = ZINC62727936
REMARK  12 active torsions:
REMARK  status: ('A' for Active; 'I' for Inactive)
REMARK    1  A    between atoms: C_1  and  C_2
REMARK    2  A    between atoms: C_2  and  N_3
REMARK    3  A    between atoms: C_4  and  C_6
REMARK    4  A    between atoms: C_6  and  C_8
REMARK    5  A    between atoms: C_6  and  O_9
REMARK    6  A    between atoms: O_9  and  C_10
REMARK    7  A    between atoms: C_13  and  C_17
REMARK    8  A    between atoms: C_17  and  N_18
REMARK    9  A    between atoms: N_18  and  C_19
REMARK   10  A    between atoms: C_19  and  C_20
REMARK   11  A    between atoms: C_19  and  C_21
REMARK   12  A    between atoms: C_19  and  C_22
REMARK                            x       y       z     vdW  Elec       q    Type
REMARK                         _______ _______ _______ _____ _____    ______ ____
ROOT
ATOM      1  C   UNL     1      -3.994  -4.362   0.848  0.00  0.00    +0.136 A 
ATOM      2  C   UNL     1      -5.030  -3.585   1.345  0.00  0.00    +0.047 A 
ATOM      3  C   UNL     1      -6.043  -4.173   2.077  0.00  0.00    +0.005 A 
ATOM      4  C   UNL     1      -6.026  -5.535   2.315  0.00  0.00    -0.063 A 
ATOM      5  C   UNL     1      -4.995  -6.312   1.821  0.00  0.00    +0.020 A 
ATOM      6  C   UNL     1      -3.981  -5.730   1.083  0.00  0.00    +0.060 A 
ATOM      7 BR   UNL     1      -2.575  -6.794   0.401  0.00  0.00    -0.047 Br
ENDROOT
BRANCH   1   8
ATOM      8  O   UNL     1      -2.996  -3.786   0.128  0.00  0.00    -0.479 OA
BRANCH   8   9
ATOM      9  C   UNL     1      -3.012  -2.361   0.021  0.00  0.00    +0.255 C 
ATOM     10  C   UNL     1      -3.926  -1.947  -1.134  0.00  0.00    +0.062 C 
BRANCH   9  12
ATOM     11  N   UNL     1      -1.370  -0.536  -0.279  0.00  0.00    -0.313 N 
ATOM     12  C   UNL     1      -1.615  -1.861  -0.241  0.00  0.00    +0.254 C 
ATOM     13  O   UNL     1      -0.711  -2.650  -0.417  0.00  0.00    -0.272 OA
ATOM     14  H   UNL     1      -2.092   0.096  -0.138  0.00  0.00    +0.149 HD
BRANCH  11  16
ATOM     15  C   UNL     1      -0.007   1.480  -0.524  0.00  0.00    +0.024 C 
ATOM     16  C   UNL     1      -0.011  -0.050  -0.533  0.00  0.00    +0.101 C 
ENDBRANCH  11  16
ENDBRANCH   9  12
ENDBRANCH   8   9
ENDBRANCH   1   8
BRANCH   4  17
ATOM     17  C   UNL     1      -7.133  -6.173   3.114  0.00  0.00    -0.046 C 
BRANCH  17  18
ATOM     18  N   UNL     1      -8.211  -6.593   2.209  0.00  0.00    +0.385 N 
ATOM     19  H   UNL     1      -8.571  -5.788   1.719  0.00  0.00    -0.085 HD
ATOM     20  H   UNL     1      -7.850  -7.259   1.543  0.00  0.00    -0.085 HD
BRANCH  18  21
ATOM     21  C   UNL     1      -9.290  -7.215   2.988  0.00  0.00    -0.077 C 
ATOM     22  C   UNL     1      -9.837  -6.205   3.999  0.00  0.00    -0.011 C 
ATOM     23  C   UNL     1     -10.413  -7.653   2.046  0.00  0.00    -0.011 C 
ATOM     24  C   UNL     1      -8.743  -8.435   3.732  0.00  0.00    -0.011 C 
ENDBRANCH  18  21
ENDBRANCH  17  18
ENDBRANCH   4  17
TORSDOF 7
