REMARK  Name = ZINC31959853
REMARK  5 active torsions:
REMARK  status: ('A' for Active; 'I' for Inactive)
REMARK    1  A    between atoms: C_4  and  C_7
REMARK    2  A    between atoms: C_10  and  C_13
REMARK    3  A    between atoms: N_18  and  C_19
REMARK    4  A    between atoms: C_19  and  C_21
REMARK    5  A    between atoms: C_21  and  N_22
REMARK                            x       y       z     vdW  Elec       q    Type
REMARK                         _______ _______ _______ _____ _____    ______ ____
ROOT
ATOM      1  C   UNL     1       7.412  -2.755  -0.087  0.00  0.00    +0.055 A 
ATOM      2  C   UNL     1       8.592  -2.093  -0.086  0.00  0.00    +0.074 A 
ATOM      3  S   UNL     1       9.768  -3.433  -0.111  0.00  0.00    -0.060 S 
ATOM      4  C   UNL     1       8.691  -4.723  -0.122  0.00  0.00    +0.163 A 
ATOM      5  N   UNL     1       7.472  -4.120  -0.101  0.00  0.00    -0.335 N 
ATOM      6  N   UNL     1       8.966  -6.028  -0.141  0.00  0.00    -0.158 NA
ATOM      7  H   UNL     1       6.660  -4.650  -0.099  0.00  0.00    +0.168 HD
ENDROOT
BRANCH   1  11
ATOM      8  C   UNL     1       3.698  -0.688  -0.038  0.00  0.00    -0.018 A 
ATOM      9  C   UNL     1       4.895   0.029  -0.041  0.00  0.00    +0.009 A 
ATOM     10  C   UNL     1       6.098  -0.640  -0.057  0.00  0.00    +0.010 A 
ATOM     11  C   UNL     1       6.121  -2.036  -0.070  0.00  0.00    -0.001 A 
ATOM     12  C   UNL     1       4.922  -2.753  -0.067  0.00  0.00    +0.010 A 
ATOM     13  C   UNL     1       3.720  -2.083  -0.046  0.00  0.00    +0.009 A 
BRANCH   8  17
ATOM     14  C   UNL     1      -0.017   1.379   0.010  0.00  0.00    +0.000 A 
ATOM     15  C   UNL     1       1.169   2.092   0.002  0.00  0.00    +0.001 A 
ATOM     16  C   UNL     1       2.377   1.427  -0.013  0.00  0.00    +0.008 A 
ATOM     17  C   UNL     1       2.402   0.033  -0.021  0.00  0.00    -0.018 A 
ATOM     18  C   UNL     1       1.205  -0.680  -0.013  0.00  0.00    +0.008 A 
ATOM     19  C   UNL     1       0.002  -0.004   0.002  0.00  0.00    +0.001 A 
ENDBRANCH   8  17
ENDBRANCH   1  11
BRANCH   6  20
ATOM     20  C   UNL     1      10.227  -6.440  -0.154  0.00  0.00    +0.221 C 
ATOM     21  O   UNL     1      11.133  -5.628  -0.148  0.00  0.00    -0.276 OA
BRANCH  20  22
ATOM     22  C   UNL     1      10.538  -7.915  -0.176  0.00  0.00    +0.013 C 
BRANCH  22  23
ATOM     23  N   UNL     1      11.994  -8.108  -0.187  0.00  0.00    +0.384 N 
ATOM     24  H   UNL     1      12.386  -7.670  -1.007  0.00  0.00    -0.089 HD
ATOM     25  H   UNL     1      12.395  -7.692   0.640  0.00  0.00    -0.089 HD
ATOM     26  H   UNL     1      12.202  -9.095  -0.202  0.00  0.00    -0.089 HD
ENDBRANCH  22  23
ENDBRANCH  20  22
ENDBRANCH   6  20
TORSDOF 5
