REMARK  Name = ZINC37013323
REMARK  7 active torsions:
REMARK  status: ('A' for Active; 'I' for Inactive)
REMARK    1  A    between atoms: C_1  and  C_2
REMARK    2  A    between atoms: C_2  and  C_4
REMARK    3  A    between atoms: C_2  and  N_12
REMARK    4  A    between atoms: C_6  and  O_11
REMARK    5  A    between atoms: C_9  and  O_10
REMARK    6  A    between atoms: N_12  and  C_13
REMARK    7  A    between atoms: C_15  and  C_20
REMARK                            x       y       z     vdW  Elec       q    Type
REMARK                         _______ _______ _______ _____ _____    ______ ____
ROOT
ATOM      1  N   UNL     1       0.587  -0.473   1.261  0.00  0.00    -0.335 N 
ATOM      2  H   UNL     1       1.540  -0.644   1.319  0.00  0.00    +0.147 HD
ENDROOT
BRANCH   1   3
ATOM      3  C   UNL     1      -0.230  -0.674   2.379  0.00  0.00    +0.064 A 
ATOM      4  C   UNL     1      -1.591  -0.435   2.295  0.00  0.00    +0.039 A 
ATOM      5  C   UNL     1      -2.402  -0.637   3.413  0.00  0.00    +0.038 A 
ATOM      6  C   UNL     1      -1.835  -1.079   4.610  0.00  0.00    +0.016 A 
ATOM      7  C   UNL     1      -0.478  -1.314   4.686  0.00  0.00    +0.041 A 
ATOM      8  C   UNL     1       0.326  -1.119   3.576  0.00  0.00    +0.144 A 
ATOM      9  F   UNL     1       1.653  -1.357   3.655  0.00  0.00    -0.204 F 
BRANCH   5  10
ATOM     10  C   UNL     1      -3.855  -0.384   3.330  0.00  0.00    +0.242 C 
ATOM     11  O   UNL     1      -4.346   0.001   2.287  0.00  0.00    -0.270 OA
ATOM     12  N   UNL     1      -4.636  -0.580   4.411  0.00  0.00    -0.325 N 
ATOM     13  H   UNL     1      -4.244  -0.887   5.243  0.00  0.00    +0.145 HD
ATOM     14  H   UNL     1      -5.590  -0.413   4.356  0.00  0.00    +0.145 HD
ENDBRANCH   5  10
ENDBRANCH   1   3
BRANCH   1  16
ATOM     15  C   UNL     1      -0.085   1.523   0.018  0.00  0.00    +0.033 C 
ATOM     16  C   UNL     1       0.002  -0.004   0.002  0.00  0.00    +0.101 C 
BRANCH  16  17
ATOM     17  C   UNL     1       0.868  -0.446  -1.149  0.00  0.00    +0.017 A 
ATOM     18  C   UNL     1       2.220  -0.656  -0.956  0.00  0.00    +0.054 A 
ATOM     19  C   UNL     1       3.017  -1.064  -2.015  0.00  0.00    +0.117 A 
ATOM     20  C   UNL     1       2.457  -1.260  -3.269  0.00  0.00    +0.049 A 
ATOM     21  C   UNL     1       1.105  -1.050  -3.462  0.00  0.00    +0.049 A 
ATOM     22  C   UNL     1       0.307  -0.648  -2.401  0.00  0.00    +0.122 A 
BRANCH  22  23
ATOM     23  O   UNL     1      -1.024  -0.447  -2.590  0.00  0.00    -0.506 OA
ATOM     24  H   UNL     1      -1.253   0.456  -2.851  0.00  0.00    +0.292 HD
ENDBRANCH  22  23
BRANCH  19  25
ATOM     25  O   UNL     1       4.347  -1.270  -1.825  0.00  0.00    -0.507 OA
ATOM     26  H   UNL     1       4.572  -2.174  -1.566  0.00  0.00    +0.292 HD
ENDBRANCH  19  25
ENDBRANCH  16  17
ENDBRANCH   1  16
TORSDOF 6
