REMARK  Name = ZINC48546349
REMARK  10 active torsions:
REMARK  status: ('A' for Active; 'I' for Inactive)
REMARK    1  A    between atoms: C_1  and  N_2
REMARK    2  A    between atoms: N_7  and  C_10
REMARK    3  A    between atoms: N_11  and  C_16
REMARK    4  A    between atoms: C_12  and  C_14
REMARK    5  A    between atoms: C_14  and  O_15
REMARK    6  A    between atoms: C_16  and  C_17
REMARK    7  A    between atoms: C_17  and  C_19
REMARK    8  A    between atoms: C_17  and  O_27
REMARK    9  A    between atoms: C_19  and  N_20
REMARK   10  A    between atoms: N_20  and  C_21
REMARK                            x       y       z     vdW  Elec       q    Type
REMARK                         _______ _______ _______ _____ _____    ______ ____
ROOT
ATOM      1  C   UNL     1      -0.018   1.461   0.010  0.00  0.00    +0.155 C 
ATOM      2  N   UNL     1       0.002  -0.004   0.002  0.00  0.00    -0.280 N 
ATOM      3  C   UNL     1      -1.189  -0.712   0.004  0.00  0.00    +0.168 A 
ATOM      4  C   UNL     1      -1.144  -2.100  -0.004  0.00  0.00    +0.152 A 
ATOM      5  C   UNL     1       0.111  -2.748  -0.013  0.00  0.00    +0.282 A 
ATOM      6  O   UNL     1       0.176  -3.964  -0.021  0.00  0.00    -0.265 OA
ATOM      7  N   UNL     1       1.236  -2.003  -0.015  0.00  0.00    -0.262 N 
ATOM      8  C   UNL     1       1.178  -0.660  -0.013  0.00  0.00    +0.333 A 
ATOM      9  O   UNL     1       2.213  -0.022  -0.020  0.00  0.00    -0.246 OA
ATOM     10  C   UNL     1       2.541  -2.668  -0.025  0.00  0.00    +0.157 C 
ATOM     11  N   UNL     1      -2.456  -2.530   0.000  0.00  0.00    -0.318 N 
ATOM     12  C   UNL     1      -3.231  -1.427   0.010  0.00  0.00    +0.138 A 
ATOM     13  N   UNL     1      -2.477  -0.358   0.012  0.00  0.00    -0.212 NA
ENDROOT
BRANCH  12  14
ATOM     14  C   UNL     1      -4.738  -1.427   0.016  0.00  0.00    +0.230 C 
BRANCH  14  15
ATOM     15  O   UNL     1      -5.208  -1.434   1.365  0.00  0.00    -0.387 OA
ATOM     16  H   UNL     1      -6.172  -1.434   1.446  0.00  0.00    +0.210 HD
ENDBRANCH  14  15
ENDBRANCH  12  14
BRANCH  11  17
ATOM     17  C   UNL     1      -2.918  -3.920  -0.006  0.00  0.00    +0.153 C 
BRANCH  17  18
ATOM     18  C   UNL     1      -3.072  -4.412   1.434  0.00  0.00    +0.117 C 
BRANCH  18  19
ATOM     19  O   UNL     1      -4.108  -3.672   2.083  0.00  0.00    -0.392 OA
ATOM     20  H   UNL     1      -4.973  -3.754   1.659  0.00  0.00    +0.210 HD
ENDBRANCH  18  19
BRANCH  18  21
ATOM     21  C   UNL     1      -3.433  -5.899   1.429  0.00  0.00    -0.049 C 
BRANCH  21  22
ATOM     22  N   UNL     1      -3.581  -6.372   2.812  0.00  0.00    +0.383 N 
ATOM     23  H   UNL     1      -2.712  -6.239   3.307  0.00  0.00    -0.085 HD
ATOM     24  H   UNL     1      -4.313  -5.850   3.270  0.00  0.00    -0.085 HD
BRANCH  22  25
ATOM     25  C   UNL     1      -3.928  -7.800   2.807  0.00  0.00    -0.072 C 
ATOM     26  C   UNL     1      -5.305  -7.987   2.166  0.00  0.00    -0.016 C 
ATOM     27  C   UNL     1      -5.667  -9.474   2.160  0.00  0.00    -0.002 C 
ATOM     28  C   UNL     1      -5.698  -9.996   3.598  0.00  0.00    -0.000 C 
ATOM     29  C   UNL     1      -4.321  -9.809   4.239  0.00  0.00    -0.002 C 
ATOM     30  C   UNL     1      -3.960  -8.322   4.245  0.00  0.00    -0.016 C 
ENDBRANCH  22  25
ENDBRANCH  21  22
ENDBRANCH  18  21
ENDBRANCH  17  18
ENDBRANCH  11  17
TORSDOF 8
