REMARK  Name = ZINC36502800
REMARK  17 active torsions:
REMARK  status: ('A' for Active; 'I' for Inactive)
REMARK    1  A    between atoms: C_1  and  C_2
REMARK    2  A    between atoms: C_2  and  C_36
REMARK    3  A    between atoms: C_3  and  C_4
REMARK    4  A    between atoms: N_6  and  C_7
REMARK    5  A    between atoms: N_6  and  C_13
REMARK    6  A    between atoms: C_7  and  C_8
REMARK    7  A    between atoms: C_13  and  C_15
REMARK    8  A    between atoms: C_13  and  C_25
REMARK    9  A    between atoms: C_17  and  N_22
REMARK   10  A    between atoms: N_27  and  C_28
REMARK   11  A    between atoms: C_28  and  C_29
REMARK   12  A    between atoms: C_28  and  C_30
REMARK   13  A    between atoms: C_28  and  C_31
REMARK   14  A    between atoms: C_31  and  C_32
REMARK   15  A    between atoms: C_32  and  C_33
REMARK   16  A    between atoms: C_32  and  C_34
REMARK   17  A    between atoms: C_32  and  C_35
REMARK                            x       y       z     vdW  Elec       q    Type
REMARK                         _______ _______ _______ _____ _____    ______ ____
ROOT
ATOM      1  C   UNL     1      -0.844   0.190   5.138  0.00  0.00    +0.194 C 
ENDROOT
BRANCH   1   2
ATOM      2  C   UNL     1      -1.505  -0.916   5.919  0.00  0.00    +0.002 A 
ATOM      3  C   UNL     1      -1.579  -2.189   5.386  0.00  0.00    +0.040 A 
ATOM      4  C   UNL     1      -2.186  -3.204   6.102  0.00  0.00    +0.127 A 
ATOM      5  C   UNL     1      -2.719  -2.947   7.352  0.00  0.00    +0.034 A 
ATOM      6  C   UNL     1      -2.644  -1.674   7.886  0.00  0.00    +0.022 A 
ATOM      7  C   UNL     1      -2.032  -0.659   7.172  0.00  0.00    +0.047 A 
ATOM      8 CL   UNL     1      -1.932   0.938   7.845  0.00  0.00    -0.083 Cl
BRANCH   4   9
ATOM      9  N   UNL     1      -2.266  -4.567   5.530  0.00  0.00    +0.056 N 
ATOM     10  O   UNL     1      -1.801  -4.793   4.438  0.00  0.00    -0.126 OA
ATOM     11  O   UNL     1      -2.796  -5.455   6.157  0.00  0.00    -0.126 OA
ENDBRANCH   4   9
ENDBRANCH   1   2
BRANCH   1  12
ATOM     12  C   UNL     1       0.617   0.260   5.504  0.00  0.00    +0.239 C 
ATOM     13  O   UNL     1       1.463   0.181   4.639  0.00  0.00    -0.273 OA
ATOM     14  N   UNL     1       0.982   0.411   6.793  0.00  0.00    -0.308 N 
ATOM     15  H   UNL     1       0.309   0.403   7.491  0.00  0.00    +0.149 HD
BRANCH  14  16
ATOM     16  C   UNL     1       2.395   0.585   7.137  0.00  0.00    +0.030 C 
ATOM     17  C   UNL     1       3.159  -0.703   6.826  0.00  0.00    +0.031 C 
ATOM     18  C   UNL     1       2.981   1.737   6.318  0.00  0.00    +0.031 C 
BRANCH  16  19
ATOM     19  C   UNL     1       2.520   0.904   8.629  0.00  0.00    +0.031 C 
BRANCH  19  20
ATOM     20  C   UNL     1       1.927   2.287   8.906  0.00  0.00    -0.036 C 
ATOM     21  C   UNL     1       0.614   2.443   8.134  0.00  0.00    +0.010 C 
ATOM     22  C   UNL     1       1.658   2.435  10.405  0.00  0.00    +0.010 C 
ATOM     23  C   UNL     1       2.914   3.366   8.456  0.00  0.00    +0.010 C 
ENDBRANCH  19  20
ENDBRANCH  16  19
ENDBRANCH  14  16
ENDBRANCH   1  12
BRANCH   1  26
ATOM     24  C   UNL     1      -0.297  -1.099   3.144  0.00  0.00    +0.241 C 
ATOM     25  O   UNL     1       0.489  -1.744   3.811  0.00  0.00    -0.271 OA
ATOM     26  N   UNL     1      -0.976  -0.078   3.704  0.00  0.00    -0.275 N 
BRANCH  24  29
ATOM     27  C   UNL     1       1.043  -3.316   2.033  0.00  0.00    +0.039 C 
ATOM     28  C   UNL     1       0.112  -2.482   1.192  0.00  0.00    -0.071 C 
ATOM     29  C   UNL     1      -0.508  -1.434   1.728  0.00  0.00    +0.066 C 
ATOM     30  C   UNL     1      -0.117  -2.834  -0.255  0.00  0.00    +0.039 C 
ENDBRANCH  24  29
BRANCH  26  31
ATOM     31  C   UNL     1      -1.845   0.764   2.878  0.00  0.00    +0.183 C 
BRANCH  31  32
ATOM     32  C   UNL     1      -3.259   0.246   2.947  0.00  0.00    +0.122 A 
ATOM     33  C   UNL     1      -4.219   0.689   3.779  0.00  0.00    +0.046 A 
ATOM     34  C   UNL     1      -5.380  -0.071   3.505  0.00  0.00    +0.041 A 
ATOM     35  C   UNL     1      -5.059  -0.932   2.523  0.00  0.00    +0.195 A 
ATOM     36  O   UNL     1      -3.775  -0.732   2.185  0.00  0.00    -0.466 OA
ENDBRANCH  31  32
ENDBRANCH  26  31
ENDBRANCH   1  26
TORSDOF 10
