REMARK  Name = ZINC13135737
REMARK  8 active torsions:
REMARK  status: ('A' for Active; 'I' for Inactive)
REMARK    1  A    between atoms: C_1  and  C_2
REMARK    2  A    between atoms: C_2  and  C_4
REMARK    3  A    between atoms: C_2  and  N_10
REMARK    4  A    between atoms: C_11  and  C_13
REMARK    5  A    between atoms: C_13  and  N_14
REMARK    6  A    between atoms: N_23  and  C_24
REMARK    7  A    between atoms: C_24  and  C_25
REMARK    8  A    between atoms: C_25  and  O_26
REMARK                            x       y       z     vdW  Elec       q    Type
REMARK                         _______ _______ _______ _____ _____    ______ ____
ROOT
ATOM      1  N   UNL     1      -3.978  -1.213  -2.505  0.00  0.00    -0.305 N 
ATOM      2  C   UNL     1      -4.644  -0.197  -3.170  0.00  0.00    +0.068 A 
ATOM      3  C   UNL     1      -5.027   1.090  -2.822  0.00  0.00    +0.028 A 
ATOM      4  C   UNL     1      -5.698   1.877  -3.735  0.00  0.00    +0.002 A 
ATOM      5  C   UNL     1      -5.993   1.390  -5.000  0.00  0.00    +0.002 A 
ATOM      6  C   UNL     1      -5.621   0.115  -5.362  0.00  0.00    +0.028 A 
ATOM      7  C   UNL     1      -4.941  -0.695  -4.449  0.00  0.00    +0.065 A 
ATOM      8  N   UNL     1      -4.454  -1.962  -4.507  0.00  0.00    -0.327 N 
ATOM      9  C   UNL     1      -3.883  -2.267  -3.369  0.00  0.00    +0.175 A 
ATOM     10  N   UNL     1      -3.278  -3.473  -3.083  0.00  0.00    -0.314 N 
ATOM     11  H   UNL     1      -2.879  -3.621  -2.211  0.00  0.00    +0.149 HD
ATOM     12  H   UNL     1      -4.516  -2.550  -5.276  0.00  0.00    +0.169 HD
ENDROOT
BRANCH   1  13
ATOM     13  C   UNL     1      -3.465  -1.164  -1.134  0.00  0.00    +0.220 C 
BRANCH  13  15
ATOM     14  N   UNL     1      -1.372  -0.511   0.012  0.00  0.00    -0.307 N 
ATOM     15  C   UNL     1      -2.051  -0.643  -1.145  0.00  0.00    +0.233 C 
ATOM     16  O   UNL     1      -1.524  -0.341  -2.194  0.00  0.00    -0.274 OA
ATOM     17  H   UNL     1      -1.794  -0.752   0.852  0.00  0.00    +0.149 HD
BRANCH  14  19
ATOM     18  C   UNL     1      -0.019   1.526   0.010  0.00  0.00    +0.033 C 
ATOM     19  C   UNL     1       0.002  -0.004   0.002  0.00  0.00    +0.100 C 
BRANCH  19  20
ATOM     20  C   UNL     1       0.731  -0.503   1.223  0.00  0.00    -0.027 A 
ATOM     21  C   UNL     1       0.081  -0.558   2.442  0.00  0.00    +0.005 A 
ATOM     22  C   UNL     1       0.749  -1.016   3.562  0.00  0.00    +0.000 A 
ATOM     23  C   UNL     1       2.068  -1.420   3.463  0.00  0.00    +0.000 A 
ATOM     24  C   UNL     1       2.718  -1.365   2.244  0.00  0.00    +0.000 A 
ATOM     25  C   UNL     1       2.048  -0.911   1.123  0.00  0.00    +0.005 A 
ENDBRANCH  19  20
ENDBRANCH  14  19
ENDBRANCH  13  15
ENDBRANCH   1  13
BRANCH  10  26
ATOM     26  C   UNL     1      -3.240  -4.531  -4.095  0.00  0.00    +0.132 C 
BRANCH  26  27
ATOM     27  C   UNL     1      -2.518  -5.755  -3.527  0.00  0.00    +0.174 C 
BRANCH  27  28
ATOM     28  O   UNL     1      -3.278  -6.295  -2.444  0.00  0.00    -0.393 OA
ATOM     29  H   UNL     1      -2.879  -7.075  -2.035  0.00  0.00    +0.209 HD
ENDBRANCH  27  28
ENDBRANCH  26  27
ENDBRANCH  10  26
TORSDOF 7
