REMARK  Name = ZINC39937665
REMARK  9 active torsions:
REMARK  status: ('A' for Active; 'I' for Inactive)
REMARK    1  A    between atoms: C_1  and  C_2
REMARK    2  A    between atoms: C_6  and  C_35
REMARK    3  A    between atoms: C_7  and  N_8
REMARK    4  A    between atoms: C_9  and  C_11
REMARK    5  A    between atoms: C_11  and  N_12
REMARK    6  A    between atoms: C_13  and  C_15
REMARK    7  A    between atoms: C_20  and  N_21
REMARK    8  A    between atoms: N_21  and  S_22
REMARK    9  A    between atoms: S_22  and  C_25
REMARK                            x       y       z     vdW  Elec       q    Type
REMARK                         _______ _______ _______ _____ _____    ______ ____
ROOT
ATOM      1  C   UNL     1       0.327  -0.565   7.466  0.00  0.00    +0.059 A 
ATOM      2  C   UNL     1       0.407  -1.948   7.284  0.00  0.00    +0.015 A 
ATOM      3  C   UNL     1       0.488  -2.781   8.378  0.00  0.00    +0.001 A 
ATOM      4  C   UNL     1       0.491  -2.256   9.660  0.00  0.00    +0.002 A 
ATOM      5  C   UNL     1       0.412  -0.892   9.857  0.00  0.00    +0.025 A 
ATOM      6  C   UNL     1       0.336  -0.035   8.766  0.00  0.00    +0.060 A 
ENDROOT
BRANCH   1   8
ATOM      7  N   UNL     1       0.231  -0.180   5.054  0.00  0.00    -0.303 N 
ATOM      8  C   UNL     1       0.239   0.333   6.300  0.00  0.00    +0.246 C 
ATOM      9  O   UNL     1       0.175   1.537   6.463  0.00  0.00    -0.270 OA
ATOM     10  H   UNL     1       0.282  -1.139   4.924  0.00  0.00    +0.150 HD
BRANCH   7  11
ATOM     11  C   UNL     1       0.144   0.713   3.895  0.00  0.00    +0.200 C 
BRANCH  11  13
ATOM     12  N   UNL     1       0.080   0.507   1.431  0.00  0.00    -0.284 N 
ATOM     13  C   UNL     1       0.152  -0.105   2.630  0.00  0.00    +0.234 C 
ATOM     14  O   UNL     1       0.224  -1.315   2.689  0.00  0.00    -0.274 OA
ATOM     15  H   UNL     1       0.071   1.475   1.381  0.00  0.00    +0.155 HD
BRANCH  12  22
ATOM     16  C   UNL     1       1.755   1.252  -0.746  0.00  0.00    +0.045 C 
ATOM     17  C   UNL     1       0.819   0.073  -0.828  0.00  0.00    -0.029 A 
ATOM     18  C   UNL     1       0.760  -0.684  -1.981  0.00  0.00    +0.005 A 
ATOM     19  C   UNL     1      -0.099  -1.765  -2.057  0.00  0.00    +0.001 A 
ATOM     20  C   UNL     1      -0.901  -2.091  -0.979  0.00  0.00    +0.005 A 
ATOM     21  C   UNL     1      -0.847  -1.338   0.178  0.00  0.00    -0.029 A 
ATOM     22  C   UNL     1       0.018  -0.255   0.259  0.00  0.00    +0.039 A 
ATOM     23  C   UNL     1      -1.722  -1.694   1.352  0.00  0.00    +0.045 C 
ENDBRANCH  12  22
ENDBRANCH  11  13
ENDBRANCH   7  11
ENDBRANCH   1   8
BRANCH   6  24
ATOM     24  N   UNL     1       0.263   1.338   8.961  0.00  0.00    -0.216 N 
ATOM     25  H   UNL     1      -0.273   1.885   8.365  0.00  0.00    +0.174 HD
BRANCH  24  26
ATOM     26  S   UNL     1       1.090   2.042  10.211  0.00  0.00    +0.072 S 
ATOM     27  O   UNL     1       0.907   3.445  10.080  0.00  0.00    -0.150 OA
ATOM     28  O   UNL     1       0.728   1.333  11.388  0.00  0.00    -0.150 OA
BRANCH  26  29
ATOM     29  C   UNL     1       2.804   1.731   9.943  0.00  0.00    +0.110 A 
ATOM     30  C   UNL     1       3.398   0.521  10.500  0.00  0.00    +0.031 A 
ATOM     31  C   UNL     1       4.704   0.223  10.331  0.00  0.00    +0.027 A 
ATOM     32  C   UNL     1       5.559   1.131   9.569  0.00  0.00    +0.056 A 
ATOM     33  N   UNL     1       6.823   1.142   9.228  0.00  0.00    -0.268 N 
ATOM     34  C   UNL     1       7.065   2.279   8.493  0.00  0.00    +0.308 C 
ATOM     35  O   UNL     1       8.139   2.591   8.025  0.00  0.00    -0.252 OA
ATOM     36  N   UNL     1       5.906   3.008   8.369  0.00  0.00    -0.267 N 
ATOM     37  C   UNL     1       4.948   2.373   8.996  0.00  0.00    +0.058 A 
ATOM     38  C   UNL     1       3.525   2.617   9.223  0.00  0.00    +0.054 A 
ATOM     39  H   UNL     1       5.813   3.850   7.896  0.00  0.00    +0.156 HD
ATOM     40  H   UNL     1       7.478   0.464   9.456  0.00  0.00    +0.156 HD
ENDBRANCH  26  29
ENDBRANCH  24  26
ENDBRANCH   6  24
TORSDOF 7
