REMARK  Name = ZINC09113469
REMARK  4 active torsions:
REMARK  status: ('A' for Active; 'I' for Inactive)
REMARK    1  A    between atoms: C_8  and  C_23
REMARK    2  A    between atoms: C_11  and  C_12
REMARK    3  A    between atoms: C_11  and  N_42
REMARK    4  A    between atoms: N_14  and  C_15
REMARK                            x       y       z     vdW  Elec       q    Type
REMARK                         _______ _______ _______ _____ _____    ______ ____
ROOT
ATOM      1  C   UNL     1       7.222  -3.303   0.608  0.00  0.00    +0.000 A 
ATOM      2  C   UNL     1       6.743  -2.724   1.769  0.00  0.00    +0.000 A 
ATOM      3  C   UNL     1       5.385  -2.540   1.936  0.00  0.00    +0.002 A 
ATOM      4  C   UNL     1       4.497  -2.931   0.944  0.00  0.00    -0.061 A 
ATOM      5  C   UNL     1       4.975  -3.505  -0.214  0.00  0.00    -0.047 A 
ATOM      6  C   UNL     1       6.339  -3.692  -0.380  0.00  0.00    +0.004 A 
ATOM      7  C   UNL     1       4.051  -3.936  -1.323  0.00  0.00    +0.029 C 
ATOM      8  C   UNL     1       2.618  -4.035  -0.800  0.00  0.00    +0.024 C 
ATOM      9  C   UNL     1       3.025  -2.712   1.174  0.00  0.00    -0.041 C 
ATOM     10  N   UNL     1       2.301  -2.768  -0.107  0.00  0.00    +0.396 N 
ATOM     11  H   UNL     1       2.598  -1.981  -0.695  0.00  0.00    -0.080 HD
ENDROOT
BRANCH   8  12
ATOM     12  C   UNL     1       1.669  -4.227  -1.954  0.00  0.00    +0.197 C 
ATOM     13  O   UNL     1       1.224  -3.263  -2.541  0.00  0.00    -0.278 OA
ATOM     14  N   UNL     1       1.314  -5.470  -2.335  0.00  0.00    -0.331 N 
ATOM     15  H   UNL     1       1.669  -6.241  -1.866  0.00  0.00    +0.145 HD
ATOM     16  H   UNL     1       0.703  -5.594  -3.079  0.00  0.00    +0.145 HD
ENDBRANCH   8  12
BRANCH  10  17
ATOM     17  C   UNL     1       0.843  -2.670   0.129  0.00  0.00    +0.020 C 
BRANCH  17  18
ATOM     18  C   UNL     1       0.491  -1.231   0.404  0.00  0.00    +0.201 C 
ATOM     19  O   UNL     1       1.361  -0.385   0.415  0.00  0.00    -0.278 OA
ATOM     20  N   UNL     1      -0.790  -0.883   0.639  0.00  0.00    -0.285 N 
ATOM     21  H   UNL     1      -1.474  -1.568   0.705  0.00  0.00    +0.155 HD
BRANCH  20  22
ATOM     22  C   UNL     1      -1.133   0.466   0.788  0.00  0.00    +0.070 A 
ATOM     23  C   UNL     1      -0.305   1.455   0.277  0.00  0.00    +0.046 A 
ATOM     24  C   UNL     1      -0.647   2.787   0.425  0.00  0.00    +0.043 A 
ATOM     25  C   UNL     1      -1.814   3.134   1.083  0.00  0.00    +0.023 A 
ATOM     26  C   UNL     1      -2.641   2.151   1.595  0.00  0.00    +0.041 A 
ATOM     27  C   UNL     1      -2.308   0.817   1.445  0.00  0.00    +0.145 A 
ATOM     28  F   UNL     1      -3.119  -0.143   1.940  0.00  0.00    -0.204 F 
ATOM     29 CL   UNL     1       0.388   4.024  -0.215  0.00  0.00    -0.083 Cl
ENDBRANCH  20  22
ENDBRANCH  17  18
ENDBRANCH  10  17
TORSDOF 4
