REMARK  Name = ZINC42363068
REMARK  8 active torsions:
REMARK  status: ('A' for Active; 'I' for Inactive)
REMARK    1  A    between atoms: C_1  and  C_2
REMARK    2  A    between atoms: C_3  and  C_17
REMARK    3  A    between atoms: C_4  and  N_8
REMARK    4  A    between atoms: N_5  and  C_7
REMARK    5  A    between atoms: N_8  and  C_9
REMARK    6  A    between atoms: N_8  and  C_10
REMARK    7  A    between atoms: C_10  and  C_11
REMARK    8  A    between atoms: C_17  and  N_18
REMARK                            x       y       z     vdW  Elec       q    Type
REMARK                         _______ _______ _______ _____ _____    ______ ____
ROOT
ATOM      1  C   UNL     1      -0.612   1.313  -0.023  0.00  0.00    +0.068 C 
ATOM      2  C   UNL     1      -0.546  -0.192  -0.075  0.00  0.00    +0.063 A 
ATOM      3  C   UNL     1      -0.268  -0.960  -1.210  0.00  0.00    -0.003 A 
ATOM      4  C   UNL     1      -0.300  -2.271  -0.844  0.00  0.00    +0.121 A 
ATOM      5  N   UNL     1      -0.590  -2.319   0.477  0.00  0.00    -0.253 N 
ATOM      6  N   UNL     1      -0.733  -1.003   0.934  0.00  0.00    -0.175 NA
ATOM      7  C   UNL     1      -0.724  -3.532   1.286  0.00  0.00    +0.174 C 
ENDROOT
BRANCH   4   8
ATOM      8  N   UNL     1      -0.077  -3.363  -1.677  0.00  0.00    -0.314 N 
ATOM      9  C   UNL     1      -1.210  -4.054  -2.298  0.00  0.00    +0.131 C 
BRANCH   8  10
ATOM     10  C   UNL     1       1.290  -3.822  -1.933  0.00  0.00    +0.141 C 
BRANCH  10  11
ATOM     11  C   UNL     1       1.647  -4.911  -0.954  0.00  0.00    -0.022 A 
ATOM     12  C   UNL     1       2.276  -4.603   0.238  0.00  0.00    +0.028 A 
ATOM     13  C   UNL     1       2.583  -5.607   1.097  0.00  0.00    +0.055 A 
ATOM     14  S   UNL     1       1.976  -7.040   0.223  0.00  0.00    -0.090 S 
ATOM     15  C   UNL     1       1.350  -6.205  -1.225  0.00  0.00    +0.051 A 
ATOM     16 BR   UNL     1       3.434  -5.512   2.784  0.00  0.00    -0.043 Br
ENDBRANCH  10  11
ENDBRANCH   8  10
ENDBRANCH   4   8
BRANCH   3  17
ATOM     17  C   UNL     1       0.018  -0.431  -2.592  0.00  0.00    -0.045 C 
BRANCH  17  18
ATOM     18  N   UNL     1       1.441  -0.084  -2.699  0.00  0.00    +0.381 N 
ATOM     19  H   UNL     1       1.632   0.271  -3.624  0.00  0.00    -0.090 HD
ATOM     20  H   UNL     1       1.667   0.623  -2.015  0.00  0.00    -0.090 HD
ATOM     21  H   UNL     1       2.001  -0.906  -2.531  0.00  0.00    -0.090 HD
ENDBRANCH  17  18
ENDBRANCH   3  17
TORSDOF 5
