REMARK  Name = ZINC64502391
REMARK  10 active torsions:
REMARK  status: ('A' for Active; 'I' for Inactive)
REMARK    1  A    between atoms: C_1  and  C_2
REMARK    2  A    between atoms: N_4  and  C_25
REMARK    3  A    between atoms: N_11  and  C_19
REMARK    4  A    between atoms: C_12  and  N_14
REMARK    5  A    between atoms: C_25  and  C_26
REMARK    6  A    between atoms: C_26  and  C_27
REMARK    7  A    between atoms: C_27  and  C_28
REMARK    8  A    between atoms: N_30  and  C_31
REMARK    9  A    between atoms: C_31  and  C_32
REMARK   10  A    between atoms: C_32  and  C_33
REMARK                            x       y       z     vdW  Elec       q    Type
REMARK                         _______ _______ _______ _____ _____    ______ ____
ROOT
ATOM      1  C   UNL     1      -0.018   1.503   0.010  0.00  0.00    +0.069 C 
ATOM      2  C   UNL     1       0.002  -0.004   0.002  0.00  0.00    +0.080 C 
ATOM      3  N   UNL     1       0.007  -0.713  -1.107  0.00  0.00    -0.180 NA
ATOM      4  N   UNL     1       0.059  -2.108  -1.077  0.00  0.00    -0.192 N 
ATOM      5  C   UNL     1      -0.284  -2.855  -0.006  0.00  0.00    +0.248 C 
ATOM      6  O   UNL     1      -0.247  -4.067  -0.057  0.00  0.00    -0.273 OA
ATOM      7  C   UNL     1      -0.715  -2.149   1.255  0.00  0.00    +0.171 C 
ATOM      8  C   UNL     1       0.025  -0.809   1.231  0.00  0.00    +0.097 C 
ATOM      9  N   UNL     1       0.599  -0.618   2.357  0.00  0.00    -0.180 NA
ATOM     10  N   UNL     1       0.573  -1.735   3.197  0.00  0.00    -0.200 N 
ATOM     11  C   UNL     1      -0.198  -2.834   2.523  0.00  0.00    +0.214 C 
ENDROOT
BRANCH  10  12
ATOM     12  C   UNL     1       1.151  -1.811   4.464  0.00  0.00    +0.054 A 
ATOM     13  C   UNL     1       1.061  -2.986   5.202  0.00  0.00    +0.025 A 
ATOM     14  C   UNL     1       1.634  -3.057   6.456  0.00  0.00    +0.002 A 
ATOM     15  C   UNL     1       2.297  -1.961   6.979  0.00  0.00    +0.000 A 
ATOM     16  C   UNL     1       2.388  -0.790   6.248  0.00  0.00    +0.002 A 
ATOM     17  C   UNL     1       1.823  -0.714   4.990  0.00  0.00    +0.025 A 
ENDBRANCH  10  12
BRANCH  11  18
ATOM     18  N   UNL     1      -1.314  -3.301   3.349  0.00  0.00    -0.332 N 
ATOM     19  C   UNL     1      -2.060  -2.527   4.187  0.00  0.00    +0.087 A 
ATOM     20  C   UNL     1      -2.989  -3.311   4.771  0.00  0.00    +0.019 A 
ATOM     21  C   UNL     1      -2.809  -4.618   4.276  0.00  0.00    +0.019 A 
ATOM     22  C   UNL     1      -1.781  -4.581   3.403  0.00  0.00    +0.087 A 
ENDBRANCH  11  18
BRANCH   4  23
ATOM     23  C   UNL     1       0.515  -2.804  -2.282  0.00  0.00    +0.135 C 
BRANCH  23  24
ATOM     24  C   UNL     1      -0.685  -3.108  -3.181  0.00  0.00    +0.030 C 
BRANCH  24  25
ATOM     25  C   UNL     1      -0.209  -3.835  -4.440  0.00  0.00    +0.097 C 
BRANCH  25  26
ATOM     26  C   UNL     1      -1.392  -4.134  -5.324  0.00  0.00    +0.213 C 
ATOM     27  O   UNL     1      -2.506  -3.799  -4.982  0.00  0.00    -0.276 OA
ATOM     28  N   UNL     1      -1.212  -4.774  -6.497  0.00  0.00    -0.315 N 
ATOM     29  H   UNL     1      -0.321  -5.043  -6.771  0.00  0.00    +0.149 HD
BRANCH  28  30
ATOM     30  C   UNL     1      -2.361  -5.065  -7.357  0.00  0.00    +0.108 C 
BRANCH  30  31
ATOM     31  C   UNL     1      -1.885  -5.793  -8.616  0.00  0.00    +0.052 C 
BRANCH  31  32
ATOM     32  C   UNL     1      -3.068  -6.092  -9.501  0.00  0.00    -0.040 C 
ATOM     33  C   UNL     1      -3.514  -5.351 -10.541  0.00  0.00    -0.001 A 
ATOM     34  C   UNL     1      -3.049  -4.092 -11.136  0.00  0.00    +0.010 A 
ATOM     35  C   UNL     1      -3.717  -3.582 -12.196  0.00  0.00    +0.001 A 
ATOM     36  C   UNL     1      -4.838  -4.224 -12.739  0.00  0.00    +0.002 A 
ATOM     37  C   UNL     1      -5.324  -5.383 -12.247  0.00  0.00    +0.026 A 
ATOM     38  C   UNL     1      -4.700  -6.009 -11.133  0.00  0.00    +0.043 A 
ATOM     39  N   UNL     1      -4.977  -7.114 -10.484  0.00  0.00    -0.380 N 
ATOM     40  C   UNL     1      -3.993  -7.285  -9.410  0.00  0.00    +0.144 C 
ATOM     41  H   UNL     1      -5.708  -7.720 -10.684  0.00  0.00    +0.160 HD
ENDBRANCH  31  32
ENDBRANCH  30  31
ENDBRANCH  28  30
ENDBRANCH  25  26
ENDBRANCH  24  25
ENDBRANCH  23  24
ENDBRANCH   4  23
TORSDOF 9
