REMARK  Name = ZINC50396342
REMARK  4 active torsions:
REMARK  status: ('A' for Active; 'I' for Inactive)
REMARK    1  A    between atoms: C_1  and  C_2
REMARK    2  A    between atoms: C_2  and  C_4
REMARK    3  A    between atoms: C_2  and  N_13
REMARK    4  A    between atoms: N_13  and  C_14
REMARK                            x       y       z     vdW  Elec       q    Type
REMARK                         _______ _______ _______ _____ _____    ______ ____
ROOT
ATOM      1  C   UNL     1      -0.204   1.466  -0.008  0.00  0.00    -0.004 C 
ATOM      2  C   UNL     1       0.005  -0.049   0.007  0.00  0.00    +0.014 C 
ENDROOT
BRANCH   2   3
ATOM      3  C   UNL     1       0.738  -0.443   1.264  0.00  0.00    +0.201 C 
ATOM      4  O   UNL     1       0.184  -1.123   2.101  0.00  0.00    -0.277 OA
ATOM      5  N   UNL     1       2.009  -0.039   1.457  0.00  0.00    -0.303 N 
ATOM      6  C   UNL     1       2.660  -0.373   2.704  0.00  0.00    +0.107 C 
ATOM      7  C   UNL     1       2.395   0.742   3.744  0.00  0.00    +0.019 C 
ATOM      8  C   UNL     1       3.145   1.958   3.393  0.00  0.00    +0.002 C 
ATOM      9  C   UNL     1       2.743   2.581   2.060  0.00  0.00    +0.002 C 
ATOM     10  C   UNL     1       3.499   1.905   0.943  0.00  0.00    +0.019 C 
ATOM     11  C   UNL     1       2.681   0.721   0.385  0.00  0.00    +0.107 C 
ENDBRANCH   2   3
BRANCH   2  12
ATOM     12  N   UNL     1      -1.300  -0.724  -0.030  0.00  0.00    +0.394 N 
ATOM     13  H   UNL     1      -1.165  -1.721   0.046  0.00  0.00    -0.084 HD
ATOM     14  H   UNL     1      -1.867  -0.401   0.739  0.00  0.00    -0.084 HD
BRANCH  12  15
ATOM     15  C   UNL     1      -1.973  -0.416  -1.299  0.00  0.00    +0.017 C 
ATOM     16  C   UNL     1      -3.419  -0.915  -1.241  0.00  0.00    -0.005 C 
ATOM     17  C   UNL     1      -4.016  -0.837  -2.651  0.00  0.00    +0.018 C 
ATOM     18  C   UNL     1      -3.307  -1.859  -3.540  0.00  0.00    +0.104 C 
ATOM     19  N   UNL     1      -1.861  -1.714  -3.432  0.00  0.00    -0.317 N 
ATOM     20  C   UNL     1      -1.247  -1.092  -2.426  0.00  0.00    +0.199 C 
ATOM     21  O   UNL     1      -0.034  -1.070  -2.423  0.00  0.00    -0.278 OA
ATOM     22  H   UNL     1      -1.312  -2.094  -4.135  0.00  0.00    +0.149 HD
ENDBRANCH  12  15
ENDBRANCH   2  12
TORSDOF 3
