REMARK  Name = ZINC61372070
REMARK  8 active torsions:
REMARK  status: ('A' for Active; 'I' for Inactive)
REMARK    1  A    between atoms: C_1  and  C_2
REMARK    2  A    between atoms: C_2  and  C_4
REMARK    3  A    between atoms: C_2  and  N_9
REMARK    4  A    between atoms: N_9  and  S_10
REMARK    5  A    between atoms: S_10  and  C_13
REMARK    6  A    between atoms: C_16  and  C_19
REMARK    7  A    between atoms: C_20  and  C_21
REMARK    8  A    between atoms: C_21  and  O_22
REMARK                            x       y       z     vdW  Elec       q    Type
REMARK                         _______ _______ _______ _____ _____    ______ ____
ROOT
ATOM      1  S   UNL     1       2.322  -0.861   1.097  0.00  0.00    +0.059 S 
ATOM      2  O   UNL     1       2.719  -1.271   2.398  0.00  0.00    -0.153 OA
ATOM      3  O   UNL     1       2.483  -1.690  -0.045  0.00  0.00    -0.153 OA
ENDROOT
BRANCH   1   4
ATOM      4  C   UNL     1       3.183   0.638   0.757  0.00  0.00    +0.105 A 
ATOM      5  C   UNL     1       3.402   1.024  -0.554  0.00  0.00    +0.030 A 
ATOM      6  C   UNL     1       4.075   2.197  -0.827  0.00  0.00    +0.019 A 
ATOM      7  C   UNL     1       4.537   2.994   0.222  0.00  0.00    +0.025 A 
ATOM      8  C   UNL     1       4.314   2.598   1.541  0.00  0.00    +0.019 A 
ATOM      9  C   UNL     1       3.634   1.426   1.801  0.00  0.00    +0.030 A 
BRANCH   7  10
ATOM     10  C   UNL     1       5.237   4.212  -0.055  0.00  0.00    -0.064 C 
ATOM     11  C   UNL     1       5.811   5.210  -0.282  0.00  0.00    -0.069 C 
BRANCH  11  12
ATOM     12  C   UNL     1       6.531   6.462  -0.567  0.00  0.00    +0.244 C 
BRANCH  12  13
ATOM     13  O   UNL     1       6.897   7.091   0.663  0.00  0.00    -0.383 OA
ATOM     14  H   UNL     1       7.376   7.924   0.552  0.00  0.00    +0.211 HD
ENDBRANCH  12  13
ENDBRANCH  11  12
ENDBRANCH   7  10
ENDBRANCH   1   4
BRANCH   1  15
ATOM     15  N   UNL     1       0.711  -0.489   1.189  0.00  0.00    -0.183 NA
ATOM     16  H   UNL     1       0.236  -0.593   2.029  0.00  0.00    +0.149 HD
BRANCH  15  18
ATOM     17  C   UNL     1      -0.019   1.526   0.010  0.00  0.00    +0.031 C 
ATOM     18  C   UNL     1       0.002  -0.004   0.002  0.00  0.00    +0.104 C 
BRANCH  18  19
ATOM     19  C   UNL     1      -1.412  -0.526   0.013  0.00  0.00    -0.022 A 
ATOM     20  C   UNL     1      -2.008  -0.961  -1.156  0.00  0.00    +0.013 A 
ATOM     21  C   UNL     1      -3.281  -1.424  -1.112  0.00  0.00    +0.045 A 
ATOM     22  S   UNL     1      -3.676  -1.252   0.621  0.00  0.00    -0.105 S 
ATOM     23  C   UNL     1      -2.116  -0.580   1.169  0.00  0.00    +0.050 A 
ENDBRANCH  18  19
ENDBRANCH  15  18
ENDBRANCH   1  15
TORSDOF 7
