REMARK  Name = ZINC67008624
REMARK  10 active torsions:
REMARK  status: ('A' for Active; 'I' for Inactive)
REMARK    1  A    between atoms: C_1  and  C_2
REMARK    2  A    between atoms: C_6  and  S_8
REMARK    3  A    between atoms: S_8  and  C_9
REMARK    4  A    between atoms: C_9  and  C_11
REMARK    5  A    between atoms: C_9  and  C_12
REMARK    6  A    between atoms: N_14  and  C_15
REMARK    7  A    between atoms: C_15  and  C_17
REMARK    8  A    between atoms: C_15  and  C_18
REMARK    9  A    between atoms: C_21  and  S_24
REMARK   10  A    between atoms: S_24  and  N_27
REMARK                            x       y       z     vdW  Elec       q    Type
REMARK                         _______ _______ _______ _____ _____    ______ ____
ROOT
ATOM      1  C   UNL     1      -0.064  -5.617   3.405  0.00  0.00    +0.227 C 
ATOM      2  O   UNL     1      -0.431  -5.192   4.480  0.00  0.00    -0.275 OA
ATOM      3  N   UNL     1       0.356  -6.893   3.292  0.00  0.00    -0.308 N 
ATOM      4  H   UNL     1       0.649  -7.232   2.432  0.00  0.00    +0.149 HD
ENDROOT
BRANCH   1   5
ATOM      5  C   UNL     1      -0.078  -4.718   2.196  0.00  0.00    +0.134 C 
ATOM      6  C   UNL     1      -1.382  -4.924   1.422  0.00  0.00    +0.029 C 
BRANCH   5   7
ATOM      7  S   UNL     1       0.043  -2.988   2.727  0.00  0.00    -0.113 S 
BRANCH   7  13
ATOM      8  C   UNL     1      -1.936  -0.232  -1.257  0.00  0.00    +0.044 C 
ATOM      9  C   UNL     1      -0.732  -0.835  -0.581  0.00  0.00    -0.049 A 
ATOM     10  C   UNL     1       0.523  -0.686  -1.144  0.00  0.00    +0.003 A 
ATOM     11  C   UNL     1       1.631  -1.237  -0.527  0.00  0.00    +0.001 A 
ATOM     12  C   UNL     1       1.489  -1.940   0.653  0.00  0.00    +0.015 A 
ATOM     13  C   UNL     1       0.230  -2.092   1.221  0.00  0.00    +0.009 A 
ATOM     14  C   UNL     1      -0.881  -1.531   0.601  0.00  0.00    +0.018 A 
ENDBRANCH   7  13
ENDBRANCH   5   7
ENDBRANCH   1   5
BRANCH   3  15
ATOM     15  C   UNL     1       0.369  -7.766   4.468  0.00  0.00    +0.100 C 
ATOM     16  C   UNL     1      -1.014  -8.393   4.654  0.00  0.00    +0.033 C 
BRANCH  15  17
ATOM     17  C   UNL     1       1.392  -8.856   4.272  0.00  0.00    -0.027 A 
ATOM     18  C   UNL     1       1.539  -9.451   3.034  0.00  0.00    +0.007 A 
ATOM     19  C   UNL     1       2.477 -10.451   2.854  0.00  0.00    +0.029 A 
ATOM     20  C   UNL     1       3.268 -10.854   3.914  0.00  0.00    +0.105 A 
ATOM     21  C   UNL     1       3.122 -10.258   5.152  0.00  0.00    +0.029 A 
ATOM     22  C   UNL     1       2.187  -9.256   5.330  0.00  0.00    +0.007 A 
BRANCH  20  23
ATOM     23  S   UNL     1       4.463 -12.129   3.685  0.00  0.00    +0.056 S 
ATOM     24  O   UNL     1       4.697 -12.700   4.965  0.00  0.00    -0.153 OA
ATOM     25  O   UNL     1       4.026 -12.901   2.575  0.00  0.00    -0.153 OA
BRANCH  23  26
ATOM     26  N   UNL     1       5.877 -11.399   3.227  0.00  0.00    -0.204 NA
ATOM     27  H   UNL     1       6.728 -11.801   3.460  0.00  0.00    +0.144 HD
ATOM     28  H   UNL     1       5.854 -10.568   2.726  0.00  0.00    +0.144 HD
ENDBRANCH  23  26
ENDBRANCH  20  23
ENDBRANCH  15  17
ENDBRANCH   3  15
TORSDOF 7
