REMARK  Name = ZINC63411785
REMARK  16 active torsions:
REMARK  status: ('A' for Active; 'I' for Inactive)
REMARK    1  A    between atoms: C_1  and  C_2
REMARK    2  A    between atoms: C_2  and  N_3
REMARK    3  A    between atoms: N_3  and  C_4
REMARK    4  A    between atoms: C_4  and  C_5
REMARK    5  A    between atoms: C_6  and  C_8
REMARK    6  A    between atoms: C_8  and  S_9
REMARK    7  A    between atoms: S_9  and  C_10
REMARK    8  A    between atoms: C_14  and  C_17
REMARK    9  A    between atoms: C_17  and  C_19
REMARK   10  A    between atoms: C_17  and  N_29
REMARK   11  A    between atoms: C_19  and  C_20
REMARK   12  A    between atoms: C_30  and  O_32
REMARK   13  A    between atoms: O_32  and  C_33
REMARK   14  A    between atoms: C_33  and  C_34
REMARK   15  A    between atoms: C_33  and  C_35
REMARK   16  A    between atoms: C_33  and  C_36
REMARK                            x       y       z     vdW  Elec       q    Type
REMARK                         _______ _______ _______ _____ _____    ______ ____
ROOT
ATOM      1  C   UNL     1      -8.366  -1.382   0.521  0.00  0.00    +0.125 C 
ENDROOT
BRANCH   1   5
ATOM      2  C   UNL     1      -5.656  -2.124   2.745  0.00  0.00    +0.263 C 
ATOM      3  N   UNL     1      -5.655  -3.372   1.947  0.00  0.00    -0.218 NA
ATOM      4  N   UNL     1      -6.876  -3.265   1.131  0.00  0.00    -0.225 NA
ATOM      5  C   UNL     1      -6.930  -1.810   0.831  0.00  0.00    +0.223 C 
ATOM      6  O   UNL     1      -6.464  -1.171   2.038  0.00  0.00    -0.330 OA
ATOM      7  H   UNL     1      -5.690  -4.184   2.546  0.00  0.00    +0.144 HD
ATOM      8  H   UNL     1      -7.688  -3.556   1.655  0.00  0.00    +0.143 HD
BRANCH   2   9
ATOM      9  S   UNL     1      -3.962  -1.496   2.912  0.00  0.00    -0.104 S 
BRANCH   9  10
ATOM     10  C   UNL     1      -3.410  -1.260   1.200  0.00  0.00    +0.168 C 
BRANCH  10  12
ATOM     11  N   UNL     1      -1.377  -0.481   0.027  0.00  0.00    -0.301 N 
ATOM     12  C   UNL     1      -1.998  -0.734   1.196  0.00  0.00    +0.226 C 
ATOM     13  O   UNL     1      -1.421  -0.537   2.244  0.00  0.00    -0.275 OA
BRANCH  11  15
ATOM     14  C   UNL     1      -0.030   1.560   0.045  0.00  0.00    +0.024 C 
ATOM     15  C   UNL     1      -0.004   0.030   0.023  0.00  0.00    +0.104 C 
ENDBRANCH  11  15
BRANCH  11  16
ATOM     16  C   UNL     1      -2.074  -0.719  -1.239  0.00  0.00    +0.104 C 
ATOM     17  C   UNL     1      -1.813  -2.153  -1.704  0.00  0.00    +0.024 C 
ENDBRANCH  11  16
ENDBRANCH  10  12
ENDBRANCH   9  10
ENDBRANCH   2   9
ENDBRANCH   1   5
BRANCH   1  18
ATOM     18  N   UNL     1      -9.217  -1.651   1.683  0.00  0.00    -0.274 N 
ATOM     19  C   UNL     1     -10.207  -2.562   1.597  0.00  0.00    +0.401 C 
ATOM     20  O   UNL     1     -10.334  -3.227   0.588  0.00  0.00    -0.226 OA
ATOM     21  H   UNL     1      -9.068  -1.174   2.514  0.00  0.00    +0.152 HD
BRANCH  19  22
ATOM     22  O   UNL     1     -11.054  -2.735   2.629  0.00  0.00    -0.445 OA
BRANCH  22  23
ATOM     23  C   UNL     1     -12.079  -3.718   2.469  0.00  0.00    +0.107 C 
ATOM     24  C   UNL     1     -11.440  -5.087   2.227  0.00  0.00    +0.055 C 
ATOM     25  C   UNL     1     -12.936  -3.771   3.735  0.00  0.00    +0.055 C 
ATOM     26  C   UNL     1     -12.958  -3.347   1.273  0.00  0.00    +0.055 C 
ENDBRANCH  22  23
ENDBRANCH  19  22
ENDBRANCH   1  18
BRANCH   1  27
ATOM     27  C   UNL     1      -8.395   0.114   0.203  0.00  0.00    +0.059 C 
BRANCH  27  28
ATOM     28  C   UNL     1      -9.785   0.511  -0.221  0.00  0.00    -0.040 C 
ATOM     29  C   UNL     1     -10.757   1.032   0.563  0.00  0.00    -0.001 A 
ATOM     30  C   UNL     1     -10.808   1.371   1.990  0.00  0.00    +0.010 A 
ATOM     31  C   UNL     1     -11.948   1.889   2.501  0.00  0.00    +0.001 A 
ATOM     32  C   UNL     1     -13.080   2.110   1.703  0.00  0.00    +0.002 A 
ATOM     33  C   UNL     1     -13.109   1.824   0.384  0.00  0.00    +0.026 A 
ATOM     34  C   UNL     1     -11.964   1.275  -0.258  0.00  0.00    +0.043 A 
ATOM     35  N   UNL     1     -11.748   0.918  -1.501  0.00  0.00    -0.380 N 
ATOM     36  C   UNL     1     -10.375   0.413  -1.610  0.00  0.00    +0.144 C 
ATOM     37  H   UNL     1     -12.387   0.981  -2.227  0.00  0.00    +0.160 HD
ENDBRANCH  27  28
ENDBRANCH   1  27
TORSDOF 11
