REMARK  Name = ZINC13016107
REMARK  10 active torsions:
REMARK  status: ('A' for Active; 'I' for Inactive)
REMARK    1  A    between atoms: C_1  and  C_2
REMARK    2  A    between atoms: C_2  and  C_3
REMARK    3  A    between atoms: C_8  and  N_9
REMARK    4  A    between atoms: C_12  and  C_17
REMARK    5  A    between atoms: C_17  and  N_62
REMARK    6  A    between atoms: C_21  and  C_23
REMARK    7  A    between atoms: C_25  and  O_31
REMARK    8  A    between atoms: C_28  and  O_29
REMARK    9  A    between atoms: O_29  and  C_30
REMARK   10  A    between atoms: O_31  and  C_32
REMARK                            x       y       z     vdW  Elec       q    Type
REMARK                         _______ _______ _______ _____ _____    ______ ____
ROOT
ATOM      1  N   UNL     1       5.250   5.204  -0.170  0.00  0.00    -0.283 N 
ATOM      2  C   UNL     1       5.050   4.090  -0.962  0.00  0.00    +0.224 A 
ATOM      3  N   UNL     1       4.443   3.016  -0.461  0.00  0.00    -0.201 NA
ATOM      4  C   UNL     1       4.252   1.950  -1.218  0.00  0.00    +0.120 A 
ATOM      5  N   UNL     1       4.666   1.943  -2.473  0.00  0.00    -0.202 NA
ATOM      6  C   UNL     1       5.269   3.015  -2.983  0.00  0.00    +0.217 A 
ATOM      7  N   UNL     1       5.463   4.089  -2.225  0.00  0.00    -0.181 NA
ATOM      8  N   UNL     1       5.696   3.009  -4.295  0.00  0.00    -0.327 N 
ATOM      9  H   UNL     1       4.875   5.237   0.723  0.00  0.00    +0.155 HD
ATOM     10  H   UNL     1       6.138   3.789  -4.665  0.00  0.00    +0.145 HD
ATOM     11  H   UNL     1       5.553   2.225  -4.848  0.00  0.00    +0.145 HD
ENDROOT
BRANCH   1  17
ATOM     12  C   UNL     1       5.795   7.556  -0.138  0.00  0.00    -0.026 A 
ATOM     13  C   UNL     1       6.533   8.620  -0.621  0.00  0.00    +0.005 A 
ATOM     14  C   UNL     1       7.469   8.418  -1.618  0.00  0.00    +0.000 A 
ATOM     15  C   UNL     1       7.670   7.152  -2.136  0.00  0.00    +0.002 A 
ATOM     16  C   UNL     1       6.940   6.083  -1.655  0.00  0.00    +0.023 A 
ATOM     17  C   UNL     1       5.995   6.283  -0.657  0.00  0.00    +0.037 A 
BRANCH  12  19
ATOM     18  C   UNL     1       5.409   7.481   2.310  0.00  0.00    +0.009 C 
ATOM     19  C   UNL     1       4.775   7.776   0.949  0.00  0.00    +0.033 C 
ENDBRANCH  12  19
ENDBRANCH   1  17
BRANCH   4  20
ATOM     20  C   UNL     1       3.564   0.737  -0.647  0.00  0.00    -0.000 C 
BRANCH  20  25
ATOM     21  C   UNL     1       1.521   1.872   0.034  0.00  0.00    -0.077 C 
ATOM     22  C   UNL     1       0.019   1.490   0.061  0.00  0.00    -0.020 C 
ATOM     23  C   UNL     1       0.055  -0.055   0.051  0.00  0.00    -0.012 C 
ATOM     24  C   UNL     1       1.432  -0.422  -0.534  0.00  0.00    -0.033 C 
ATOM     25  N   UNL     1       2.089   0.851  -0.854  0.00  0.00    +0.389 N 
ATOM     26  H   UNL     1       1.905   1.101  -1.832  0.00  0.00    -0.080 HD
BRANCH  24  27
ATOM     27  C   UNL     1       1.255  -1.248  -1.782  0.00  0.00    -0.016 A 
ATOM     28  C   UNL     1       1.337  -0.649  -3.024  0.00  0.00    +0.051 A 
ATOM     29  C   UNL     1       1.175  -1.409  -4.173  0.00  0.00    +0.121 A 
ATOM     30  C   UNL     1       0.931  -2.771  -4.074  0.00  0.00    +0.049 A 
ATOM     31  C   UNL     1       0.849  -3.370  -2.832  0.00  0.00    +0.049 A 
ATOM     32  C   UNL     1       1.017  -2.611  -1.684  0.00  0.00    +0.122 A 
BRANCH  32  33
ATOM     33  O   UNL     1       0.942  -3.201  -0.461  0.00  0.00    -0.495 OA
ATOM     34  C   UNL     1       0.694  -4.608  -0.434  0.00  0.00    +0.277 C 
ENDBRANCH  32  33
BRANCH  29  35
ATOM     35  O   UNL     1       1.256  -0.820  -5.395  0.00  0.00    -0.495 OA
ATOM     36  C   UNL     1       1.079  -1.663  -6.535  0.00  0.00    +0.277 C 
ENDBRANCH  29  35
ENDBRANCH  24  27
ENDBRANCH  20  25
ENDBRANCH   4  20
TORSDOF 7
