REMARK  Name = ZINC01908092
REMARK  5 active torsions:
REMARK  status: ('A' for Active; 'I' for Inactive)
REMARK    1  A    between atoms: C_1  and  C_2
REMARK    2  A    between atoms: C_2  and  O_3
REMARK    3  A    between atoms: O_3  and  C_4
REMARK    4  A    between atoms: C_7  and  N_10
REMARK    5  A    between atoms: C_24  and  C_26
REMARK                            x       y       z     vdW  Elec       q    Type
REMARK                         _______ _______ _______ _____ _____    ______ ____
ROOT
ATOM      1  N   UNL     1       1.991  -4.074   0.034  0.00  0.00    -0.224 N 
ATOM      2  C   UNL     1       1.233  -3.010  -0.171  0.00  0.00    +0.263 C 
ATOM      3  O   UNL     1       0.026  -3.094  -0.285  0.00  0.00    -0.269 OA
ATOM      4  C   UNL     1       1.940  -1.704  -0.260  0.00  0.00    +0.090 C 
ATOM      5  C   UNL     1       1.429  -0.437  -0.469  0.00  0.00    +0.065 C 
ATOM      6  C   UNL     1       0.038  -0.075  -0.817  0.00  0.00    +0.010 A 
ATOM      7  C   UNL     1      -1.117  -0.822  -1.030  0.00  0.00    +0.010 A 
ATOM      8  C   UNL     1      -2.297  -0.182  -1.349  0.00  0.00    +0.001 A 
ATOM      9  C   UNL     1      -2.330   1.199  -1.456  0.00  0.00    +0.002 A 
ATOM     10  C   UNL     1      -1.191   1.949  -1.242  0.00  0.00    +0.024 A 
ATOM     11  C   UNL     1       0.007   1.323  -0.925  0.00  0.00    +0.052 A 
ATOM     12  N   UNL     1       1.279   1.831  -0.667  0.00  0.00    -0.206 N 
ATOM     13  C   UNL     1       2.153   0.847  -0.394  0.00  0.00    +0.259 C 
ATOM     14  O   UNL     1       3.332   0.989  -0.131  0.00  0.00    -0.269 OA
ATOM     15  C   UNL     1       1.593   3.142  -0.689  0.00  0.00    +0.223 C 
ATOM     16  O   UNL     1       0.741   3.965  -0.946  0.00  0.00    -0.275 OA
ATOM     17  C   UNL     1       3.003   3.584  -0.394  0.00  0.00    +0.110 C 
ATOM     18  S   UNL     1       3.633  -2.224  -0.015  0.00  0.00    -0.060 S 
ATOM     19  C   UNL     1       3.329  -3.974   0.166  0.00  0.00    +0.125 C 
ATOM     20  S   UNL     1       4.464  -5.225   0.440  0.00  0.00    -0.027 S 
ENDROOT
BRANCH   1  24
ATOM     21  C   UNL     1       0.196  -7.830   0.299  0.00  0.00    +0.121 A 
ATOM     22  C   UNL     1      -0.036  -6.879   1.283  0.00  0.00    +0.047 A 
ATOM     23  C   UNL     1       0.558  -5.636   1.195  0.00  0.00    +0.027 A 
ATOM     24  C   UNL     1       1.387  -5.337   0.123  0.00  0.00    +0.043 A 
ATOM     25  C   UNL     1       1.615  -6.286  -0.864  0.00  0.00    +0.027 A 
ATOM     26  C   UNL     1       1.025  -7.531  -0.773  0.00  0.00    +0.047 A 
BRANCH  21  27
ATOM     27  O   UNL     1      -0.389  -9.054   0.385  0.00  0.00    -0.492 OA
BRANCH  27  29
ATOM     28  C   UNL     1      -0.848 -11.295  -0.395  0.00  0.00    +0.048 C 
ATOM     29  C   UNL     1      -0.106  -9.983  -0.663  0.00  0.00    +0.225 C 
ENDBRANCH  27  29
ENDBRANCH  21  27
ENDBRANCH   1  24
TORSDOF 3
