REMARK  Name = ZINC66244581
REMARK  5 active torsions:
REMARK  status: ('A' for Active; 'I' for Inactive)
REMARK    1  A    between atoms: C_4  and  C_8
REMARK    2  A    between atoms: C_8  and  C_9
REMARK    3  A    between atoms: C_9  and  N_10
REMARK    4  A    between atoms: N_12  and  C_13
REMARK    5  A    between atoms: C_13  and  C_14
REMARK                            x       y       z     vdW  Elec       q    Type
REMARK                         _______ _______ _______ _____ _____    ______ ____
ROOT
ATOM      1  N   UNL     1       5.452  -1.679   1.381  0.00  0.00    -0.357 N 
ATOM      2  C   UNL     1       6.064  -2.020   2.564  0.00  0.00    +0.169 C 
ATOM      3  N   UNL     1       7.202  -2.656   2.549  0.00  0.00    -0.355 N 
ATOM      4  N   UNL     1       5.476  -1.691   3.762  0.00  0.00    -0.371 N 
ATOM      5  H   UNL     1       5.866  -1.911   0.535  0.00  0.00    +0.162 HD
ATOM      6  H   UNL     1       4.630  -1.218   3.773  0.00  0.00    +0.159 HD
ATOM      7  H   UNL     1       5.908  -1.932   4.596  0.00  0.00    +0.159 HD
ATOM      8  H   UNL     1       7.616  -2.889   1.703  0.00  0.00    +0.162 HD
ENDROOT
BRANCH   1   9
ATOM      9  C   UNL     1       4.173  -0.964   1.398  0.00  0.00    +0.120 C 
BRANCH   9  10
ATOM     10  C   UNL     1       3.713  -0.707  -0.038  0.00  0.00    +0.059 C 
BRANCH  10  14
ATOM     11  C   UNL     1      -0.017   1.378   0.010  0.00  0.00    +0.003 A 
ATOM     12  C   UNL     1       1.171   2.086   0.002  0.00  0.00    +0.020 A 
ATOM     13  C   UNL     1       2.378   1.411  -0.013  0.00  0.00    +0.046 A 
ATOM     14  C   UNL     1       2.398   0.028  -0.021  0.00  0.00    -0.009 A 
ATOM     15  C   UNL     1       1.209  -0.680  -0.013  0.00  0.00    +0.046 A 
ATOM     16  C   UNL     1       0.002  -0.004   0.002  0.00  0.00    +0.020 A 
ATOM     17 CL   UNL     1       1.233  -2.416  -0.023  0.00  0.00    -0.083 Cl
ATOM     18 CL   UNL     1       3.869   2.300  -0.024  0.00  0.00    -0.083 Cl
ENDBRANCH  10  14
ENDBRANCH   9  10
ENDBRANCH   1   9
BRANCH   3  19
ATOM     19  C   UNL     1       7.854  -3.021   3.809  0.00  0.00    +0.147 C 
BRANCH  19  20
ATOM     20  C   UNL     1       9.164  -3.753   3.512  0.00  0.00    +0.137 C 
ATOM     21  C   UNL     1       9.854  -4.178   4.832  0.00  0.00    +0.035 C 
ATOM     22  C   UNL     1      10.709  -5.379   4.345  0.00  0.00    +0.031 C 
ATOM     23  C   UNL     1       9.814  -5.996   3.248  0.00  0.00    +0.160 C 
ATOM     24  O   UNL     1       8.902  -4.979   2.811  0.00  0.00    -0.375 OA
ENDBRANCH  19  20
ENDBRANCH   3  19
TORSDOF 5
