REMARK  Name = ZINC09383098
REMARK  12 active torsions:
REMARK  status: ('A' for Active; 'I' for Inactive)
REMARK    1  A    between atoms: C_1  and  C_2
REMARK    2  A    between atoms: C_2  and  S_3
REMARK    3  A    between atoms: S_3  and  C_6
REMARK    4  A    between atoms: C_10  and  C_12
REMARK    5  A    between atoms: N_14  and  C_15
REMARK    6  A    between atoms: C_16  and  C_27
REMARK    7  A    between atoms: C_20  and  C_25
REMARK    8  A    between atoms: C_20  and  C_26
REMARK    9  A    between atoms: C_21  and  C_23
REMARK   10  A    between atoms: C_21  and  C_24
REMARK   11  A    between atoms: C_27  and  O_29
REMARK   12  A    between atoms: O_29  and  C_30
REMARK                            x       y       z     vdW  Elec       q    Type
REMARK                         _______ _______ _______ _____ _____    ______ ____
ROOT
ATOM      1  C   UNL     1       4.763   2.256   6.546  0.00  0.00    +0.086 A 
ATOM      2  C   UNL     1       5.611   1.912   7.594  0.00  0.00    +0.091 A 
ATOM      3  C   UNL     1       6.644   2.861   7.951  0.00  0.00    -0.024 A 
ATOM      4  C   UNL     1       6.666   4.001   7.222  0.00  0.00    -0.016 A 
ATOM      5  S   UNL     1       5.338   3.818   6.067  0.00  0.00    -0.079 S 
ATOM      6  C   UNL     1       7.612   5.146   7.389  0.00  0.00    -0.041 C 
ATOM      7  C   UNL     1       8.951   3.425   8.606  0.00  0.00    -0.069 C 
ATOM      8  C   UNL     1       7.685   2.680   9.047  0.00  0.00    +0.024 C 
ATOM      9  C   UNL     1       9.553   2.720   7.388  0.00  0.00    -0.010 C 
ATOM     10  C   UNL     1       9.973   3.340   9.755  0.00  0.00    -0.010 C 
ATOM     11  C   UNL     1       8.191   5.530   6.020  0.00  0.00    -0.005 C 
ATOM     12  C   UNL     1       6.822   6.354   7.927  0.00  0.00    -0.005 C 
ATOM     13  N   UNL     1       8.719   4.870   8.349  0.00  0.00    +0.389 N 
ATOM     14  H   UNL     1       8.494   5.325   9.241  0.00  0.00    -0.084 HD
ATOM     15  H   UNL     1       9.584   5.272   7.968  0.00  0.00    -0.084 HD
ENDROOT
BRANCH   1  18
ATOM     16  C   UNL     1       2.994   2.024   4.991  0.00  0.00    +0.249 C 
ATOM     17  O   UNL     1       3.268   3.115   4.530  0.00  0.00    -0.270 OA
ATOM     18  N   UNL     1       3.712   1.525   6.016  0.00  0.00    -0.275 N 
ATOM     19  H   UNL     1       3.494   0.654   6.384  0.00  0.00    +0.156 HD
BRANCH  16  24
ATOM     20  C   UNL     1       0.082   1.024   2.841  0.00  0.00    +0.089 A 
ATOM     21  C   UNL     1      -0.231  -0.215   3.371  0.00  0.00    +0.027 A 
ATOM     22  C   UNL     1       0.507  -0.732   4.420  0.00  0.00    +0.003 A 
ATOM     23  C   UNL     1       1.555  -0.009   4.952  0.00  0.00    +0.013 A 
ATOM     24  C   UNL     1       1.873   1.244   4.426  0.00  0.00    +0.039 A 
ATOM     25  C   UNL     1       1.127   1.757   3.363  0.00  0.00    +0.040 A 
BRANCH  20  26
ATOM     26  S   UNL     1      -0.862   1.671   1.500  0.00  0.00    -0.003 S 
ATOM     27  O   UNL     1      -0.735   3.082   1.615  0.00  0.00    -0.169 OA
ATOM     28  O   UNL     1      -2.133   1.046   1.617  0.00  0.00    -0.169 OA
BRANCH  26  30
ATOM     29  C   UNL     1      -0.753   1.593  -1.232  0.00  0.00    +0.028 C 
ATOM     30  C   UNL     1      -0.013   1.086   0.008  0.00  0.00    +0.168 C 
ENDBRANCH  26  30
ENDBRANCH  20  26
ENDBRANCH  16  24
ENDBRANCH   1  18
BRANCH   2  31
ATOM     31  C   UNL     1       5.452   0.639   8.302  0.00  0.00    +0.342 C 
ATOM     32  O   UNL     1       6.043  -0.350   7.913  0.00  0.00    -0.245 OA
BRANCH  31  33
ATOM     33  O   UNL     1       4.651   0.565   9.384  0.00  0.00    -0.464 OA
ATOM     34  C   UNL     1       4.541  -0.728  10.035  0.00  0.00    +0.280 C 
ENDBRANCH  31  33
ENDBRANCH   2  31
TORSDOF 6
