REMARK  Name = ZINC38548157
REMARK  11 active torsions:
REMARK  status: ('A' for Active; 'I' for Inactive)
REMARK    1  A    between atoms: C_1  and  C_2
REMARK    2  A    between atoms: C_4  and  C_36
REMARK    3  A    between atoms: N_8  and  C_9
REMARK    4  A    between atoms: C_9  and  C_11
REMARK    5  A    between atoms: C_9  and  C_21
REMARK    6  A    between atoms: C_14  and  O_17
REMARK    7  A    between atoms: O_17  and  C_18
REMARK    8  A    between atoms: C_22  and  C_35
REMARK    9  A    between atoms: C_23  and  C_34
REMARK   10  A    between atoms: C_25  and  N_26
REMARK   11  A    between atoms: C_27  and  C_29
REMARK                            x       y       z     vdW  Elec       q    Type
REMARK                         _______ _______ _______ _____ _____    ______ ____
ROOT
ATOM      1  C   UNL     1      -0.420  -1.775   3.974  0.00  0.00    +0.136 C 
ENDROOT
BRANCH   1   9
ATOM      2  C   UNL     1       2.261  -5.933   3.468  0.00  0.00    +0.066 C 
ATOM      3  C   UNL     1       1.360  -5.163   2.538  0.00  0.00    +0.044 A 
ATOM      4  C   UNL     1       1.178  -5.584   1.230  0.00  0.00    +0.046 A 
ATOM      5  C   UNL     1       0.340  -4.847   0.407  0.00  0.00    +0.044 A 
ATOM      6  N   UNL     1      -0.258  -3.771   0.892  0.00  0.00    -0.220 NA
ATOM      7  C   UNL     1      -0.062  -3.396   2.148  0.00  0.00    +0.216 A 
ATOM      8  N   UNL     1       0.728  -4.080   2.961  0.00  0.00    -0.220 NA
ATOM      9  N   UNL     1      -0.703  -2.264   2.622  0.00  0.00    -0.303 N 
ATOM     10  C   UNL     1       0.113  -5.267  -1.022  0.00  0.00    +0.066 C 
ATOM     11  H   UNL     1      -1.339  -1.796   2.060  0.00  0.00    +0.150 HD
ENDBRANCH   1   9
BRANCH   1  12
ATOM     12  C   UNL     1       0.864  -0.987   3.964  0.00  0.00    +0.009 A 
ATOM     13  C   UNL     1       1.813  -1.174   4.953  0.00  0.00    -0.033 A 
ATOM     14  C   UNL     1       2.957  -0.450   4.914  0.00  0.00    -0.008 A 
ATOM     15  S   UNL     1       2.721   0.540   3.447  0.00  0.00    -0.078 S 
ATOM     16  C   UNL     1       1.115  -0.081   2.978  0.00  0.00    +0.078 A 
ATOM     17  C   UNL     1       4.126  -0.473   5.865  0.00  0.00    +0.052 C 
ATOM     18  C   UNL     1       1.577  -2.171   6.059  0.00  0.00    +0.045 C 
BRANCH  16  19
ATOM     19  N   UNL     1       0.320   0.272   1.885  0.00  0.00    -0.273 N 
ATOM     20  C   UNL     1       0.698   1.281   1.076  0.00  0.00    +0.284 C 
ATOM     21  O   UNL     1       1.774   1.825   1.241  0.00  0.00    -0.266 OA
ATOM     22  H   UNL     1      -0.503  -0.209   1.709  0.00  0.00    +0.156 HD
BRANCH  20  23
ATOM     23  C   UNL     1      -0.189   1.725  -0.005  0.00  0.00    +0.189 A 
ATOM     24  C   UNL     1       0.106   2.667  -0.949  0.00  0.00    +0.054 A 
ATOM     25  C   UNL     1      -1.022   2.774  -1.778  0.00  0.00    +0.042 A 
ATOM     26  C   UNL     1      -1.944   1.904  -1.309  0.00  0.00    +0.196 A 
ATOM     27  O   UNL     1      -1.436   1.270  -0.244  0.00  0.00    -0.458 OA
ENDBRANCH  20  23
ENDBRANCH  16  19
ENDBRANCH   1  12
BRANCH   1  28
ATOM     28  C   UNL     1      -1.550  -0.890   4.434  0.00  0.00    -0.023 A 
ATOM     29  C   UNL     1      -2.210  -0.084   3.524  0.00  0.00    +0.009 A 
ATOM     30  C   UNL     1      -3.245   0.729   3.944  0.00  0.00    +0.046 A 
ATOM     31  C   UNL     1      -3.622   0.736   5.279  0.00  0.00    +0.127 A 
ATOM     32  C   UNL     1      -2.959  -0.073   6.189  0.00  0.00    +0.046 A 
ATOM     33  C   UNL     1      -1.927  -0.888   5.764  0.00  0.00    +0.009 A 
BRANCH  31  34
ATOM     34  O   UNL     1      -4.640   1.535   5.694  0.00  0.00    -0.434 OA
BRANCH  34  35
ATOM     35  C   UNL     1      -4.974   1.491   7.082  0.00  0.00    +0.541 C 
ATOM     36  F   UNL     1      -5.352   0.190   7.430  0.00  0.00    -0.166 F 
ATOM     37  F   UNL     1      -3.863   1.873   7.842  0.00  0.00    -0.166 F 
ENDBRANCH  34  35
ENDBRANCH  31  34
ENDBRANCH   1  28
TORSDOF 7
