REMARK  Name = ZINC64156043
REMARK  8 active torsions:
REMARK  status: ('A' for Active; 'I' for Inactive)
REMARK    1  A    between atoms: C_1  and  C_2
REMARK    2  A    between atoms: C_3  and  C_9
REMARK    3  A    between atoms: C_4  and  N_8
REMARK    4  A    between atoms: C_9  and  O_11
REMARK    5  A    between atoms: O_11  and  C_12
REMARK    6  A    between atoms: C_12  and  C_14
REMARK    7  A    between atoms: C_12  and  C_20
REMARK    8  A    between atoms: C_20  and  C_22
REMARK                            x       y       z     vdW  Elec       q    Type
REMARK                         _______ _______ _______ _____ _____    ______ ____
ROOT
ATOM      1  C   UNL     1      -4.778  -0.722   0.023  0.00  0.00    +0.277 C 
ENDROOT
BRANCH   1   2
ATOM      2  C   UNL     1      -5.254  -0.532  -1.395  0.00  0.00    +0.000 A 
ATOM      3  C   UNL     1      -4.951  -1.477  -2.358  0.00  0.00    +0.008 A 
ATOM      4  C   UNL     1      -5.387  -1.303  -3.658  0.00  0.00    +0.000 A 
ATOM      5  C   UNL     1      -6.127  -0.184  -3.995  0.00  0.00    +0.000 A 
ATOM      6  C   UNL     1      -6.430   0.760  -3.032  0.00  0.00    +0.000 A 
ATOM      7  C   UNL     1      -5.997   0.583  -1.731  0.00  0.00    +0.008 A 
ENDBRANCH   1   2
BRANCH   1   8
ATOM      8  C   UNL     1      -5.688  -1.691   0.732  0.00  0.00    +0.206 C 
ATOM      9  O   UNL     1      -5.318  -2.828   0.944  0.00  0.00    -0.288 OA
BRANCH   8  10
ATOM     10  C   UNL     1      -6.970  -1.277   1.151  0.00  0.00    +0.027 C 
ATOM     11  C   UNL     1      -7.919  -2.034   1.815  0.00  0.00    +0.006 A 
ATOM     12  C   UNL     1      -7.936  -3.375   2.267  0.00  0.00    +0.010 A 
ATOM     13  C   UNL     1      -9.023  -3.866   2.902  0.00  0.00    +0.001 A 
ATOM     14  C   UNL     1     -10.169  -3.091   3.143  0.00  0.00    +0.002 A 
ATOM     15  C   UNL     1     -10.256  -1.802   2.752  0.00  0.00    +0.026 A 
ATOM     16  C   UNL     1      -9.114  -1.188   2.053  0.00  0.00    +0.043 A 
ATOM     17  N   UNL     1      -8.929   0.009   1.574  0.00  0.00    -0.380 N 
ATOM     18  C   UNL     1      -7.593   0.090   0.974  0.00  0.00    +0.152 C 
ATOM     19  H   UNL     1      -9.572   0.734   1.613  0.00  0.00    +0.160 HD
ENDBRANCH   8  10
ENDBRANCH   1   8
BRANCH   1  20
ATOM     20  O   UNL     1      -3.446  -1.240   0.013  0.00  0.00    -0.445 OA
BRANCH  20  21
ATOM     21  C   UNL     1      -2.439  -0.341   0.013  0.00  0.00    +0.342 C 
ATOM     22  O   UNL     1      -2.687   0.851   0.020  0.00  0.00    -0.245 OA
BRANCH  21  25
ATOM     23  C   UNL     1      -0.018   1.503   0.010  0.00  0.00    +0.066 C 
ATOM     24  C   UNL     1       0.002  -0.004   0.002  0.00  0.00    +0.050 C 
ATOM     25  C   UNL     1      -1.098  -0.783   0.003  0.00  0.00    +0.102 C 
ATOM     26  C   UNL     1      -0.625  -2.219  -0.007  0.00  0.00    +0.253 C 
ATOM     27  O   UNL     1       0.807  -2.136  -0.013  0.00  0.00    -0.251 OA
ATOM     28  N   UNL     1       1.132  -0.759  -0.013  0.00  0.00    -0.268 N 
ATOM     29  H   UNL     1       2.034  -0.403  -0.021  0.00  0.00    +0.194 HD
BRANCH  26  30
ATOM     30  N   UNL     1      -1.093  -2.920   1.196  0.00  0.00    -0.300 NA
ATOM     31  H   UNL     1      -0.783  -3.880   1.200  0.00  0.00    +0.121 HD
ATOM     32  H   UNL     1      -0.795  -2.441   2.033  0.00  0.00    +0.121 HD
ENDBRANCH  26  30
ENDBRANCH  21  25
ENDBRANCH  20  21
ENDBRANCH   1  20
TORSDOF 7
