REMARK  Name = ZINC39724964
REMARK  12 active torsions:
REMARK  status: ('A' for Active; 'I' for Inactive)
REMARK    1  A    between atoms: C_1  and  O_2
REMARK    2  A    between atoms: O_2  and  C_3
REMARK    3  A    between atoms: C_8  and  C_9
REMARK    4  A    between atoms: C_9  and  O_10
REMARK    5  A    between atoms: O_10  and  C_11
REMARK    6  A    between atoms: C_11  and  C_12
REMARK    7  A    between atoms: C_12  and  C_14
REMARK    8  A    between atoms: C_12  and  O_29
REMARK    9  A    between atoms: C_14  and  N_15
REMARK   10  A    between atoms: N_15  and  C_16
REMARK   11  A    between atoms: C_16  and  C_17
REMARK   12  A    between atoms: C_17  and  N_23
REMARK                            x       y       z     vdW  Elec       q    Type
REMARK                         _______ _______ _______ _____ _____    ______ ____
ROOT
ATOM      1  N   UNL     1      -0.283  -8.937   0.832  0.00  0.00    +0.380 N 
ATOM      2  H   UNL     1      -0.599  -9.056  -0.119  0.00  0.00    -0.086 HD
ATOM      3  H   UNL     1       0.687  -9.207   0.900  0.00  0.00    -0.086 HD
ENDROOT
BRANCH   1   4
ATOM      4  C   UNL     1      -0.429  -7.529   1.223  0.00  0.00    -0.049 C 
BRANCH   4   5
ATOM      5  C   UNL     1       0.411  -6.651   0.293  0.00  0.00    +0.123 C 
BRANCH   5   6
ATOM      6  O   UNL     1       1.785  -7.033   0.391  0.00  0.00    -0.391 OA
ATOM      7  H   UNL     1       2.156  -6.944   1.280  0.00  0.00    +0.210 HD
ENDBRANCH   5   6
BRANCH   5   8
ATOM      8  C   UNL     1       0.259  -5.185   0.701  0.00  0.00    +0.189 C 
BRANCH   8   9
ATOM      9  O   UNL     1       0.949  -4.356  -0.236  0.00  0.00    -0.373 OA
BRANCH   9  10
ATOM     10  C   UNL     1       0.870  -2.959   0.055  0.00  0.00    +0.198 C 
BRANCH  10  16
ATOM     11  C   UNL     1       1.692  -0.800  -0.920  0.00  0.00    +0.125 A 
ATOM     12  C   UNL     1       2.396  -0.090  -1.882  0.00  0.00    +0.046 A 
ATOM     13  C   UNL     1       3.026  -0.761  -2.912  0.00  0.00    +0.004 A 
ATOM     14  C   UNL     1       2.955  -2.140  -2.984  0.00  0.00    +0.001 A 
ATOM     15  C   UNL     1       2.255  -2.850  -2.027  0.00  0.00    +0.009 A 
ATOM     16  C   UNL     1       1.628  -2.184  -0.992  0.00  0.00    +0.020 A 
BRANCH  11  18
ATOM     17  C   UNL     1       1.181   1.283   0.105  0.00  0.00    +0.277 C 
ATOM     18  O   UNL     1       1.072  -0.141   0.095  0.00  0.00    -0.495 OA
ENDBRANCH  11  18
ENDBRANCH  10  16
ENDBRANCH   9  10
ENDBRANCH   8   9
ENDBRANCH   5   8
ENDBRANCH   4   5
ENDBRANCH   1   4
BRANCH   1  19
ATOM     19  C   UNL     1      -1.090  -9.780   1.724  0.00  0.00    -0.095 C 
BRANCH  19  20
ATOM     20  C   UNL     1      -1.017 -11.235   1.256  0.00  0.00    -0.081 C 
ATOM     21  C   UNL     1      -1.960 -12.091   2.104  0.00  0.00    -0.014 C 
ATOM     22  C   UNL     1      -1.543 -12.007   3.573  0.00  0.00    -0.001 C 
ATOM     23  C   UNL     1      -0.110 -12.521   3.727  0.00  0.00    -0.000 C 
ATOM     24  C   UNL     1       0.833 -11.665   2.879  0.00  0.00    -0.001 C 
ATOM     25  C   UNL     1       0.415 -11.749   1.409  0.00  0.00    -0.014 C 
BRANCH  20  26
ATOM     26  N   UNL     1      -1.418 -11.316  -0.155  0.00  0.00    +0.382 N 
ATOM     27  C   UNL     1      -2.773 -10.773  -0.309  0.00  0.00    -0.078 C 
ATOM     28  C   UNL     1      -3.164 -10.780  -1.788  0.00  0.00    -0.019 C 
ATOM     29  C   UNL     1      -3.126 -12.218  -2.314  0.00  0.00    -0.004 C 
ATOM     30  C   UNL     1      -1.728 -12.799  -2.081  0.00  0.00    -0.019 C 
ATOM     31  C   UNL     1      -1.390 -12.717  -0.591  0.00  0.00    -0.078 C 
ATOM     32  H   UNL     1      -0.776 -10.777  -0.717  0.00  0.00    -0.081 HD
ENDBRANCH  20  26
ENDBRANCH  19  20
ENDBRANCH   1  19
TORSDOF 11
