REMARK  Name = ZINC35664726
REMARK  10 active torsions:
REMARK  status: ('A' for Active; 'I' for Inactive)
REMARK    1  A    between atoms: C_1  and  C_2
REMARK    2  A    between atoms: C_2  and  O_3
REMARK    3  A    between atoms: O_3  and  C_4
REMARK    4  A    between atoms: C_4  and  C_6
REMARK    5  A    between atoms: C_7  and  C_24
REMARK    6  A    between atoms: N_8  and  C_21
REMARK    7  A    between atoms: C_12  and  C_14
REMARK    8  A    between atoms: C_21  and  C_22
REMARK    9  A    between atoms: C_24  and  N_25
REMARK   10  A    between atoms: C_32  and  C_34
REMARK                            x       y       z     vdW  Elec       q    Type
REMARK                         _______ _______ _______ _____ _____    ______ ____
ROOT
ATOM      1  C   UNL     1       0.920  -2.421  -2.289  0.00  0.00    +0.076 C 
ATOM      2  C   UNL     1       1.404  -3.676  -2.419  0.00  0.00    +0.011 C 
ATOM      3  N   UNL     1       2.255  -4.001  -3.436  0.00  0.00    -0.257 N 
ATOM      4  C   UNL     1       2.671  -3.130  -4.363  0.00  0.00    +0.307 C 
ATOM      5  O   UNL     1       3.430  -3.513  -5.232  0.00  0.00    -0.252 OA
ATOM      6  N   UNL     1       2.275  -1.841  -4.366  0.00  0.00    -0.288 N 
ATOM      7  C   UNL     1       1.350  -1.390  -3.312  0.00  0.00    +0.143 C 
ATOM      8  H   UNL     1       2.590  -1.227  -5.047  0.00  0.00    +0.151 HD
ENDROOT
BRANCH   7   9
ATOM      9  C   UNL     1       2.011  -0.253  -2.577  0.00  0.00    -0.022 A 
ATOM     10  C   UNL     1       3.326  -0.366  -2.168  0.00  0.00    +0.008 A 
ATOM     11  C   UNL     1       3.933   0.677  -1.494  0.00  0.00    +0.038 A 
ATOM     12  C   UNL     1       3.223   1.835  -1.228  0.00  0.00    +0.123 A 
ATOM     13  C   UNL     1       1.905   1.947  -1.637  0.00  0.00    +0.038 A 
ATOM     14  C   UNL     1       1.302   0.905  -2.316  0.00  0.00    +0.008 A 
ATOM     15  F   UNL     1       3.815   2.855  -0.568  0.00  0.00    -0.205 F 
ENDBRANCH   7   9
BRANCH   1  16
ATOM     16  C   UNL     1       0.038  -2.083  -1.236  0.00  0.00    +0.339 C 
ATOM     17  O   UNL     1      -0.366  -2.947  -0.480  0.00  0.00    -0.245 OA
BRANCH  16  18
ATOM     18  O   UNL     1      -0.355  -0.803  -1.070  0.00  0.00    -0.462 OA
BRANCH  18  20
ATOM     19  C   UNL     1      -1.579   0.960   0.042  0.00  0.00    +0.048 C 
ATOM     20  C   UNL     1      -1.247  -0.534   0.013  0.00  0.00    +0.229 C 
ENDBRANCH  18  20
ENDBRANCH  16  18
ENDBRANCH   1  16
BRANCH   3  21
ATOM     21  C   UNL     1       2.740  -5.381  -3.517  0.00  0.00    +0.141 C 
BRANCH  21  22
ATOM     22  C   UNL     1       1.862  -6.168  -4.454  0.00  0.00    -0.015 C 
ATOM     23  C   UNL     1       2.386  -6.766  -5.496  0.00  0.00    +0.005 C 
ENDBRANCH  21  22
ENDBRANCH   3  21
BRANCH   2  24
ATOM     24  C   UNL     1       0.997  -4.734  -1.425  0.00  0.00    -0.026 C 
BRANCH  24  25
ATOM     25  N   UNL     1       2.006  -4.819  -0.361  0.00  0.00    +0.384 N 
ATOM     26  C   UNL     1       1.732  -6.010   0.440  0.00  0.00    -0.077 C 
ATOM     27  C   UNL     1       3.028  -6.534   1.017  0.00  0.00    +0.000 C 
ATOM     28  C   UNL     1       3.237  -5.945   2.424  0.00  0.00    +0.106 C 
ATOM     29  N   UNL     1       2.831  -4.526   2.472  0.00  0.00    -0.299 N 
ATOM     30  C   UNL     1       3.137  -3.595   1.405  0.00  0.00    +0.089 C 
ATOM     31  C   UNL     1       2.000  -3.603   0.358  0.00  0.00    -0.059 C 
ATOM     32  C   UNL     1       2.150  -4.081   3.546  0.00  0.00    +0.247 C 
ATOM     33  O   UNL     1       1.710  -2.948   3.561  0.00  0.00    -0.270 OA
ATOM     34  H   UNL     1       2.912  -4.930  -0.791  0.00  0.00    -0.081 HD
BRANCH  32  35
ATOM     35  C   UNL     1       1.937  -4.972   4.707  0.00  0.00    +0.037 A 
ATOM     36  C   UNL     1       2.932  -5.872   5.092  0.00  0.00    +0.013 A 
ATOM     37  C   UNL     1       2.728  -6.699   6.176  0.00  0.00    +0.001 A 
ATOM     38  C   UNL     1       1.539  -6.639   6.882  0.00  0.00    +0.000 A 
ATOM     39  C   UNL     1       0.548  -5.749   6.506  0.00  0.00    +0.001 A 
ATOM     40  C   UNL     1       0.743  -4.912   5.427  0.00  0.00    +0.013 A 
ENDBRANCH  32  35
ENDBRANCH  24  25
ENDBRANCH   2  24
TORSDOF 9
