REMARK  Name = ZINC52244980
REMARK  9 active torsions:
REMARK  status: ('A' for Active; 'I' for Inactive)
REMARK    1  A    between atoms: C_4  and  S_22
REMARK    2  A    between atoms: C_5  and  N_7
REMARK    3  A    between atoms: C_8  and  C_10
REMARK    4  A    between atoms: C_10  and  N_11
REMARK    5  A    between atoms: N_11  and  C_12
REMARK    6  A    between atoms: N_11  and  C_19
REMARK    7  A    between atoms: C_12  and  C_13
REMARK    8  A    between atoms: S_22  and  C_23
REMARK    9  A    between atoms: C_23  and  C_24
REMARK                            x       y       z     vdW  Elec       q    Type
REMARK                         _______ _______ _______ _____ _____    ______ ____
ROOT
ATOM      1  N   UNL     1       0.910  -1.877   0.304  0.00  0.00    -0.286 N 
ATOM      2  C   UNL     1      -0.185  -2.663   0.300  0.00  0.00    +0.201 C 
ATOM      3  O   UNL     1      -1.289  -2.165   0.249  0.00  0.00    -0.278 OA
ATOM      4  H   UNL     1       1.793  -2.276   0.266  0.00  0.00    +0.155 HD
ENDROOT
BRANCH   1   9
ATOM      5  C   UNL     1      -0.504   1.454   0.971  0.00  0.00    +0.002 A 
ATOM      6  C   UNL     1       0.498   2.272   0.482  0.00  0.00    +0.001 A 
ATOM      7  C   UNL     1       1.639   1.720  -0.068  0.00  0.00    +0.016 A 
ATOM      8  C   UNL     1       1.783   0.341  -0.131  0.00  0.00    +0.030 A 
ATOM      9  C   UNL     1       0.772  -0.484   0.364  0.00  0.00    +0.047 A 
ATOM     10  C   UNL     1      -0.370   0.079   0.913  0.00  0.00    +0.024 A 
BRANCH   8  11
ATOM     11  S   UNL     1       3.236  -0.366  -0.832  0.00  0.00    -0.114 S 
BRANCH  11  12
ATOM     12  C   UNL     1       4.230   1.071  -1.322  0.00  0.00    +0.169 C 
BRANCH  12  13
ATOM     13  C   UNL     1       5.519   0.600  -1.945  0.00  0.00    +0.221 C 
ATOM     14  O   UNL     1       5.746  -0.587  -2.048  0.00  0.00    -0.275 OA
ATOM     15  N   UNL     1       6.421   1.499  -2.387  0.00  0.00    -0.329 N 
ATOM     16  H   UNL     1       6.240   2.449  -2.304  0.00  0.00    +0.145 HD
ATOM     17  H   UNL     1       7.251   1.197  -2.788  0.00  0.00    +0.145 HD
ENDBRANCH  12  13
ENDBRANCH  11  12
ENDBRANCH   8  11
ENDBRANCH   1   9
BRANCH   2  18
ATOM     18  C   UNL     1      -0.037  -4.162   0.360  0.00  0.00    +0.019 C 
BRANCH  18  19
ATOM     19  N   UNL     1      -1.366  -4.786   0.343  0.00  0.00    +0.387 N 
ATOM     20  H   UNL     1      -1.925  -4.407   1.093  0.00  0.00    -0.081 HD
BRANCH  19  21
ATOM     21  C   UNL     1      -2.020  -4.511  -0.943  0.00  0.00    -0.068 C 
ATOM     22  C   UNL     1      -3.302  -3.676  -0.919  0.00  0.00    -0.017 C 
ATOM     23  C   UNL     1      -3.372  -5.178  -1.205  0.00  0.00    -0.017 C 
ENDBRANCH  19  21
BRANCH  19  24
ATOM     24  C   UNL     1      -1.228  -6.238   0.521  0.00  0.00    -0.074 C 
BRANCH  24  25
ATOM     25  C   UNL     1      -0.693  -6.531   1.925  0.00  0.00    -0.028 C 
ATOM     26  C   UNL     1      -1.729  -6.098   2.965  0.00  0.00    +0.002 C 
ATOM     27  C   UNL     1      -1.194  -6.391   4.369  0.00  0.00    +0.000 C 
ATOM     28  C   UNL     1      -0.925  -7.891   4.510  0.00  0.00    +0.000 C 
ATOM     29  C   UNL     1       0.110  -8.323   3.469  0.00  0.00    +0.000 C 
ATOM     30  C   UNL     1      -0.425  -8.030   2.066  0.00  0.00    +0.002 C 
ENDBRANCH  24  25
ENDBRANCH  19  24
ENDBRANCH  18  19
ENDBRANCH   2  18
TORSDOF 9
