REMARK  Name = ZINC29677545
REMARK  7 active torsions:
REMARK  status: ('A' for Active; 'I' for Inactive)
REMARK    1  A    between atoms: C_1  and  C_2
REMARK    2  A    between atoms: C_9  and  C_11
REMARK    3  A    between atoms: C_11  and  N_12
REMARK    4  A    between atoms: N_15  and  C_18
REMARK    5  A    between atoms: C_18  and  C_20
REMARK    6  A    between atoms: C_18  and  C_21
REMARK    7  A    between atoms: N_26  and  C_27
REMARK                            x       y       z     vdW  Elec       q    Type
REMARK                         _______ _______ _______ _____ _____    ______ ____
ROOT
ATOM      1  N   UNL     1      -5.018  -3.561   0.828  0.00  0.00    +0.387 N 
ATOM      2  C   UNL     1      -4.373  -3.801  -0.471  0.00  0.00    -0.063 C 
ATOM      3  C   UNL     1      -2.971  -3.187  -0.462  0.00  0.00    +0.066 C 
ATOM      4  N   UNL     1      -3.071  -1.747  -0.184  0.00  0.00    -0.295 NA
ATOM      5  C   UNL     1      -3.716  -1.508   1.114  0.00  0.00    +0.066 C 
ATOM      6  C   UNL     1      -5.118  -2.122   1.105  0.00  0.00    -0.063 C 
ATOM      7  H   UNL     1      -4.389  -4.015   1.608  0.00  0.00    -0.081 HD
ENDROOT
BRANCH   4   8
ATOM      8  C   UNL     1      -1.750  -1.106  -0.242  0.00  0.00    +0.140 C 
ATOM      9  C   UNL     1      -0.868  -1.656   0.880  0.00  0.00    +0.034 C 
BRANCH   8  10
ATOM     10  C   UNL     1      -1.907   0.383  -0.075  0.00  0.00    +0.237 C 
ATOM     11  O   UNL     1      -3.010   0.864   0.077  0.00  0.00    -0.274 OA
ATOM     12  N   UNL     1      -0.821   1.181  -0.095  0.00  0.00    -0.239 N 
ATOM     13  C   UNL     1      -0.961   2.513   0.055  0.00  0.00    +0.306 C 
ATOM     14  O   UNL     1      -2.067   2.995   0.203  0.00  0.00    -0.252 OA
ATOM     15  N   UNL     1       0.125   3.311   0.035  0.00  0.00    -0.302 N 
ATOM     16  C   UNL     1      -0.027   4.759   0.198  0.00  0.00    +0.129 C 
ATOM     17  H   UNL     1       0.179   0.745  -0.233  0.00  0.00    +0.159 HD
ATOM     18  H   UNL     1       1.125   2.875  -0.103  0.00  0.00    +0.150 HD
ENDBRANCH   8  10
ENDBRANCH   4   8
BRANCH   1  19
ATOM     19  C   UNL     1      -6.339  -4.202   0.885  0.00  0.00    +0.019 C 
BRANCH  19  27
ATOM     20  C   UNL     1      -7.563  -3.983   4.887  0.00  0.00    +0.028 C 
ATOM     21  C   UNL     1      -8.541  -4.733   3.980  0.00  0.00    +0.073 C 
ATOM     22  C   UNL     1      -9.922  -4.076   4.055  0.00  0.00    +0.022 C 
ATOM     23  C   UNL     1     -10.857  -4.745   3.044  0.00  0.00    +0.003 C 
ATOM     24  C   UNL     1     -10.305  -4.550   1.630  0.00  0.00    +0.019 C 
ATOM     25  C   UNL     1      -8.930  -5.208   1.527  0.00  0.00    +0.108 C 
ATOM     26  N   UNL     1      -8.065  -4.678   2.591  0.00  0.00    -0.300 N 
ATOM     27  C   UNL     1      -6.862  -4.148   2.298  0.00  0.00    +0.199 C 
ATOM     28  O   UNL     1      -6.199  -3.627   3.170  0.00  0.00    -0.278 OA
ENDBRANCH  19  27
ENDBRANCH   1  19
TORSDOF 4
