REMARK  Name = ZINC31585948
REMARK  9 active torsions:
REMARK  status: ('A' for Active; 'I' for Inactive)
REMARK    1  A    between atoms: C_1  and  C_2
REMARK    2  A    between atoms: C_2  and  C_4
REMARK    3  A    between atoms: C_2  and  N_14
REMARK    4  A    between atoms: N_9  and  C_10
REMARK    5  A    between atoms: C_10  and  C_11
REMARK    6  A    between atoms: C_10  and  C_12
REMARK    7  A    between atoms: C_10  and  C_13
REMARK    8  A    between atoms: N_17  and  S_20
REMARK    9  A    between atoms: S_20  and  C_23
REMARK                            x       y       z     vdW  Elec       q    Type
REMARK                         _______ _______ _______ _____ _____    ______ ____
ROOT
ATOM      1  N   UNL     1      -0.895   3.043   1.186  0.00  0.00    +0.389 N 
ATOM      2  C   UNL     1      -0.738   1.584   1.263  0.00  0.00    -0.060 C 
ATOM      3  C   UNL     1      -0.013   1.086   0.008  0.00  0.00    +0.091 C 
ATOM      4  N   UNL     1      -0.732   1.577  -1.178  0.00  0.00    -0.180 NA
ATOM      5  C   UNL     1      -1.043   3.012  -1.258  0.00  0.00    +0.091 C 
ATOM      6  C   UNL     1      -1.732   3.434   0.044  0.00  0.00    -0.060 C 
ATOM      7  H   UNL     1       0.104   3.478   1.030  0.00  0.00    -0.081 HD
ENDROOT
BRANCH   4   8
ATOM      8  S   UNL     1      -1.178   0.541  -2.390  0.00  0.00    +0.067 S 
ATOM      9  O   UNL     1      -1.315   1.327  -3.566  0.00  0.00    -0.152 OA
ATOM     10  O   UNL     1      -0.298  -0.573  -2.317  0.00  0.00    -0.152 OA
BRANCH   8  11
ATOM     11  C   UNL     1      -2.786  -0.060  -1.996  0.00  0.00    +0.144 A 
ATOM     12  C   UNL     1      -3.995   0.452  -2.333  0.00  0.00    +0.037 A 
ATOM     13  C   UNL     1      -5.140  -0.197  -1.907  0.00  0.00    +0.025 A 
ATOM     14  C   UNL     1      -5.019  -1.326  -1.166  0.00  0.00    +0.057 A 
ATOM     15  S   UNL     1      -3.246  -1.507  -1.056  0.00  0.00    -0.062 S 
ATOM     16 BR   UNL     1      -6.376  -2.427  -0.443  0.00  0.00    -0.043 Br
ENDBRANCH   8  11
ENDBRANCH   4   8
BRANCH   1  18
ATOM     17  C   UNL     1      -2.735   2.855   2.791  0.00  0.00    -0.004 C 
ATOM     18  C   UNL     1      -1.434   3.580   2.443  0.00  0.00    +0.017 C 
BRANCH  18  19
ATOM     19  C   UNL     1      -0.432   3.373   3.549  0.00  0.00    +0.207 C 
ATOM     20  O   UNL     1       0.627   2.831   3.314  0.00  0.00    -0.277 OA
ATOM     21  N   UNL     1      -0.713   3.789   4.800  0.00  0.00    -0.242 N 
ATOM     22  C   UNL     1       0.183   3.604   5.789  0.00  0.00    +0.306 C 
ATOM     23  O   UNL     1       1.245   3.061   5.553  0.00  0.00    -0.252 OA
ATOM     24  N   UNL     1      -0.098   4.021   7.040  0.00  0.00    -0.294 N 
ATOM     25  H   UNL     1      -1.674   4.281   5.013  0.00  0.00    +0.159 HD
ATOM     26  H   UNL     1      -1.058   4.512   7.253  0.00  0.00    +0.151 HD
BRANCH  24  27
ATOM     27  C   UNL     1       0.876   3.819   8.115  0.00  0.00    +0.028 C 
ATOM     28  C   UNL     1       2.178   4.544   7.767  0.00  0.00    +0.031 C 
ATOM     29  C   UNL     1       0.315   4.378   9.424  0.00  0.00    +0.031 C 
ATOM     30  C   UNL     1       1.154   2.323   8.277  0.00  0.00    +0.031 C 
ENDBRANCH  24  27
ENDBRANCH  18  19
ENDBRANCH   1  18
TORSDOF 5
