REMARK  Name = ZINC61881952
REMARK  6 active torsions:
REMARK  status: ('A' for Active; 'I' for Inactive)
REMARK    1  A    between atoms: C_1  and  N_2
REMARK    2  A    between atoms: C_5  and  C_8
REMARK    3  A    between atoms: C_8  and  N_9
REMARK    4  A    between atoms: N_9  and  S_10
REMARK    5  A    between atoms: S_10  and  C_13
REMARK    6  A    between atoms: C_17  and  N_20
REMARK                            x       y       z     vdW  Elec       q    Type
REMARK                         _______ _______ _______ _____ _____    ______ ____
ROOT
ATOM      1  S   UNL     1      -0.183  -4.492   4.426  0.00  0.00    +0.060 S 
ATOM      2  O   UNL     1      -0.542  -5.863   4.322  0.00  0.00    -0.153 OA
ATOM      3  O   UNL     1       1.126  -4.073   4.785  0.00  0.00    -0.153 OA
ENDROOT
BRANCH   1   4
ATOM      4  C   UNL     1      -1.283  -3.771   5.598  0.00  0.00    +0.122 A 
ATOM      5  C   UNL     1      -0.782  -3.006   6.636  0.00  0.00    +0.049 A 
ATOM      6  C   UNL     1      -1.643  -2.438   7.558  0.00  0.00    +0.045 A 
ATOM      7  C   UNL     1      -3.007  -2.632   7.444  0.00  0.00    +0.044 A 
ATOM      8  C   UNL     1      -3.513  -3.398   6.403  0.00  0.00    +0.042 A 
ATOM      9  C   UNL     1      -2.646  -3.964   5.475  0.00  0.00    +0.065 A 
ATOM     10 BR   UNL     1      -3.330  -5.003   4.051  0.00  0.00    -0.046 Br
ATOM     11 CL   UNL     1      -1.009  -1.480   8.859  0.00  0.00    -0.083 Cl
BRANCH   8  12
ATOM     12  N   UNL     1      -4.891  -3.597   6.285  0.00  0.00    -0.357 N 
ATOM     13  H   UNL     1      -5.495  -3.199   6.931  0.00  0.00    +0.142 HD
ATOM     14  H   UNL     1      -5.243  -4.133   5.557  0.00  0.00    +0.142 HD
ENDBRANCH   8  12
ENDBRANCH   1   4
BRANCH   1  15
ATOM     15  N   UNL     1      -0.513  -3.804   2.956  0.00  0.00    -0.190 NA
ATOM     16  H   UNL     1      -0.861  -4.349   2.232  0.00  0.00    +0.148 HD
BRANCH  15  17
ATOM     17  C   UNL     1      -0.280  -2.373   2.748  0.00  0.00    +0.107 C 
BRANCH  17  22
ATOM     18  C   UNL     1      -1.086   1.249  -0.171  0.00  0.00    -0.096 C 
ATOM     19  N   UNL     1      -0.859  -0.202  -0.145  0.00  0.00    +0.378 N 
ATOM     20  C   UNL     1      -2.132  -0.923   0.113  0.00  0.00    -0.079 C 
ATOM     21  C   UNL     1      -1.697  -2.298   0.663  0.00  0.00    -0.016 C 
ATOM     22  C   UNL     1      -0.289  -2.067   1.249  0.00  0.00    -0.014 C 
ATOM     23  C   UNL     1       0.008  -0.572   1.003  0.00  0.00    -0.075 C 
ATOM     24  H   UNL     1      -0.446  -0.510  -1.013  0.00  0.00    -0.082 HD
ENDBRANCH  17  22
ENDBRANCH  15  17
ENDBRANCH   1  15
TORSDOF 5
