REMARK  Name = ZINC62038771
REMARK  10 active torsions:
REMARK  status: ('A' for Active; 'I' for Inactive)
REMARK    1  A    between atoms: C_1  and  C_2
REMARK    2  A    between atoms: C_2  and  C_3
REMARK    3  A    between atoms: C_4  and  C_29
REMARK    4  A    between atoms: C_9  and  S_13
REMARK    5  A    between atoms: S_13  and  C_14
REMARK    6  A    between atoms: C_14  and  C_16
REMARK    7  A    between atoms: C_14  and  C_17
REMARK    8  A    between atoms: N_19  and  C_20
REMARK    9  A    between atoms: C_22  and  C_27
REMARK   10  A    between atoms: C_25  and  O_26
REMARK                            x       y       z     vdW  Elec       q    Type
REMARK                         _______ _______ _______ _____ _____    ______ ____
ROOT
ATOM      1  C   UNL     1       0.696  -0.422  -1.273  0.00  0.00    +0.000 A 
ATOM      2  C   UNL     1       2.015  -0.694  -1.436  0.00  0.00    +0.013 A 
ATOM      3  C   UNL     1       2.475  -1.169  -2.737  0.00  0.00    +0.080 A 
ATOM      4  C   UNL     1       3.842  -1.533  -3.175  0.00  0.00    +0.283 A 
ATOM      5  O   UNL     1       4.780  -1.454  -2.398  0.00  0.00    -0.265 OA
ATOM      6  N   UNL     1       4.038  -1.950  -4.430  0.00  0.00    -0.185 NA
ATOM      7  C   UNL     1       3.055  -2.051  -5.300  0.00  0.00    +0.171 A 
ATOM      8  N   UNL     1       1.774  -1.732  -4.965  0.00  0.00    -0.328 N 
ATOM      9  C   UNL     1       1.481  -1.298  -3.707  0.00  0.00    +0.093 A 
ATOM     10  S   UNL     1       0.000  -0.801  -2.870  0.00  0.00    -0.075 S 
ATOM     11  H   UNL     1       1.067  -1.815  -5.624  0.00  0.00    +0.168 HD
ENDROOT
BRANCH   2  12
ATOM     12  C   UNL     1       2.966  -0.512  -0.320  0.00  0.00    +0.021 A 
ATOM     13  C   UNL     1       3.709  -1.452   0.343  0.00  0.00    +0.016 A 
ATOM     14  C   UNL     1       4.538  -1.040   1.365  0.00  0.00    +0.008 A 
ATOM     15  C   UNL     1       4.594   0.278   1.682  0.00  0.00    +0.046 A 
ATOM     16  S   UNL     1       3.451   0.992   0.511  0.00  0.00    -0.097 S 
ENDBRANCH   2  12
BRANCH   1  18
ATOM     17  C   UNL     1      -0.028   1.605  -0.040  0.00  0.00    +0.009 C 
ATOM     18  C   UNL     1      -0.011   0.075  -0.038  0.00  0.00    +0.040 C 
ENDBRANCH   1  18
BRANCH   7  19
ATOM     19  S   UNL     1       3.405  -2.610  -6.934  0.00  0.00    -0.075 S 
BRANCH  19  20
ATOM     20  C   UNL     1       5.195  -2.907  -6.923  0.00  0.00    +0.137 C 
ATOM     21  C   UNL     1       5.516  -4.051  -5.958  0.00  0.00    +0.029 C 
BRANCH  20  22
ATOM     22  C   UNL     1       5.652  -3.277  -8.310  0.00  0.00    +0.230 C 
ATOM     23  O   UNL     1       4.850  -3.687  -9.124  0.00  0.00    -0.274 OA
ATOM     24  N   UNL     1       6.951  -3.153  -8.648  0.00  0.00    -0.282 N 
ATOM     25  H   UNL     1       7.580  -2.764  -8.020  0.00  0.00    +0.155 HD
BRANCH  24  26
ATOM     26  C   UNL     1       7.392  -3.584  -9.906  0.00  0.00    +0.076 A 
ATOM     27  C   UNL     1       6.568  -3.459 -11.008  0.00  0.00    +0.038 A 
ATOM     28  C   UNL     1       7.013  -3.891 -12.263  0.00  0.00    +0.016 A 
ATOM     29  C   UNL     1       8.291  -4.449 -12.394  0.00  0.00    +0.015 A 
ATOM     30  C   UNL     1       9.106  -4.570 -11.291  0.00  0.00    +0.048 A 
ATOM     31  C   UNL     1       8.667  -4.136 -10.047  0.00  0.00    +0.138 A 
BRANCH  31  32
ATOM     32  O   UNL     1       9.477  -4.253  -8.964  0.00  0.00    -0.505 OA
ATOM     33  H   UNL     1       9.382  -5.091  -8.491  0.00  0.00    +0.292 HD
ENDBRANCH  31  32
BRANCH  28  34
ATOM     34  C   UNL     1       6.143  -3.761 -13.438  0.00  0.00    +0.258 C 
ATOM     35  O   UNL     1       6.530  -4.136 -14.525  0.00  0.00    -0.296 OA
ENDBRANCH  28  34
ENDBRANCH  24  26
ENDBRANCH  20  22
ENDBRANCH  19  20
ENDBRANCH   7  19
TORSDOF 8
