REMARK  Name = ZINC59112679
REMARK  10 active torsions:
REMARK  status: ('A' for Active; 'I' for Inactive)
REMARK    1  A    between atoms: C_1  and  C_2
REMARK    2  A    between atoms: C_2  and  C_22
REMARK    3  A    between atoms: C_4  and  N_10
REMARK    4  A    between atoms: C_6  and  C_8
REMARK    5  A    between atoms: C_6  and  C_9
REMARK    6  A    between atoms: N_10  and  C_11
REMARK    7  A    between atoms: C_11  and  N_13
REMARK    8  A    between atoms: N_13  and  C_14
REMARK    9  A    between atoms: C_14  and  C_15
REMARK   10  A    between atoms: C_15  and  C_16
REMARK                            x       y       z     vdW  Elec       q    Type
REMARK                         _______ _______ _______ _____ _____    ______ ____
ROOT
ATOM      1  N   UNL     1       2.615  -0.819  -2.626  0.00  0.00    -0.324 N 
ATOM      2  H   UNL     1       2.133  -1.510  -3.106  0.00  0.00    +0.148 HD
ENDROOT
BRANCH   1   6
ATOM      3  C   UNL     1      -0.019   1.528   0.010  0.00  0.00    -0.010 C 
ATOM      4  C   UNL     1       0.002  -0.004   0.002  0.00  0.00    -0.072 C 
ATOM      5  C   UNL     1       0.573  -0.505  -1.321  0.00  0.00    +0.009 C 
ATOM      6  C   UNL     1       2.088  -0.301  -1.357  0.00  0.00    +0.069 C 
ATOM      7  C   UNL     1       2.703  -1.086  -0.198  0.00  0.00    +0.009 C 
ATOM      8  C   UNL     1       2.147  -0.590   1.133  0.00  0.00    -0.072 C 
ATOM      9  N   UNL     1       0.697  -0.529   1.164  0.00  0.00    +0.386 N 
ATOM     10  C   UNL     1       2.769   0.766   1.481  0.00  0.00    -0.010 C 
ATOM     11  C   UNL     1       2.600  -1.589   2.223  0.00  0.00    -0.010 C 
ATOM     12  C   UNL     1      -1.468  -0.478   0.079  0.00  0.00    -0.010 C 
ATOM     13  H   UNL     1       0.416   0.021   1.982  0.00  0.00    -0.084 HD
ATOM     14  H   UNL     1       0.341  -1.472   1.351  0.00  0.00    -0.084 HD
ENDBRANCH   1   6
BRANCH   1  15
ATOM     15  C   UNL     1       3.770  -0.334  -3.123  0.00  0.00    +0.130 C 
ATOM     16  S   UNL     1       4.622   0.885  -2.276  0.00  0.00    -0.019 S 
BRANCH  15  17
ATOM     17  N   UNL     1       4.255  -0.809  -4.288  0.00  0.00    -0.326 N 
ATOM     18  H   UNL     1       3.772  -1.500  -4.768  0.00  0.00    +0.148 HD
BRANCH  17  19
ATOM     19  C   UNL     1       5.510  -0.282  -4.829  0.00  0.00    +0.107 C 
BRANCH  19  20
ATOM     20  C   UNL     1       5.832  -0.986  -6.149  0.00  0.00    +0.049 C 
BRANCH  20  21
ATOM     21  C   UNL     1       7.123  -0.444  -6.705  0.00  0.00    -0.072 C 
ATOM     22  C   UNL     1       8.214  -1.089  -6.445  0.00  0.00    -0.028 C 
ATOM     23  C   UNL     1       9.574  -0.668  -6.919  0.00  0.00    +0.027 C 
ATOM     24  C   UNL     1       9.444   0.338  -8.065  0.00  0.00    +0.004 C 
ATOM     25  C   UNL     1       8.457   1.432  -7.641  0.00  0.00    +0.005 C 
ATOM     26  C   UNL     1       7.063   0.807  -7.532  0.00  0.00    +0.030 C 
ENDBRANCH  20  21
ENDBRANCH  19  20
ENDBRANCH  17  19
ENDBRANCH  15  17
ENDBRANCH   1  15
TORSDOF 6
