REMARK  Name = ZINC08636328
REMARK  11 active torsions:
REMARK  status: ('A' for Active; 'I' for Inactive)
REMARK    1  A    between atoms: C_1  and  C_2
REMARK    2  A    between atoms: C_4  and  C_32
REMARK    3  A    between atoms: C_6  and  N_8
REMARK    4  A    between atoms: C_13  and  O_31
REMARK    5  A    between atoms: C_15  and  O_30
REMARK    6  A    between atoms: C_18  and  C_23
REMARK    7  A    between atoms: N_25  and  C_26
REMARK    8  A    between atoms: C_26  and  C_27
REMARK    9  A    between atoms: C_27  and  N_58
REMARK   10  A    between atoms: C_28  and  N_58
REMARK   11  A    between atoms: C_29  and  N_58
REMARK                            x       y       z     vdW  Elec       q    Type
REMARK                         _______ _______ _______ _____ _____    ______ ____
ROOT
ATOM      1  N   UNL     1       6.454   1.617   2.982  0.00  0.00    -0.294 N 
ATOM      2  C   UNL     1       5.677   1.773   1.855  0.00  0.00    +0.154 C 
ATOM      3  N   UNL     1       5.932   1.325   0.660  0.00  0.00    -0.256 NA
ATOM      4  C   UNL     1       5.038   1.595  -0.434  0.00  0.00    +0.153 C 
ATOM      5  C   UNL     1       4.945   0.522  -1.474  0.00  0.00    +0.168 C 
ATOM      6  C   UNL     1       3.679  -0.318  -1.344  0.00  0.00    +0.146 C 
ATOM      7  C   UNL     1       2.472   0.625  -1.386  0.00  0.00    +0.048 C 
ATOM      8  C   UNL     1       2.499   1.505  -0.142  0.00  0.00    +0.093 C 
ATOM      9  C   UNL     1       3.768   2.330  -0.046  0.00  0.00    +0.093 C 
ATOM     10  S   UNL     1       4.117   2.627   1.737  0.00  0.00    -0.084 S 
ATOM     11  H   UNL     1       6.128   1.926   3.842  0.00  0.00    +0.154 HD
ENDROOT
BRANCH   1  17
ATOM     12  C   UNL     1      10.476   0.617   0.339  0.00  0.00    +0.044 C 
ATOM     13  C   UNL     1       9.684   0.514   1.617  0.00  0.00    -0.048 A 
ATOM     14  C   UNL     1      10.202  -0.176   2.697  0.00  0.00    +0.006 A 
ATOM     15  C   UNL     1       9.479  -0.273   3.871  0.00  0.00    -0.048 A 
ATOM     16  C   UNL     1       8.236   0.321   3.969  0.00  0.00    +0.026 A 
ATOM     17  C   UNL     1       7.712   1.015   2.886  0.00  0.00    +0.033 A 
ATOM     18  C   UNL     1       8.439   1.106   1.706  0.00  0.00    +0.026 A 
ATOM     19  C   UNL     1      10.048  -1.027   5.046  0.00  0.00    +0.044 C 
ENDBRANCH   1  17
BRANCH   8  20
ATOM     20  C   UNL     1       1.314   2.434  -0.176  0.00  0.00    +0.217 C 
ATOM     21  O   UNL     1       1.485   3.635  -0.180  0.00  0.00    -0.275 OA
ATOM     22  N   UNL     1       0.064   1.932  -0.202  0.00  0.00    -0.317 N 
ATOM     23  H   UNL     1      -0.073   0.972  -0.199  0.00  0.00    +0.149 HD
BRANCH  22  24
ATOM     24  C   UNL     1      -1.089   2.836  -0.240  0.00  0.00    +0.085 C 
BRANCH  24  25
ATOM     25  C   UNL     1      -2.380   2.015  -0.271  0.00  0.00    -0.061 C 
BRANCH  25  28
ATOM     26  C   UNL     1      -3.570   3.676  -1.569  0.00  0.00    -0.097 C 
ATOM     27  C   UNL     1      -4.789   2.186  -0.101  0.00  0.00    -0.097 C 
ATOM     28  N   UNL     1      -3.532   2.941  -0.288  0.00  0.00    +0.377 N 
ATOM     29  H   UNL     1      -3.430   3.614   0.480  0.00  0.00    -0.083 HD
ENDBRANCH  25  28
ENDBRANCH  24  25
ENDBRANCH  22  24
ENDBRANCH   8  20
BRANCH   6  30
ATOM     30  O   UNL     1       3.603  -1.247  -2.427  0.00  0.00    -0.389 OA
ATOM     31  H   UNL     1       2.810  -1.800  -2.416  0.00  0.00    +0.210 HD
ENDBRANCH   6  30
BRANCH   5  32
ATOM     32  O   UNL     1       6.082  -0.335  -1.352  0.00  0.00    -0.387 OA
ATOM     33  H   UNL     1       6.124  -1.030  -2.022  0.00  0.00    +0.210 HD
ENDBRANCH   5  32
TORSDOF 7
