REMARK  Name = ZINC14200096
REMARK  8 active torsions:
REMARK  status: ('A' for Active; 'I' for Inactive)
REMARK    1  A    between atoms: C_3  and  C_6
REMARK    2  A    between atoms: C_6  and  N_7
REMARK    3  A    between atoms: N_7  and  S_8
REMARK    4  A    between atoms: S_8  and  C_11
REMARK    5  A    between atoms: C_14  and  N_17
REMARK    6  A    between atoms: C_18  and  C_20
REMARK    7  A    between atoms: C_20  and  N_21
REMARK    8  A    between atoms: C_22  and  C_24
REMARK                            x       y       z     vdW  Elec       q    Type
REMARK                         _______ _______ _______ _____ _____    ______ ____
ROOT
ATOM      1  C   UNL     1       1.163   2.086   0.018  0.00  0.00    +0.105 A 
ATOM      2  C   UNL     1      -0.008   1.373   0.198  0.00  0.00    +0.030 A 
ATOM      3  C   UNL     1       0.013  -0.008   0.186  0.00  0.00    +0.025 A 
ATOM      4  C   UNL     1       1.212  -0.681  -0.008  0.00  0.00    +0.034 A 
ATOM      5  C   UNL     1       2.387   0.038  -0.189  0.00  0.00    +0.025 A 
ATOM      6  C   UNL     1       2.359   1.419  -0.175  0.00  0.00    +0.030 A 
ENDROOT
BRANCH   4   7
ATOM      7  N   UNL     1       1.237  -2.079  -0.020  0.00  0.00    -0.284 N 
ATOM      8  C   UNL     1       0.186  -2.768  -0.507  0.00  0.00    +0.234 C 
ATOM      9  O   UNL     1      -0.741  -2.177  -1.021  0.00  0.00    -0.274 OA
ATOM     10  H   UNL     1       2.011  -2.554   0.321  0.00  0.00    +0.155 HD
BRANCH   8  11
ATOM     11  C   UNL     1       0.160  -4.272  -0.412  0.00  0.00    +0.200 C 
BRANCH  11  12
ATOM     12  N   UNL     1      -1.079  -4.778  -1.008  0.00  0.00    -0.300 N 
ATOM     13  C   UNL     1      -1.321  -6.103  -1.036  0.00  0.00    +0.280 C 
ATOM     14  O   UNL     1      -0.509  -6.880  -0.567  0.00  0.00    -0.267 OA
ATOM     15  H   UNL     1      -1.726  -4.159  -1.381  0.00  0.00    +0.150 HD
BRANCH  13  16
ATOM     16  C   UNL     1      -2.560  -6.610  -1.631  0.00  0.00    +0.191 A 
ATOM     17  C   UNL     1      -2.926  -7.922  -1.730  0.00  0.00    +0.056 A 
ATOM     18  C   UNL     1      -4.178  -7.946  -2.361  0.00  0.00    +0.058 A 
ATOM     19  C   UNL     1      -4.516  -6.663  -2.625  0.00  0.00    +0.171 A 
ATOM     20  O   UNL     1      -3.538  -5.861  -2.183  0.00  0.00    -0.444 OA
ATOM     21 BR   UNL     1      -6.107  -6.095  -3.475  0.00  0.00    -0.008 Br
ENDBRANCH  13  16
ENDBRANCH  11  12
ENDBRANCH   8  11
ENDBRANCH   4   7
BRANCH   1  22
ATOM     22  S   UNL     1       1.132   3.847   0.034  0.00  0.00    +0.059 S 
ATOM     23  O   UNL     1       2.269   4.281  -0.700  0.00  0.00    -0.153 OA
ATOM     24  O   UNL     1      -0.191   4.233  -0.312  0.00  0.00    -0.153 OA
BRANCH  22  25
ATOM     25  N   UNL     1       1.371   4.327   1.601  0.00  0.00    -0.183 NA
ATOM     26  H   UNL     1       0.666   4.793   2.078  0.00  0.00    +0.148 HD
BRANCH  25  27
ATOM     27  C   UNL     1       2.645   4.048   2.267  0.00  0.00    +0.180 C 
BRANCH  27  30
ATOM     28  C   UNL     1       2.631   5.600   5.610  0.00  0.00    +0.041 A 
ATOM     29  C   UNL     1       2.335   4.523   4.743  0.00  0.00    +0.046 A 
ATOM     30  C   UNL     1       2.753   4.883   3.516  0.00  0.00    +0.120 A 
ATOM     31  O   UNL     1       3.289   6.113   3.595  0.00  0.00    -0.466 OA
ATOM     32  C   UNL     1       3.212   6.554   4.861  0.00  0.00    +0.195 A 
ENDBRANCH  27  30
ENDBRANCH  25  27
ENDBRANCH  22  25
ENDBRANCH   1  22
TORSDOF 8
