REMARK  Name = ZINC42398598
REMARK  10 active torsions:
REMARK  status: ('A' for Active; 'I' for Inactive)
REMARK    1  A    between atoms: C_1  and  C_2
REMARK    2  A    between atoms: C_2  and  C_3
REMARK    3  A    between atoms: C_2  and  C_11
REMARK    4  A    between atoms: C_2  and  N_13
REMARK    5  A    between atoms: C_3  and  C_4
REMARK    6  A    between atoms: C_4  and  C_5
REMARK    7  A    between atoms: C_11  and  N_12
REMARK    8  A    between atoms: N_13  and  C_14
REMARK    9  A    between atoms: N_13  and  C_15
REMARK   10  A    between atoms: C_15  and  C_16
REMARK                            x       y       z     vdW  Elec       q    Type
REMARK                         _______ _______ _______ _____ _____    ______ ____
ROOT
ATOM      1  C   UNL     1      -0.019   1.526   0.010  0.00  0.00    +0.026 C 
ATOM      2  C   UNL     1       0.002  -0.004   0.002  0.00  0.00    +0.004 C 
ENDROOT
BRANCH   2   3
ATOM      3  N   UNL     1       0.690  -0.478  -1.207  0.00  0.00    -0.297 NA
ATOM      4  C   UNL     1       2.100  -0.066  -1.206  0.00  0.00    +0.105 C 
BRANCH   3   5
ATOM      5  C   UNL     1       0.006  -0.009  -2.419  0.00  0.00    +0.127 C 
BRANCH   5   6
ATOM      6  C   UNL     1       0.584  -0.707  -3.623  0.00  0.00    +0.005 A 
ATOM      7  C   UNL     1       0.196  -1.869  -4.205  0.00  0.00    +0.027 A 
ATOM      8  C   UNL     1       0.882  -2.324  -5.316  0.00  0.00    +0.025 A 
ATOM      9  C   UNL     1       1.921  -1.595  -5.791  0.00  0.00    +0.060 A 
ATOM     10  S   UNL     1       1.952  -0.214  -4.659  0.00  0.00    -0.099 S 
ATOM     11 BR   UNL     1       0.377  -3.940  -6.159  0.00  0.00    -0.050 Br
ENDBRANCH   5   6
ENDBRANCH   3   5
ENDBRANCH   2   3
BRANCH   2  12
ATOM     12  C   UNL     1       0.742  -0.511   1.242  0.00  0.00    +0.025 C 
BRANCH  12  13
ATOM     13  C   UNL     1       0.026  -0.018   2.500  0.00  0.00    +0.037 C 
BRANCH  13  14
ATOM     14  C   UNL     1       0.755  -0.517   3.721  0.00  0.00    -0.047 A 
ATOM     15  C   UNL     1       0.415  -1.735   4.279  0.00  0.00    +0.003 A 
ATOM     16  C   UNL     1       1.084  -2.193   5.399  0.00  0.00    +0.000 A 
ATOM     17  C   UNL     1       2.092  -1.433   5.961  0.00  0.00    +0.000 A 
ATOM     18  C   UNL     1       2.433  -0.215   5.402  0.00  0.00    +0.000 A 
ATOM     19  C   UNL     1       1.767   0.241   4.280  0.00  0.00    +0.003 A 
ENDBRANCH  13  14
ENDBRANCH  12  13
ENDBRANCH   2  12
BRANCH   2  20
ATOM     20  C   UNL     1      -1.433  -0.534   0.013  0.00  0.00    -0.064 C 
BRANCH  20  21
ATOM     21  N   UNL     1      -1.413  -2.002   0.005  0.00  0.00    +0.379 N 
ATOM     22  H   UNL     1      -0.941  -2.328  -0.825  0.00  0.00    -0.090 HD
ATOM     23  H   UNL     1      -0.925  -2.337   0.822  0.00  0.00    -0.090 HD
ATOM     24  H   UNL     1      -2.360  -2.352   0.012  0.00  0.00    -0.090 HD
ENDBRANCH  20  21
ENDBRANCH   2  20
TORSDOF 8
