REMARK  Name = ZINC64604344
REMARK  10 active torsions:
REMARK  status: ('A' for Active; 'I' for Inactive)
REMARK    1  A    between atoms: C_1  and  C_2
REMARK    2  A    between atoms: C_5  and  O_31
REMARK    3  A    between atoms: C_6  and  N_8
REMARK    4  A    between atoms: C_9  and  C_11
REMARK    5  A    between atoms: C_11  and  C_12
REMARK    6  A    between atoms: C_12  and  C_13
REMARK    7  A    between atoms: C_15  and  C_18
REMARK    8  A    between atoms: C_18  and  S_19
REMARK    9  A    between atoms: S_19  and  C_20
REMARK   10  A    between atoms: O_31  and  C_32
REMARK                            x       y       z     vdW  Elec       q    Type
REMARK                         _______ _______ _______ _____ _____    ______ ____
ROOT
ATOM      1  C   UNL     1       0.502  -2.673   7.320  0.00  0.00    +0.228 A 
ATOM      2  N   UNL     1       1.621  -3.041   7.881  0.00  0.00    -0.195 NA
ATOM      3  C   UNL     1       1.369  -3.700   9.018  0.00  0.00    +0.182 A 
ATOM      4  N   UNL     1       0.080  -3.759   9.194  0.00  0.00    -0.060 NA
ATOM      5  O   UNL     1      -0.510  -3.085   8.093  0.00  0.00    -0.338 OA
ENDROOT
BRANCH   1   6
ATOM      6  C   UNL     1       0.373  -1.909   6.027  0.00  0.00    +0.108 C 
BRANCH   6   7
ATOM      7  C   UNL     1       0.279  -2.894   4.860  0.00  0.00    +0.105 C 
BRANCH   7   9
ATOM      8  N   UNL     1       0.050  -2.795   2.399  0.00  0.00    -0.283 N 
ATOM      9  C   UNL     1       0.149  -2.130   3.568  0.00  0.00    +0.218 C 
ATOM     10  O   UNL     1       0.134  -0.917   3.579  0.00  0.00    -0.275 OA
ATOM     11  H   UNL     1      -0.018  -3.762   2.396  0.00  0.00    +0.155 HD
BRANCH   8  17
ATOM     12  C   UNL     1       1.263   1.227  -0.157  0.00  0.00    +0.044 C 
ATOM     13  C   UNL     1       0.627  -0.137  -0.079  0.00  0.00    -0.048 A 
ATOM     14  C   UNL     1       0.040  -0.689  -1.202  0.00  0.00    +0.007 A 
ATOM     15  C   UNL     1      -0.546  -1.940  -1.136  0.00  0.00    +0.048 A 
ATOM     16  C   UNL     1      -0.545  -2.643   0.058  0.00  0.00    +0.141 A 
ATOM     17  C   UNL     1       0.047  -2.088   1.189  0.00  0.00    +0.076 A 
ATOM     18  C   UNL     1       0.637  -0.835   1.114  0.00  0.00    +0.030 A 
BRANCH  16  19
ATOM     19  O   UNL     1      -1.121  -3.873   0.124  0.00  0.00    -0.493 OA
ATOM     20  C   UNL     1      -1.709  -4.380  -1.076  0.00  0.00    +0.277 C 
ENDBRANCH  16  19
ENDBRANCH   8  17
ENDBRANCH   7   9
ENDBRANCH   6   7
ENDBRANCH   1   6
BRANCH   3  21
ATOM     21  C   UNL     1       2.407  -4.280   9.943  0.00  0.00    +0.152 C 
BRANCH  21  22
ATOM     22  S   UNL     1       2.876  -3.039  11.180  0.00  0.00    -0.107 S 
BRANCH  22  23
ATOM     23  C   UNL     1       4.115  -3.884  12.201  0.00  0.00    +0.236 C 
ATOM     24  N   UNL     1       5.233  -4.336  11.365  0.00  0.00    -0.355 N 
ATOM     25  C   UNL     1       5.298  -5.632  11.465  0.00  0.00    +0.061 A 
ATOM     26  C   UNL     1       6.191  -6.637  10.872  0.00  0.00    +0.029 A 
ATOM     27  C   UNL     1       6.014  -7.940  11.165  0.00  0.00    +0.022 A 
ATOM     28  C   UNL     1       4.997  -8.392  12.027  0.00  0.00    +0.043 A 
ATOM     29  C   UNL     1       4.124  -7.554  12.624  0.00  0.00    +0.047 A 
ATOM     30  C   UNL     1       4.222  -6.110  12.377  0.00  0.00    +0.062 A 
ATOM     31  N   UNL     1       3.533  -5.089  12.805  0.00  0.00    -0.355 N 
ATOM     32 CL   UNL     1       4.860 -10.095  12.334  0.00  0.00    -0.083 Cl
ATOM     33  H   UNL     1       5.818  -3.772  10.834  0.00  0.00    +0.162 HD
ATOM     34  H   UNL     1       2.777  -5.120  13.412  0.00  0.00    +0.162 HD
ENDBRANCH  22  23
ENDBRANCH  21  22
ENDBRANCH   3  21
TORSDOF 8
