REMARK  Name = ZINC61070537
REMARK  7 active torsions:
REMARK  status: ('A' for Active; 'I' for Inactive)
REMARK    1  A    between atoms: C_3  and  C_10
REMARK    2  A    between atoms: C_5  and  C_7
REMARK    3  A    between atoms: C_10  and  N_11
REMARK    4  A    between atoms: N_14  and  C_15
REMARK    5  A    between atoms: C_15  and  C_16
REMARK    6  A    between atoms: C_16  and  C_17
REMARK    7  A    between atoms: C_16  and  N_22
REMARK                            x       y       z     vdW  Elec       q    Type
REMARK                         _______ _______ _______ _____ _____    ______ ____
ROOT
ATOM      1  N   UNL     1       9.355   2.366   0.889  0.00  0.00    -0.295 N 
ATOM      2  C   UNL     1       8.303   3.085   1.326  0.00  0.00    +0.300 C 
ATOM      3  O   UNL     1       7.489   3.515   0.532  0.00  0.00    -0.253 OA
ATOM      4  N   UNL     1       8.153   3.328   2.643  0.00  0.00    -0.301 N 
ATOM      5  H   UNL     1      10.005   2.023   1.522  0.00  0.00    +0.151 HD
ATOM      6  H   UNL     1       8.803   2.985   3.277  0.00  0.00    +0.150 HD
ENDROOT
BRANCH   1   7
ATOM      7  C   UNL     1       9.518   2.102  -0.543  0.00  0.00    +0.141 C 
BRANCH   7  10
ATOM      8  C   UNL     1      11.833  -0.857  -0.955  0.00  0.00    +0.001 A 
ATOM      9  C   UNL     1      10.693  -0.098  -0.753  0.00  0.00    +0.005 A 
ATOM     10  C   UNL     1      10.764   1.283  -0.764  0.00  0.00    -0.030 A 
ATOM     11  C   UNL     1      11.973   1.913  -0.978  0.00  0.00    +0.018 A 
ATOM     12  C   UNL     1      13.126   1.154  -1.183  0.00  0.00    +0.037 A 
ATOM     13  C   UNL     1      13.047  -0.240  -1.170  0.00  0.00    +0.013 A 
BRANCH  12  14
ATOM     14  C   UNL     1      14.424   1.822  -1.413  0.00  0.00    +0.242 C 
ATOM     15  O   UNL     1      14.489   3.036  -1.425  0.00  0.00    -0.270 OA
ATOM     16  N   UNL     1      15.535   1.086  -1.611  0.00  0.00    -0.325 N 
ATOM     17  H   UNL     1      15.483   0.117  -1.602  0.00  0.00    +0.145 HD
ATOM     18  H   UNL     1      16.387   1.525  -1.762  0.00  0.00    +0.145 HD
ENDBRANCH  12  14
ENDBRANCH   7  10
ENDBRANCH   1   7
BRANCH   4  19
ATOM     19  C   UNL     1       7.009   4.110   3.118  0.00  0.00    +0.098 C 
BRANCH  19  20
ATOM     20  C   UNL     1       7.003   4.128   4.648  0.00  0.00    +0.016 C 
BRANCH  20  21
ATOM     21  N   UNL     1       7.037   2.749   5.154  0.00  0.00    +0.387 N 
ATOM     22  C   UNL     1       5.853   2.025   4.675  0.00  0.00    -0.078 C 
ATOM     23  C   UNL     1       5.924   0.566   5.131  0.00  0.00    -0.019 C 
ATOM     24  C   UNL     1       5.970   0.517   6.661  0.00  0.00    -0.004 C 
ATOM     25  C   UNL     1       7.165   1.337   7.153  0.00  0.00    -0.019 C 
ATOM     26  C   UNL     1       7.049   2.768   6.622  0.00  0.00    -0.078 C 
ATOM     27  H   UNL     1       7.869   2.288   4.817  0.00  0.00    -0.081 HD
ENDBRANCH  20  21
BRANCH  20  28
ATOM     28  C   UNL     1       8.214   4.875   5.147  0.00  0.00    +0.093 A 
ATOM     29  C   UNL     1       8.229   6.149   5.578  0.00  0.00    +0.043 A 
ATOM     30  C   UNL     1       9.562   6.440   5.948  0.00  0.00    +0.041 A 
ATOM     31  C   UNL     1      10.282   5.327   5.721  0.00  0.00    +0.195 A 
ATOM     32  O   UNL     1       9.459   4.380   5.241  0.00  0.00    -0.469 OA
ENDBRANCH  20  28
ENDBRANCH  19  20
ENDBRANCH   4  19
TORSDOF 7
