REMARK  Name = ZINC34734587
REMARK  8 active torsions:
REMARK  status: ('A' for Active; 'I' for Inactive)
REMARK    1  A    between atoms: C_1  and  C_2
REMARK    2  A    between atoms: C_2  and  N_3
REMARK    3  A    between atoms: C_18  and  C_20
REMARK    4  A    between atoms: C_18  and  C_21
REMARK    5  A    between atoms: N_24  and  C_25
REMARK    6  A    between atoms: C_25  and  C_26
REMARK    7  A    between atoms: N_28  and  C_29
REMARK    8  A    between atoms: C_34  and  C_35
REMARK                            x       y       z     vdW  Elec       q    Type
REMARK                         _______ _______ _______ _____ _____    ______ ____
ROOT
ATOM      1  N   UNL     1      -2.412   0.384   0.097  0.00  0.00    +0.382 N 
ATOM      2  C   UNL     1      -3.856   0.179   0.261  0.00  0.00    -0.060 C 
ATOM      3  C   UNL     1      -4.153  -1.323   0.332  0.00  0.00    +0.089 C 
ATOM      4  N   UNL     1      -3.579  -1.968  -0.859  0.00  0.00    -0.304 N 
ATOM      5  C   UNL     1      -2.175  -1.685  -1.192  0.00  0.00    +0.089 C 
ATOM      6  C   UNL     1      -1.972  -0.166  -1.191  0.00  0.00    -0.060 C 
ATOM      7  C   UNL     1      -4.333  -2.810  -1.638  0.00  0.00    +0.202 A 
ATOM      8  N   UNL     1      -5.097  -2.309  -2.586  0.00  0.00    -0.208 NA
ATOM      9  C   UNL     1      -5.837  -3.100  -3.354  0.00  0.00    +0.118 A 
ATOM     10  C   UNL     1      -5.846  -4.497  -3.199  0.00  0.00    +0.076 A 
ATOM     11  C   UNL     1      -6.712  -5.233  -4.117  0.00  0.00    -0.018 A 
ATOM     12  C   UNL     1      -7.411  -4.508  -5.017  0.00  0.00    +0.021 A 
ATOM     13  S   UNL     1      -6.965  -2.826  -4.698  0.00  0.00    -0.071 S 
ATOM     14  C   UNL     1      -8.352  -5.048  -6.049  0.00  0.00    +0.203 C 
ATOM     15  O   UNL     1      -8.149  -6.467  -6.134  0.00  0.00    -0.368 OA
ATOM     16  C   UNL     1      -8.131  -7.119  -4.861  0.00  0.00    +0.068 C 
ATOM     17  C   UNL     1      -6.854  -6.753  -4.099  0.00  0.00    +0.071 C 
ATOM     18  C   UNL     1      -9.350  -6.677  -4.049  0.00  0.00    +0.041 C 
ATOM     19  C   UNL     1      -8.184  -8.634  -5.066  0.00  0.00    +0.041 C 
ATOM     20  C   UNL     1      -5.006  -5.013  -2.161  0.00  0.00    +0.264 A 
ATOM     21  O   UNL     1      -4.948  -6.212  -1.952  0.00  0.00    -0.267 OA
ATOM     22  N   UNL     1      -4.278  -4.155  -1.422  0.00  0.00    -0.271 N 
ATOM     23  H   UNL     1      -1.921  -0.081   0.846  0.00  0.00    -0.082 HD
ENDROOT
BRANCH   1  25
ATOM     24  C   UNL     1      -2.458   2.373   1.526  0.00  0.00    -0.017 C 
ATOM     25  C   UNL     1      -2.116   1.823   0.140  0.00  0.00    -0.082 C 
ENDBRANCH   1  25
BRANCH  22  26
ATOM     26  C   UNL     1      -3.412  -4.678  -0.362  0.00  0.00    +0.224 C 
BRANCH  26  27
ATOM     27  C   UNL     1      -4.218  -4.867   0.897  0.00  0.00    +0.237 C 
ATOM     28  O   UNL     1      -5.399  -4.593   0.908  0.00  0.00    -0.274 OA
ATOM     29  N   UNL     1      -3.626  -5.341   2.011  0.00  0.00    -0.284 N 
ATOM     30  H   UNL     1      -2.669  -5.499   2.022  0.00  0.00    +0.155 HD
BRANCH  29  31
ATOM     31  C   UNL     1      -4.392  -5.606   3.152  0.00  0.00    +0.036 A 
ATOM     32  C   UNL     1      -5.483  -4.804   3.459  0.00  0.00    +0.023 A 
ATOM     33  C   UNL     1      -6.237  -5.067   4.585  0.00  0.00    +0.002 A 
ATOM     34  C   UNL     1      -5.906  -6.129   5.408  0.00  0.00    +0.000 A 
ATOM     35  C   UNL     1      -4.820  -6.929   5.106  0.00  0.00    +0.005 A 
ATOM     36  C   UNL     1      -4.066  -6.674   3.977  0.00  0.00    -0.029 A 
ATOM     37  C   UNL     1      -2.886  -7.551   3.644  0.00  0.00    +0.045 C 
ENDBRANCH  29  31
ENDBRANCH  26  27
ENDBRANCH  22  26
TORSDOF 4
