REMARK  Name = ZINC37268016
REMARK  6 active torsions:
REMARK  status: ('A' for Active; 'I' for Inactive)
REMARK    1  A    between atoms: C_1  and  N_2
REMARK    2  A    between atoms: N_2  and  C_3
REMARK    3  A    between atoms: N_2  and  C_15
REMARK    4  A    between atoms: C_3  and  C_4
REMARK    5  A    between atoms: C_9  and  N_10
REMARK    6  A    between atoms: C_15  and  C_16
REMARK                            x       y       z     vdW  Elec       q    Type
REMARK                         _______ _______ _______ _____ _____    ______ ____
ROOT
ATOM      1  C   UNL     1      -0.030  -0.079  -2.590  0.00  0.00    -0.040 A 
ATOM      2  C   UNL     1      -0.932  -0.979  -3.126  0.00  0.00    +0.053 A 
ATOM      3  C   UNL     1      -1.596  -0.680  -4.306  0.00  0.00    +0.162 A 
ATOM      4  C   UNL     1      -1.356   0.527  -4.951  0.00  0.00    +0.164 A 
ATOM      5  C   UNL     1      -0.450   1.429  -4.414  0.00  0.00    +0.072 A 
ATOM      6  C   UNL     1       0.209   1.129  -3.230  0.00  0.00    +0.030 A 
ATOM      7  O   UNL     1      -2.004   0.841  -6.106  0.00  0.00    -0.485 OA
ATOM      8  C   UNL     1      -2.622  -0.240  -6.811  0.00  0.00    +0.270 C 
ATOM      9  C   UNL     1      -3.402  -1.091  -5.799  0.00  0.00    +0.270 C 
ATOM     10  O   UNL     1      -2.478  -1.582  -4.821  0.00  0.00    -0.485 OA
ENDROOT
BRANCH   6  11
ATOM     11  N   UNL     1       1.120   2.042  -2.685  0.00  0.00    -0.358 N 
ATOM     12  H   UNL     1       1.526   1.865  -1.822  0.00  0.00    +0.142 HD
ATOM     13  H   UNL     1       1.345   2.851  -3.170  0.00  0.00    +0.142 HD
ENDBRANCH   6  11
BRANCH   1  14
ATOM     14  C   UNL     1       0.688  -0.407  -1.306  0.00  0.00    -0.041 C 
BRANCH  14  16
ATOM     15  C   UNL     1       2.115  -2.010  -2.379  0.00  0.00    -0.095 C 
ATOM     16  N   UNL     1       2.082  -0.763  -1.603  0.00  0.00    +0.386 N 
ATOM     17  H   UNL     1       2.512  -0.022  -2.137  0.00  0.00    -0.081 HD
BRANCH  16  18
ATOM     18  C   UNL     1       2.818  -0.949  -0.345  0.00  0.00    +0.018 C 
BRANCH  18  19
ATOM     19  C   UNL     1       4.274  -1.193  -0.646  0.00  0.00    +0.194 C 
ATOM     20  O   UNL     1       4.661  -1.210  -1.796  0.00  0.00    -0.278 OA
ATOM     21  N   UNL     1       5.147  -1.393   0.361  0.00  0.00    -0.331 N 
ATOM     22  H   UNL     1       4.837  -1.379   1.280  0.00  0.00    +0.145 HD
ATOM     23  H   UNL     1       6.084  -1.549   0.167  0.00  0.00    +0.145 HD
ENDBRANCH  18  19
ENDBRANCH  16  18
ENDBRANCH  14  16
ENDBRANCH   1  14
TORSDOF 5
