REMARK  Name = ZINC26966536
REMARK  7 active torsions:
REMARK  status: ('A' for Active; 'I' for Inactive)
REMARK    1  A    between atoms: C_4  and  N_7
REMARK    2  A    between atoms: C_9  and  C_21
REMARK    3  A    between atoms: C_10  and  C_12
REMARK    4  A    between atoms: C_16  and  N_18
REMARK    5  A    between atoms: C_22  and  C_23
REMARK    6  A    between atoms: C_22  and  C_25
REMARK    7  A    between atoms: N_27  and  C_28
REMARK                            x       y       z     vdW  Elec       q    Type
REMARK                         _______ _______ _______ _____ _____    ______ ____
ROOT
ATOM      1  N   UNL     1       3.686  -0.324   0.355  0.00  0.00    -0.239 N 
ATOM      2  C   UNL     1       4.915   0.130   0.055  0.00  0.00    +0.123 A 
ATOM      3  C   UNL     1       5.796  -0.935   0.162  0.00  0.00    +0.022 A 
ATOM      4  C   UNL     1       4.988  -2.100   0.548  0.00  0.00    +0.100 A 
ATOM      5  N   UNL     1       3.745  -1.688   0.651  0.00  0.00    -0.166 NA
ENDROOT
BRANCH   1   9
ATOM      6  C   UNL     1       0.218   1.987   0.381  0.00  0.00    +0.000 A 
ATOM      7  C   UNL     1       1.431   2.568   0.061  0.00  0.00    +0.002 A 
ATOM      8  C   UNL     1       2.583   1.805   0.051  0.00  0.00    +0.028 A 
ATOM      9  C   UNL     1       2.520   0.453   0.363  0.00  0.00    +0.065 A 
ATOM     10  C   UNL     1       1.300  -0.127   0.684  0.00  0.00    +0.028 A 
ATOM     11  C   UNL     1       0.153   0.641   0.693  0.00  0.00    +0.002 A 
ENDBRANCH   1   9
BRANCH   4  12
ATOM     12  C   UNL     1       5.482  -3.478   0.779  0.00  0.00    +0.005 A 
ATOM     13  C   UNL     1       6.530  -3.984   0.011  0.00  0.00    +0.010 A 
ATOM     14  C   UNL     1       6.986  -5.267   0.231  0.00  0.00    +0.003 A 
ATOM     15  C   UNL     1       6.406  -6.052   1.211  0.00  0.00    +0.033 A 
ATOM     16  C   UNL     1       5.366  -5.556   1.977  0.00  0.00    +0.127 A 
ATOM     17  C   UNL     1       4.905  -4.271   1.769  0.00  0.00    +0.042 A 
BRANCH  16  18
ATOM     18  N   UNL     1       4.750  -6.402   3.024  0.00  0.00    +0.056 N 
ATOM     19  O   UNL     1       5.159  -7.534   3.210  0.00  0.00    -0.126 OA
ATOM     20  O   UNL     1       3.835  -5.966   3.699  0.00  0.00    -0.126 OA
ENDBRANCH  16  18
ENDBRANCH   4  12
BRANCH   3  21
ATOM     21  C   UNL     1       7.239  -0.906  -0.070  0.00  0.00    +0.035 C 
ATOM     22  C   UNL     1       7.806   0.146  -0.760  0.00  0.00    +0.114 C 
BRANCH  22  23
ATOM     23  C   UNL     1       9.268   0.254  -0.865  0.00  0.00    +0.255 C 
ATOM     24  O   UNL     1       9.978  -0.585  -0.344  0.00  0.00    -0.269 OA
ATOM     25  N   UNL     1       9.822   1.281  -1.539  0.00  0.00    -0.306 N 
ATOM     26  H   UNL     1       9.179   2.039  -2.011  0.00  0.00    +0.149 HD
BRANCH  25  27
ATOM     27  C   UNL     1      11.279   1.388  -1.644  0.00  0.00    +0.096 C 
ATOM     28  C   UNL     1      11.835   2.130  -0.417  0.00  0.00    +0.046 C 
ATOM     29  C   UNL     1      13.309   2.528  -0.664  0.00  0.00    +0.168 C 
ATOM     30  S   UNL     1      13.379   2.704  -2.493  0.00  0.00    -0.029 S 
ATOM     31  O   UNL     1      14.282   1.739  -3.016  0.00  0.00    -0.174 OA
ATOM     32  O   UNL     1      13.554   4.075  -2.821  0.00  0.00    -0.174 OA
ATOM     33  C   UNL     1      11.656   2.203  -2.914  0.00  0.00    +0.188 C 
ENDBRANCH  25  27
ENDBRANCH  22  23
BRANCH  22  34
ATOM     34  C   UNL     1       6.970   1.133  -1.375  0.00  0.00    +0.104 C 
ATOM     35  N   UNL     1       6.306   1.916  -1.862  0.00  0.00    -0.191 NA
ENDBRANCH  22  34
ENDBRANCH   3  21
TORSDOF 7
