REMARK  Name = ZINC43259289
REMARK  10 active torsions:
REMARK  status: ('A' for Active; 'I' for Inactive)
REMARK    1  A    between atoms: C_1  and  C_2
REMARK    2  A    between atoms: C_2  and  C_3
REMARK    3  A    between atoms: C_3  and  C_5
REMARK    4  A    between atoms: C_3  and  N_23
REMARK    5  A    between atoms: C_5  and  C_7
REMARK    6  A    between atoms: C_5  and  N_13
REMARK    7  A    between atoms: N_13  and  C_14
REMARK    8  A    between atoms: N_13  and  C_15
REMARK    9  A    between atoms: C_15  and  C_16
REMARK   10  A    between atoms: C_16  and  C_17
REMARK                            x       y       z     vdW  Elec       q    Type
REMARK                         _______ _______ _______ _____ _____    ______ ____
ROOT
ATOM      1  C   UNL     1       0.727  -1.976   1.162  0.00  0.00    +0.079 C 
ENDROOT
BRANCH   1   2
ATOM      2  C   UNL     1       1.283  -2.274   2.530  0.00  0.00    +0.006 A 
ATOM      3  C   UNL     1       0.639  -2.732   3.631  0.00  0.00    +0.014 A 
ATOM      4  C   UNL     1       1.359  -2.937   4.794  0.00  0.00    +0.023 A 
ATOM      5  C   UNL     1       2.689  -2.672   4.797  0.00  0.00    +0.055 A 
ATOM      6  S   UNL     1       2.961  -2.124   3.120  0.00  0.00    -0.085 S 
ATOM      7 BR   UNL     1       3.935  -2.846   6.210  0.00  0.00    -0.043 Br
ENDBRANCH   1   2
BRANCH   1   8
ATOM      8  N   UNL     1       1.540  -2.656   0.144  0.00  0.00    -0.299 NA
ATOM      9  C   UNL     1       1.416  -4.115   0.261  0.00  0.00    +0.105 C 
BRANCH   8  10
ATOM     10  C   UNL     1       2.946  -2.238   0.228  0.00  0.00    +0.091 C 
BRANCH  10  11
ATOM     11  C   UNL     1       3.670  -2.626  -1.063  0.00  0.00    +0.071 C 
BRANCH  11  12
ATOM     12  C   UNL     1       5.112  -2.197  -0.978  0.00  0.00    +0.042 A 
ATOM     13  C   UNL     1       6.114  -3.127  -1.181  0.00  0.00    +0.023 A 
ATOM     14  C   UNL     1       7.438  -2.723  -1.101  0.00  0.00    +0.003 A 
ATOM     15  C   UNL     1       7.705  -1.392  -0.816  0.00  0.00    +0.020 A 
ATOM     16  C   UNL     1       6.651  -0.520  -0.625  0.00  0.00    +0.111 A 
ATOM     17  N   UNL     1       5.404  -0.939  -0.714  0.00  0.00    -0.260 NA
ENDBRANCH  11  12
ENDBRANCH  10  11
ENDBRANCH   8  10
ENDBRANCH   1   8
BRANCH   1  18
ATOM     18  C   UNL     1       0.761  -0.466   0.916  0.00  0.00    -0.053 C 
BRANCH  18  19
ATOM     19  N   UNL     1      -0.153   0.203   1.851  0.00  0.00    +0.381 N 
ATOM     20  H   UNL     1      -1.091  -0.140   1.708  0.00  0.00    -0.090 HD
ATOM     21  H   UNL     1       0.135   0.010   2.799  0.00  0.00    -0.090 HD
ATOM     22  H   UNL     1      -0.130   1.199   1.689  0.00  0.00    -0.090 HD
ENDBRANCH  18  19
BRANCH  18  24
ATOM     23  C   UNL     1       0.494   1.319  -0.811  0.00  0.00    +0.002 C 
ATOM     24  C   UNL     1       0.325  -0.173  -0.521  0.00  0.00    -0.018 C 
ENDBRANCH  18  24
ENDBRANCH   1  18
TORSDOF 8
