REMARK  Name = ZINC08833950
REMARK  7 active torsions:
REMARK  status: ('A' for Active; 'I' for Inactive)
REMARK    1  A    between atoms: C_6  and  C_7
REMARK    2  A    between atoms: C_9  and  C_22
REMARK    3  A    between atoms: C_10  and  O_21
REMARK    4  A    between atoms: N_13  and  C_14
REMARK    5  A    between atoms: C_14  and  C_15
REMARK    6  A    between atoms: C_15  and  N_56
REMARK    7  A    between atoms: C_22  and  C_24
REMARK                            x       y       z     vdW  Elec       q    Type
REMARK                         _______ _______ _______ _____ _____    ______ ____
ROOT
ATOM      1  C   UNL     1       2.413   4.575   0.007  0.00  0.00    +0.144 C 
ATOM      2  C   UNL     1       2.689   5.188   1.360  0.00  0.00    +0.071 C 
ATOM      3  C   UNL     1       2.749   6.528   1.177  0.00  0.00    +0.188 C 
ATOM      4  C   UNL     1       2.522   6.833  -0.251  0.00  0.00    +0.282 C 
ATOM      5  O   UNL     1       2.514   7.949  -0.733  0.00  0.00    -0.267 OA
ATOM      6  N   UNL     1       2.325   5.694  -0.939  0.00  0.00    -0.285 N 
ENDROOT
BRANCH   1  12
ATOM      7  C   UNL     1      -0.086   4.507   0.118  0.00  0.00    +0.007 A 
ATOM      8  C   UNL     1      -1.283   3.814   0.146  0.00  0.00    +0.022 A 
ATOM      9  C   UNL     1      -1.283   2.433   0.087  0.00  0.00    +0.059 A 
ATOM     10  C   UNL     1      -0.085   1.743   0.012  0.00  0.00    +0.060 A 
ATOM     11  C   UNL     1       1.111   2.438  -0.016  0.00  0.00    +0.027 A 
ATOM     12  C   UNL     1       1.110   3.819   0.037  0.00  0.00    -0.021 A 
ATOM     13 CL   UNL     1      -0.083   0.009  -0.055  0.00  0.00    -0.082 Cl
ATOM     14 CL   UNL     1      -2.785   1.563   0.114  0.00  0.00    -0.082 Cl
ENDBRANCH   1  12
BRANCH   3  15
ATOM     15  O   UNL     1       2.979   7.442   2.147  0.00  0.00    -0.502 OA
ATOM     16  H   UNL     1       2.973   8.360   1.749  0.00  0.00    +0.292 HD
ENDBRANCH   3  15
BRANCH   2  17
ATOM     17  C   UNL     1       2.860   4.470   2.627  0.00  0.00    +0.195 C 
ATOM     18  O   UNL     1       2.049   4.614   3.522  0.00  0.00    -0.287 OA
BRANCH  17  19
ATOM     19  C   UNL     1       4.017   3.573   2.817  0.00  0.00    +0.026 A 
ATOM     20  C   UNL     1       5.008   3.490   1.834  0.00  0.00    +0.015 A 
ATOM     21  C   UNL     1       6.088   2.656   2.015  0.00  0.00    +0.050 A 
ATOM     22  C   UNL     1       6.193   1.887   3.167  0.00  0.00    +0.166 A 
ATOM     23  C   UNL     1       5.204   1.961   4.149  0.00  0.00    +0.167 A 
ATOM     24  C   UNL     1       4.121   2.799   3.976  0.00  0.00    +0.061 A 
ATOM     25  O   UNL     1       5.539   1.117   5.169  0.00  0.00    -0.453 OA
ATOM     26  C   UNL     1       6.940   0.836   4.989  0.00  0.00    +0.466 C 
ATOM     27  O   UNL     1       7.143   0.997   3.573  0.00  0.00    -0.453 OA
ENDBRANCH  17  19
ENDBRANCH   2  17
BRANCH   6  28
ATOM     28  C   UNL     1       2.069   5.588  -2.377  0.00  0.00    +0.090 C 
BRANCH  28  29
ATOM     29  C   UNL     1       0.562   5.649  -2.633  0.00  0.00    -0.059 C 
BRANCH  29  35
ATOM     30  C   UNL     1       0.821   6.719  -4.790  0.00  0.00    -0.050 C 
ATOM     31  C   UNL     1       0.586   6.541  -6.292  0.00  0.00    +0.141 C 
ATOM     32  O   UNL     1      -0.808   6.332  -6.530  0.00  0.00    -0.383 OA
ATOM     33  C   UNL     1      -1.344   5.194  -5.850  0.00  0.00    +0.141 C 
ATOM     34  C   UNL     1      -1.129   5.359  -4.343  0.00  0.00    -0.050 C 
ATOM     35  N   UNL     1       0.318   5.522  -4.086  0.00  0.00    +0.384 N 
ATOM     36  H   UNL     1       0.815   4.694  -4.437  0.00  0.00    -0.082 HD
ENDBRANCH  29  35
ENDBRANCH  28  29
ENDBRANCH   6  28
TORSDOF 7
