REMARK  Name = ZINC41585119
REMARK  10 active torsions:
REMARK  status: ('A' for Active; 'I' for Inactive)
REMARK    1  A    between atoms: C_1  and  C_2
REMARK    2  A    between atoms: C_2  and  N_3
REMARK    3  A    between atoms: C_5  and  C_14
REMARK    4  A    between atoms: C_10  and  O_12
REMARK    5  A    between atoms: O_12  and  C_13
REMARK    6  A    between atoms: C_19  and  C_39
REMARK    7  A    between atoms: C_21  and  O_38
REMARK    8  A    between atoms: C_22  and  C_25
REMARK    9  A    between atoms: C_25  and  N_26
REMARK   10  A    between atoms: N_29  and  C_32
REMARK                            x       y       z     vdW  Elec       q    Type
REMARK                         _______ _______ _______ _____ _____    ______ ____
ROOT
ATOM      1  C   UNL     1      -4.355  -1.760   1.684  0.00  0.00    +0.060 C 
ATOM      2  C   UNL     1      -4.100  -1.917   3.013  0.00  0.00    +0.176 C 
ATOM      3  C   UNL     1      -2.894  -1.560   3.674  0.00  0.00    +0.232 C 
ATOM      4  O   UNL     1      -1.897  -1.061   3.179  0.00  0.00    -0.283 OA
ATOM      5  C   UNL     1      -3.108  -1.920   5.087  0.00  0.00    +0.071 A 
ATOM      6  C   UNL     1      -2.317  -1.824   6.232  0.00  0.00    -0.033 A 
ATOM      7  C   UNL     1      -2.806  -2.255   7.433  0.00  0.00    +0.050 A 
ATOM      8  C   UNL     1      -4.090  -2.788   7.517  0.00  0.00    +0.122 A 
ATOM      9  C   UNL     1      -4.886  -2.890   6.388  0.00  0.00    +0.020 A 
ATOM     10  C   UNL     1      -4.404  -2.456   5.160  0.00  0.00    +0.145 A 
ATOM     11  O   UNL     1      -4.954  -2.433   3.928  0.00  0.00    -0.451 OA
ATOM     12  C   UNL     1      -0.928  -1.248   6.145  0.00  0.00    +0.045 C 
ENDROOT
BRANCH   1  15
ATOM     13  N   UNL     1      -1.275  -1.106  -0.161  0.00  0.00    -0.346 N 
ATOM     14  C   UNL     1      -1.954  -1.688   0.857  0.00  0.00    +0.094 A 
ATOM     15  C   UNL     1      -3.286  -1.343   0.778  0.00  0.00    +0.004 A 
ATOM     16  C   UNL     1      -3.418  -0.468  -0.403  0.00  0.00    +0.011 A 
ATOM     17  C   UNL     1      -2.128  -0.353  -0.945  0.00  0.00    +0.050 A 
ATOM     18  C   UNL     1      -1.931   0.426  -2.080  0.00  0.00    +0.030 A 
ATOM     19  C   UNL     1      -2.996   1.079  -2.661  0.00  0.00    +0.047 A 
ATOM     20  C   UNL     1      -4.274   0.968  -2.123  0.00  0.00    +0.121 A 
ATOM     21  C   UNL     1      -4.489   0.191  -0.999  0.00  0.00    +0.056 A 
BRANCH  13  23
ATOM     22  C   UNL     1       0.906  -0.080   0.253  0.00  0.00    +0.027 C 
ATOM     23  C   UNL     1       0.164  -1.250  -0.395  0.00  0.00    +0.118 C 
ENDBRANCH  13  23
BRANCH  20  24
ATOM     24  O   UNL     1      -5.315   1.619  -2.707  0.00  0.00    -0.495 OA
ATOM     25  C   UNL     1      -5.023   2.397  -3.870  0.00  0.00    +0.277 C 
ENDBRANCH  20  24
ENDBRANCH   1  15
BRANCH   8  26
ATOM     26  O   UNL     1      -4.564  -3.214   8.716  0.00  0.00    -0.506 OA
ATOM     27  H   UNL     1      -5.027  -2.531   9.220  0.00  0.00    +0.292 HD
ENDBRANCH   8  26
BRANCH   9  28
ATOM     28  C   UNL     1      -6.272  -3.470   6.492  0.00  0.00    -0.035 C 
BRANCH  28  29
ATOM     29  N   UNL     1      -7.233  -2.394   6.772  0.00  0.00    +0.385 N 
ATOM     30  C   UNL     1      -6.944  -1.813   8.089  0.00  0.00    -0.059 C 
ATOM     31  C   UNL     1      -7.872  -0.618   8.333  0.00  0.00    +0.086 C 
ATOM     32  N   UNL     1      -9.263  -1.063   8.158  0.00  0.00    -0.333 N 
ATOM     33  C   UNL     1      -9.605  -1.802   6.932  0.00  0.00    +0.086 C 
ATOM     34  C   UNL     1      -8.596  -2.941   6.754  0.00  0.00    -0.059 C 
ATOM     35  H   UNL     1      -7.150  -1.679   6.066  0.00  0.00    -0.081 HD
BRANCH  32  36
ATOM     36  C   UNL     1     -10.231  -0.792   9.127  0.00  0.00    +0.030 A 
ATOM     37  C   UNL     1      -9.920   0.012  10.216  0.00  0.00    +0.023 A 
ATOM     38  C   UNL     1     -10.880   0.279  11.172  0.00  0.00    +0.002 A 
ATOM     39  C   UNL     1     -12.150  -0.254  11.046  0.00  0.00    +0.000 A 
ATOM     40  C   UNL     1     -12.463  -1.054   9.963  0.00  0.00    +0.002 A 
ATOM     41  C   UNL     1     -11.509  -1.320   9.001  0.00  0.00    +0.023 A 
ENDBRANCH  32  36
ENDBRANCH  28  29
ENDBRANCH   9  28
TORSDOF 7
