REMARK  Name = ZINC13563224
REMARK  7 active torsions:
REMARK  status: ('A' for Active; 'I' for Inactive)
REMARK    1  A    between atoms: C_8  and  C_11
REMARK    2  A    between atoms: C_11  and  O_13
REMARK    3  A    between atoms: O_13  and  C_14
REMARK    4  A    between atoms: C_14  and  C_16
REMARK    5  A    between atoms: C_14  and  C_26
REMARK    6  A    between atoms: C_19  and  C_22
REMARK    7  A    between atoms: N_28  and  C_29
REMARK                            x       y       z     vdW  Elec       q    Type
REMARK                         _______ _______ _______ _____ _____    ______ ____
ROOT
ATOM      1  C   UNL     1      -4.798   8.044  -0.475  0.00  0.00    +0.292 C 
ENDROOT
BRANCH   1   2
ATOM      2  C   UNL     1      -5.023   8.573   0.917  0.00  0.00    +0.002 A 
ATOM      3  C   UNL     1      -3.962   9.080   1.645  0.00  0.00    +0.008 A 
ATOM      4  C   UNL     1      -4.170   9.570   2.920  0.00  0.00    +0.013 A 
ATOM      5  C   UNL     1      -5.437   9.544   3.473  0.00  0.00    +0.055 A 
ATOM      6  C   UNL     1      -6.497   9.033   2.748  0.00  0.00    +0.013 A 
ATOM      7  C   UNL     1      -6.290   8.548   1.470  0.00  0.00    +0.008 A 
BRANCH   5   8
ATOM      8  C   UNL     1      -5.662  10.072   4.866  0.00  0.00    +0.417 C 
ATOM      9  F   UNL     1      -5.491   9.037   5.791  0.00  0.00    -0.166 F 
ATOM     10  F   UNL     1      -4.742  11.092   5.133  0.00  0.00    -0.166 F 
ATOM     11  F   UNL     1      -6.962  10.579   4.968  0.00  0.00    -0.166 F 
ENDBRANCH   5   8
ENDBRANCH   1   2
BRANCH   1  12
ATOM     12  C   UNL     1      -4.737   9.195  -1.447  0.00  0.00    +0.259 C 
ATOM     13  O   UNL     1      -3.738   9.378  -2.109  0.00  0.00    -0.271 OA
ATOM     14  N   UNL     1      -5.794  10.021  -1.579  0.00  0.00    -0.309 N 
ATOM     15  H   UNL     1      -6.593   9.874  -1.050  0.00  0.00    +0.149 HD
BRANCH  14  16
ATOM     16  C   UNL     1      -5.736  11.139  -2.523  0.00  0.00    +0.073 C 
ATOM     17  C   UNL     1      -5.068  12.341  -1.850  0.00  0.00    +0.022 C 
ATOM     18  C   UNL     1      -5.007  13.509  -2.836  0.00  0.00    +0.002 C 
ATOM     19  C   UNL     1      -6.425  13.888  -3.266  0.00  0.00    +0.000 C 
ATOM     20  C   UNL     1      -7.093  12.688  -3.939  0.00  0.00    +0.002 C 
ATOM     21  C   UNL     1      -7.154  11.519  -2.953  0.00  0.00    +0.022 C 
ENDBRANCH  14  16
ENDBRANCH   1  12
BRANCH   1  22
ATOM     22  O   UNL     1      -3.566   7.321  -0.517  0.00  0.00    -0.444 OA
BRANCH  22  23
ATOM     23  C   UNL     1      -3.621   6.001  -0.245  0.00  0.00    +0.339 C 
ATOM     24  O   UNL     1      -4.687   5.478   0.020  0.00  0.00    -0.245 OA
BRANCH  23  32
ATOM     25  C   UNL     1      -0.013   1.076   0.008  0.00  0.00    +0.001 A 
ATOM     26  C   UNL     1       1.180   1.781   0.000  0.00  0.00    +0.004 A 
ATOM     27  C   UNL     1       1.181   3.163   0.018  0.00  0.00    +0.046 A 
ATOM     28  C   UNL     1      -0.019   3.853   0.041  0.00  0.00    +0.128 A 
ATOM     29  C   UNL     1      -1.230   3.140   0.028  0.00  0.00    +0.017 A 
ATOM     30  C   UNL     1      -1.218   1.745   0.017  0.00  0.00    +0.011 A 
ATOM     31  C   UNL     1      -2.491   3.896   0.006  0.00  0.00    +0.025 C 
ATOM     32  C   UNL     1      -2.437   5.222  -0.268  0.00  0.00    +0.074 C 
ATOM     33  C   UNL     1      -1.116   5.868  -0.595  0.00  0.00    +0.271 C 
ATOM     34  O   UNL     1      -0.049   5.208   0.085  0.00  0.00    -0.487 OA
ENDBRANCH  23  32
ENDBRANCH  22  23
ENDBRANCH   1  22
TORSDOF 7
