REMARK  Name = ZINC67298353
REMARK  3 active torsions:
REMARK  status: ('A' for Active; 'I' for Inactive)
REMARK    1  A    between atoms: C_5  and  N_7
REMARK    2  A    between atoms: C_9  and  C_19
REMARK    3  A    between atoms: C_14  and  O_18
REMARK                            x       y       z     vdW  Elec       q    Type
REMARK                         _______ _______ _______ _____ _____    ______ ____
ROOT
ATOM      1  N   UNL     1       1.326  -2.076   0.158  0.00  0.00    -0.324 N 
ATOM      2  C   UNL     1       0.183  -2.727   0.195  0.00  0.00    +0.212 A 
ATOM      3  C   UNL     1       0.144  -4.202   0.215  0.00  0.00    +0.097 A 
ATOM      4  C   UNL     1      -0.972  -4.803   0.779  0.00  0.00    +0.030 A 
ATOM      5  C   UNL     1      -2.009  -3.967   1.265  0.00  0.00    +0.018 A 
ATOM      6  C   UNL     1      -3.061  -4.508   2.021  0.00  0.00    +0.015 A 
ATOM      7  C   UNL     1      -4.031  -3.689   2.519  0.00  0.00    +0.046 A 
ATOM      8  C   UNL     1      -3.990  -2.317   2.277  0.00  0.00    +0.120 A 
ATOM      9  C   UNL     1      -2.969  -1.767   1.517  0.00  0.00    +0.092 A 
ATOM     10  C   UNL     1      -1.981  -2.585   0.997  0.00  0.00    +0.141 A 
ATOM     11  O   UNL     1      -1.002  -2.064   0.221  0.00  0.00    -0.438 OA
ATOM     12  H   UNL     1       2.163  -2.561   0.231  0.00  0.00    +0.169 HD
ENDROOT
BRANCH   1  17
ATOM     13  C   UNL     1       0.605   1.261  -1.139  0.00  0.00    +0.002 A 
ATOM     14  C   UNL     1       1.351   2.039  -0.271  0.00  0.00    +0.002 A 
ATOM     15  C   UNL     1       2.089   1.449   0.739  0.00  0.00    +0.022 A 
ATOM     16  C   UNL     1       2.086   0.076   0.889  0.00  0.00    +0.064 A 
ATOM     17  C   UNL     1       1.334  -0.716   0.016  0.00  0.00    +0.060 A 
ATOM     18  C   UNL     1       0.592  -0.112  -1.001  0.00  0.00    +0.027 A 
ATOM     19 CL   UNL     1       3.013  -0.663   2.156  0.00  0.00    -0.081 Cl
ENDBRANCH   1  17
BRANCH   3  20
ATOM     20  C   UNL     1       1.246  -5.004  -0.340  0.00  0.00    +0.247 C 
ATOM     21  O   UNL     1       2.218  -4.452  -0.821  0.00  0.00    -0.270 OA
ATOM     22  N   UNL     1       1.179  -6.350  -0.316  0.00  0.00    -0.325 N 
ATOM     23  H   UNL     1       0.432  -6.790   0.118  0.00  0.00    +0.145 HD
ATOM     24  H   UNL     1       1.877  -6.878  -0.734  0.00  0.00    +0.145 HD
ENDBRANCH   3  20
BRANCH   8  25
ATOM     25  O   UNL     1      -4.957  -1.513   2.790  0.00  0.00    -0.507 OA
ATOM     26  H   UNL     1      -4.754  -1.166   3.669  0.00  0.00    +0.292 HD
ENDBRANCH   8  25
TORSDOF 3
