REMARK  Name = ZINC18212951
REMARK  6 active torsions:
REMARK  status: ('A' for Active; 'I' for Inactive)
REMARK    1  A    between atoms: C_1  and  C_2
REMARK    2  A    between atoms: C_3  and  C_25
REMARK    3  A    between atoms: N_9  and  C_12
REMARK    4  A    between atoms: C_12  and  C_13
REMARK    5  A    between atoms: C_16  and  C_24
REMARK    6  A    between atoms: C_21  and  C_23
REMARK                            x       y       z     vdW  Elec       q    Type
REMARK                         _______ _______ _______ _____ _____    ______ ____
ROOT
ATOM      1  C   UNL     1       0.917   0.202   0.072  0.00  0.00    +0.045 C 
ATOM      2  C   UNL     1       0.356  -1.194   0.151  0.00  0.00    -0.026 A 
ATOM      3  C   UNL     1       0.166  -1.914  -0.967  0.00  0.00    -0.008 A 
ATOM      4  S   UNL     1      -0.498  -3.453  -0.358  0.00  0.00    -0.073 S 
ATOM      5  C   UNL     1      -0.500  -3.084   1.377  0.00  0.00    +0.116 A 
ATOM      6  C   UNL     1       0.019  -1.779   1.435  0.00  0.00    +0.075 A 
ATOM      7  C   UNL     1       0.136  -1.216   2.748  0.00  0.00    +0.263 A 
ATOM      8  O   UNL     1       0.571  -0.088   2.903  0.00  0.00    -0.267 OA
ATOM      9  N   UNL     1      -0.244  -1.954   3.809  0.00  0.00    -0.290 N 
ATOM     10  C   UNL     1      -0.731  -3.212   3.656  0.00  0.00    +0.203 A 
ATOM     11  N   UNL     1      -0.859  -3.748   2.472  0.00  0.00    -0.230 NA
ATOM     12  C   UNL     1       0.446  -1.516  -2.393  0.00  0.00    +0.052 C 
ENDROOT
BRANCH   9  13
ATOM     13  C   UNL     1      -0.128  -1.387   5.155  0.00  0.00    +0.222 C 
BRANCH  13  14
ATOM     14  C   UNL     1      -1.405  -0.670   5.509  0.00  0.00    +0.236 C 
ATOM     15  O   UNL     1      -2.242  -0.464   4.656  0.00  0.00    -0.274 OA
ATOM     16  N   UNL     1      -1.618  -0.257   6.774  0.00  0.00    -0.294 N 
ATOM     17  C   UNL     1      -2.981  -0.012   7.263  0.00  0.00    +0.073 C 
ATOM     18  C   UNL     1      -3.050   1.403   7.847  0.00  0.00    +0.022 C 
ATOM     19  C   UNL     1      -1.962   1.565   8.911  0.00  0.00    +0.004 C 
ATOM     20  C   UNL     1      -0.586   1.373   8.270  0.00  0.00    +0.022 C 
ATOM     21  C   UNL     1      -0.490  -0.048   7.693  0.00  0.00    +0.073 C 
ATOM     22  C   UNL     1       0.828  -0.207   6.931  0.00  0.00    +0.028 C 
ATOM     23  C   UNL     1      -3.972  -0.141   6.105  0.00  0.00    +0.028 C 
ENDBRANCH  13  14
ENDBRANCH   9  13
TORSDOF 2
