REMARK  Name = ZINC09125712
REMARK  10 active torsions:
REMARK  status: ('A' for Active; 'I' for Inactive)
REMARK    1  A    between atoms: C_1  and  C_2
REMARK    2  A    between atoms: C_5  and  N_9
REMARK    3  A    between atoms: C_10  and  C_20
REMARK    4  A    between atoms: C_13  and  S_14
REMARK    5  A    between atoms: S_14  and  C_15
REMARK    6  A    between atoms: C_15  and  C_16
REMARK    7  A    between atoms: C_16  and  N_46
REMARK    8  A    between atoms: C_17  and  C_18
REMARK    9  A    between atoms: C_17  and  N_46
REMARK   10  A    between atoms: C_18  and  O_19
REMARK                            x       y       z     vdW  Elec       q    Type
REMARK                         _______ _______ _______ _____ _____    ______ ____
ROOT
ATOM      1  N   UNL     1       3.726   1.631   0.162  0.00  0.00    -0.270 N 
ATOM      2  C   UNL     1       2.478   1.049   0.135  0.00  0.00    +0.169 A 
ATOM      3  N   UNL     1       2.654  -0.227  -0.120  0.00  0.00    -0.128 NA
ATOM      4  N   UNL     1       3.906  -0.482  -0.248  0.00  0.00    -0.122 NA
ATOM      5  C   UNL     1       4.611   0.616  -0.082  0.00  0.00    +0.196 A 
ENDROOT
BRANCH   1  10
ATOM      6  C   UNL     1       4.947   7.094   1.103  0.00  0.00    +0.045 C 
ATOM      7  C   UNL     1       4.623   5.644   0.852  0.00  0.00    -0.032 A 
ATOM      8  C   UNL     1       4.983   4.686   1.782  0.00  0.00    +0.007 A 
ATOM      9  C   UNL     1       4.687   3.356   1.556  0.00  0.00    +0.026 A 
ATOM     10  C   UNL     1       4.027   2.980   0.393  0.00  0.00    +0.052 A 
ATOM     11  C   UNL     1       3.672   3.942  -0.542  0.00  0.00    +0.046 A 
ATOM     12  C   UNL     1       3.966   5.273  -0.308  0.00  0.00    +0.046 A 
ATOM     13 CL   UNL     1       3.516   6.479  -1.473  0.00  0.00    -0.083 Cl
ENDBRANCH   1  10
BRANCH   2  14
ATOM     14  C   UNL     1       1.184   1.732   0.346  0.00  0.00    +0.020 A 
ATOM     15  C   UNL     1       1.146   2.984   0.963  0.00  0.00    +0.013 A 
ATOM     16  C   UNL     1      -0.064   3.614   1.164  0.00  0.00    +0.021 A 
ATOM     17  C   UNL     1      -1.239   3.013   0.745  0.00  0.00    +0.041 A 
ATOM     18  C   UNL     1      -1.207   1.772   0.132  0.00  0.00    +0.021 A 
ATOM     19  C   UNL     1      -0.004   1.129  -0.069  0.00  0.00    +0.013 A 
ATOM     20 CL   UNL     1      -2.758   3.816   0.994  0.00  0.00    -0.084 Cl
ENDBRANCH   2  14
BRANCH   5  21
ATOM     21  S   UNL     1       6.365   0.755  -0.165  0.00  0.00    -0.088 S 
BRANCH  21  22
ATOM     22  C   UNL     1       6.800  -0.965  -0.521  0.00  0.00    +0.058 C 
BRANCH  22  23
ATOM     23  C   UNL     1       8.320  -1.093  -0.640  0.00  0.00    -0.071 C 
BRANCH  23  24
ATOM     24  N   UNL     1       8.666  -2.497  -0.931  0.00  0.00    +0.381 N 
ATOM     25  H   UNL     1       8.223  -2.780  -1.813  0.00  0.00    -0.086 HD
ATOM     26  H   UNL     1       8.325  -3.094  -0.169  0.00  0.00    -0.086 HD
BRANCH  24  27
ATOM     27  C   UNL     1      10.129  -2.649  -1.051  0.00  0.00    -0.054 C 
BRANCH  27  28
ATOM     28  C   UNL     1      10.457  -4.113  -1.352  0.00  0.00    +0.137 C 
BRANCH  28  29
ATOM     29  O   UNL     1       9.930  -4.466  -2.632  0.00  0.00    -0.397 OA
ATOM     30  H   UNL     1      10.101  -5.383  -2.889  0.00  0.00    +0.209 HD
ENDBRANCH  28  29
ENDBRANCH  27  28
ENDBRANCH  24  27
ENDBRANCH  23  24
ENDBRANCH  22  23
ENDBRANCH  21  22
ENDBRANCH   5  21
TORSDOF 9
