REMARK  Name = ZINC60061632
REMARK  12 active torsions:
REMARK  status: ('A' for Active; 'I' for Inactive)
REMARK    1  A    between atoms: C_1  and  C_2
REMARK    2  A    between atoms: C_2  and  C_3
REMARK    3  A    between atoms: C_3  and  C_4
REMARK    4  A    between atoms: C_7  and  C_10
REMARK    5  A    between atoms: C_10  and  C_12
REMARK    6  A    between atoms: C_10  and  N_13
REMARK    7  A    between atoms: N_13  and  C_14
REMARK    8  A    between atoms: N_13  and  C_18
REMARK    9  A    between atoms: C_14  and  C_15
REMARK   10  A    between atoms: C_18  and  C_19
REMARK   11  A    between atoms: N_21  and  C_22
REMARK   12  A    between atoms: C_27  and  C_28
REMARK                            x       y       z     vdW  Elec       q    Type
REMARK                         _______ _______ _______ _____ _____    ______ ____
ROOT
ATOM      1  N   UNL     1      -0.044  -6.788  -0.982  0.00  0.00    +0.395 N 
ATOM      2  H   UNL     1      -0.165  -6.387  -1.900  0.00  0.00    -0.080 HD
ENDROOT
BRANCH   1   3
ATOM      3  C   UNL     1       1.339  -6.576  -0.534  0.00  0.00    -0.040 C 
ATOM      4  C   UNL     1       2.289  -7.402  -1.403  0.00  0.00    -0.008 C 
BRANCH   3   8
ATOM      5  C   UNL     1       2.331  -2.436  -0.882  0.00  0.00    -0.047 A 
ATOM      6  C   UNL     1       2.250  -3.025   0.366  0.00  0.00    +0.004 A 
ATOM      7  C   UNL     1       1.929  -4.365   0.479  0.00  0.00    +0.002 A 
ATOM      8  C   UNL     1       1.688  -5.115  -0.657  0.00  0.00    -0.061 A 
ATOM      9  C   UNL     1       1.768  -4.526  -1.905  0.00  0.00    +0.002 A 
ATOM     10  C   UNL     1       2.085  -3.185  -2.017  0.00  0.00    +0.004 A 
BRANCH   5  11
ATOM     11  C   UNL     1       2.681  -0.975  -1.004  0.00  0.00    +0.035 C 
BRANCH  11  13
ATOM     12  C   UNL     1       1.756   1.344  -1.093  0.00  0.00    +0.004 C 
ATOM     13  C   UNL     1       1.400  -0.139  -0.968  0.00  0.00    +0.001 C 
ENDBRANCH  11  13
ENDBRANCH   5  11
ENDBRANCH   3   8
ENDBRANCH   1   3
BRANCH   1  14
ATOM     14  C   UNL     1      -0.968  -6.144  -0.039  0.00  0.00    +0.020 C 
BRANCH  14  15
ATOM     15  C   UNL     1      -1.101  -4.684  -0.385  0.00  0.00    +0.194 C 
ATOM     16  O   UNL     1      -0.648  -4.264  -1.429  0.00  0.00    -0.278 OA
ATOM     17  N   UNL     1      -1.723  -3.844   0.466  0.00  0.00    -0.331 N 
ATOM     18  H   UNL     1      -2.086  -4.180   1.301  0.00  0.00    +0.145 HD
ATOM     19  H   UNL     1      -1.809  -2.904   0.243  0.00  0.00    +0.145 HD
ENDBRANCH  14  15
ENDBRANCH   1  14
BRANCH   1  20
ATOM     20  C   UNL     1      -0.325  -8.229  -1.037  0.00  0.00    +0.020 C 
BRANCH  20  21
ATOM     21  C   UNL     1      -1.700  -8.451  -1.612  0.00  0.00    +0.201 C 
ATOM     22  O   UNL     1      -2.379  -7.503  -1.944  0.00  0.00    -0.278 OA
ATOM     23  N   UNL     1      -2.175  -9.704  -1.758  0.00  0.00    -0.287 N 
ATOM     24  H   UNL     1      -1.639 -10.462  -1.476  0.00  0.00    +0.155 HD
BRANCH  23  25
ATOM     25  C   UNL     1      -3.442  -9.911  -2.315  0.00  0.00    +0.036 A 
ATOM     26  C   UNL     1      -4.441  -8.961  -2.145  0.00  0.00    +0.023 A 
ATOM     27  C   UNL     1      -5.690  -9.168  -2.697  0.00  0.00    +0.002 A 
ATOM     28  C   UNL     1      -5.947 -10.321  -3.417  0.00  0.00    +0.000 A 
ATOM     29  C   UNL     1      -4.955 -11.268  -3.588  0.00  0.00    +0.005 A 
ATOM     30  C   UNL     1      -3.701 -11.064  -3.044  0.00  0.00    -0.029 A 
ATOM     31  C   UNL     1      -2.618 -12.094  -3.237  0.00  0.00    +0.045 C 
ENDBRANCH  23  25
ENDBRANCH  20  21
ENDBRANCH   1  20
TORSDOF 9
