REMARK  Name = ZINC23133142
REMARK  12 active torsions:
REMARK  status: ('A' for Active; 'I' for Inactive)
REMARK    1  A    between atoms: C_1  and  N_2
REMARK    2  A    between atoms: N_2  and  C_3
REMARK    3  A    between atoms: N_2  and  C_4
REMARK    4  A    between atoms: C_4  and  C_6
REMARK    5  A    between atoms: C_4  and  C_27
REMARK    6  A    between atoms: C_6  and  N_7
REMARK    7  A    between atoms: C_8  and  C_10
REMARK    8  A    between atoms: C_10  and  C_11
REMARK    9  A    between atoms: C_11  and  C_12
REMARK   10  A    between atoms: C_12  and  C_13
REMARK   11  A    between atoms: C_13  and  C_14
REMARK   12  A    between atoms: C_14  and  N_15
REMARK                            x       y       z     vdW  Elec       q    Type
REMARK                         _______ _______ _______ _____ _____    ______ ____
ROOT
ATOM      1  C   UNL     1       6.866  -0.181  -5.006  0.00  0.00    +0.009 C 
ENDROOT
BRANCH   1   2
ATOM      2  C   UNL     1       6.777  -0.069  -3.482  0.00  0.00    +0.096 C 
BRANCH   2   4
ATOM      3  N   UNL     1       5.021   0.280  -1.776  0.00  0.00    -0.317 N 
ATOM      4  C   UNL     1       5.342   0.151  -3.078  0.00  0.00    +0.213 C 
ATOM      5  O   UNL     1       4.476   0.212  -3.925  0.00  0.00    -0.276 OA
ATOM      6  H   UNL     1       5.807   0.225  -1.008  0.00  0.00    +0.149 HD
BRANCH   3   7
ATOM      7  C   UNL     1       3.626   0.494  -1.382  0.00  0.00    +0.093 C 
BRANCH   7   8
ATOM      8  C   UNL     1       3.523   0.507   0.144  0.00  0.00    -0.021 C 
BRANCH   8   9
ATOM      9  C   UNL     1       2.105   0.820   0.549  0.00  0.00    -0.052 A 
ATOM     10  C   UNL     1       1.293  -0.165   1.079  0.00  0.00    +0.009 A 
ATOM     11  C   UNL     1       0.023   0.150   1.432  0.00  0.00    +0.045 A 
ATOM     12  S   UNL     1      -0.057   1.884   1.015  0.00  0.00    -0.105 S 
ATOM     13  C   UNL     1       1.607   2.072   0.398  0.00  0.00    +0.047 A 
ENDBRANCH   8   9
BRANCH   8  15
ATOM     14  C   UNL     1       4.543   2.670  -0.233  0.00  0.00    -0.096 C 
ATOM     15  N   UNL     1       4.425   1.531   0.687  0.00  0.00    +0.382 N 
ATOM     16  C   UNL     1       3.980   1.973   2.016  0.00  0.00    -0.096 C 
ATOM     17  H   UNL     1       5.422   1.080   0.797  0.00  0.00    -0.082 HD
ENDBRANCH   8  15
ENDBRANCH   7   8
ENDBRANCH   3   7
ENDBRANCH   2   4
ENDBRANCH   1   2
BRANCH   1  18
ATOM     18  C   UNL     1       8.323  -0.405  -5.416  0.00  0.00    +0.002 C 
BRANCH  18  19
ATOM     19  C   UNL     1       8.412  -0.517  -6.939  0.00  0.00    +0.019 C 
BRANCH  19  20
ATOM     20  C   UNL     1       9.869  -0.740  -7.350  0.00  0.00    +0.103 C 
BRANCH  20  21
ATOM     21  N   UNL     1       9.954  -0.848  -8.809  0.00  0.00    -0.327 N 
ATOM     22  C   UNL     1      11.175  -1.052  -9.414  0.00  0.00    +0.150 C 
ATOM     23  N   UNL     1      12.252  -1.151  -8.701  0.00  0.00    -0.113 NA
ATOM     24  S   UNL     1      13.501  -1.390  -9.789  0.00  0.00    +0.101 S 
ATOM     25  O   UNL     1      14.326  -0.234  -9.761  0.00  0.00    -0.146 OA
ATOM     26  O   UNL     1      13.993  -2.710  -9.598  0.00  0.00    -0.146 OA
ATOM     27  C   UNL     1      12.589  -1.367 -11.308  0.00  0.00    +0.123 A 
ATOM     28  C   UNL     1      11.270  -1.167 -10.877  0.00  0.00    +0.043 A 
ATOM     29  C   UNL     1      10.274  -1.091 -11.863  0.00  0.00    +0.013 A 
ATOM     30  C   UNL     1      10.602  -1.223 -13.194  0.00  0.00    +0.001 A 
ATOM     31  C   UNL     1      11.912  -1.425 -13.588  0.00  0.00    +0.002 A 
ATOM     32  C   UNL     1      12.911  -1.497 -12.627  0.00  0.00    +0.030 A 
ATOM     33  H   UNL     1       9.044  -0.766  -9.420  0.00  0.00    +0.148 HD
ENDBRANCH  20  21
ENDBRANCH  19  20
ENDBRANCH  18  19
ENDBRANCH   1  18
TORSDOF 10
