REMARK  Name = ZINC07719310
REMARK  1 active torsions:
REMARK  status: ('A' for Active; 'I' for Inactive)
REMARK    1  A    between atoms: C_10  and  C_14
REMARK                            x       y       z     vdW  Elec       q    Type
REMARK                         _______ _______ _______ _____ _____    ______ ____
ROOT
ATOM      1  C   UNL     1       3.537   2.323   0.039  0.00  0.00    +0.136 C 
ATOM      2  C   UNL     1       4.665   1.751  -0.824  0.00  0.00    +0.212 C 
ATOM      3  S   UNL     1       5.009   0.072  -0.208  0.00  0.00    +0.073 S 
ATOM      4  O   UNL     1       5.731  -0.673  -1.179  0.00  0.00    -0.151 OA
ATOM      5  O   UNL     1       5.442   0.120   1.144  0.00  0.00    -0.151 OA
ATOM      6  N   UNL     1       3.509  -0.623  -0.158  0.00  0.00    -0.116 NA
ATOM      7  C   UNL     1       2.410   0.093  -0.065  0.00  0.00    +0.165 C 
ATOM      8  N   UNL     1       2.357   1.456  -0.011  0.00  0.00    -0.287 N 
ATOM      9  C   UNL     1       1.138   2.090   0.002  0.00  0.00    +0.089 C 
ATOM     10  C   UNL     1      -0.017   1.402   0.010  0.00  0.00    +0.070 C 
ATOM     11  C   UNL     1       0.002  -0.004   0.002  0.00  0.00    +0.037 C 
ATOM     12  C   UNL     1       1.192  -0.650  -0.035  0.00  0.00    +0.083 C 
ATOM     13 CL   UNL     1       1.236  -2.386  -0.045  0.00  0.00    -0.080 Cl
ENDROOT
BRANCH  10  14
ATOM     14  C   UNL     1      -1.332   2.137   0.020  0.00  0.00    +0.419 C 
ATOM     15  F   UNL     1      -1.802   2.272  -1.291  0.00  0.00    -0.166 F 
ATOM     16  F   UNL     1      -2.263   1.418   0.777  0.00  0.00    -0.166 F 
ATOM     17  F   UNL     1      -1.153   3.405   0.584  0.00  0.00    -0.166 F 
ENDBRANCH  10  14
TORSDOF 1
