REMARK  Name = ZINC61709893
REMARK  7 active torsions:
REMARK  status: ('A' for Active; 'I' for Inactive)
REMARK    1  A    between atoms: C_1  and  C_2
REMARK    2  A    between atoms: C_2  and  C_3
REMARK    3  A    between atoms: C_3  and  C_5
REMARK    4  A    between atoms: C_3  and  N_20
REMARK    5  A    between atoms: C_5  and  C_7
REMARK    6  A    between atoms: C_5  and  N_13
REMARK    7  A    between atoms: C_16  and  O_19
REMARK                            x       y       z     vdW  Elec       q    Type
REMARK                         _______ _______ _______ _____ _____    ______ ____
ROOT
ATOM      1  C   UNL     1      -1.423  -2.042  -0.246  0.00  0.00    +0.079 C 
ENDROOT
BRANCH   1   2
ATOM      2  C   UNL     1      -2.818  -2.596  -0.368  0.00  0.00    +0.006 A 
ATOM      3  C   UNL     1      -3.602  -3.154   0.587  0.00  0.00    +0.028 A 
ATOM      4  C   UNL     1      -4.865  -3.600   0.243  0.00  0.00    +0.025 A 
ATOM      5  C   UNL     1      -5.281  -3.466  -1.041  0.00  0.00    +0.060 A 
ATOM      6  S   UNL     1      -3.871  -2.684  -1.807  0.00  0.00    -0.099 S 
ATOM      7 BR   UNL     1      -5.993  -4.384   1.542  0.00  0.00    -0.050 Br
ENDBRANCH   1   2
BRANCH   1   8
ATOM      8  N   UNL     1      -0.594  -2.555  -1.345  0.00  0.00    -0.294 NA
ATOM      9  C   UNL     1      -0.923  -3.973  -1.643  0.00  0.00    +0.087 C 
ATOM     10  C   UNL     1       0.321  -4.515  -2.378  0.00  0.00    +0.048 C 
ATOM     11  C   UNL     1       1.482  -3.603  -1.929  0.00  0.00    +0.130 C 
ATOM     12  C   UNL     1       0.841  -2.587  -0.959  0.00  0.00    +0.116 C 
BRANCH  11  13
ATOM     13  O   UNL     1       2.483  -4.370  -1.257  0.00  0.00    -0.390 OA
ATOM     14  H   UNL     1       2.889  -5.055  -1.806  0.00  0.00    +0.210 HD
ENDBRANCH  11  13
ENDBRANCH   1   8
BRANCH   1  15
ATOM     15  C   UNL     1      -1.473  -0.514  -0.316  0.00  0.00    -0.053 C 
BRANCH  15  16
ATOM     16  N   UNL     1      -2.285   0.001   0.795  0.00  0.00    +0.381 N 
ATOM     17  H   UNL     1      -2.318   1.008   0.749  0.00  0.00    -0.090 HD
ATOM     18  H   UNL     1      -3.221  -0.370   0.728  0.00  0.00    -0.090 HD
ATOM     19  H   UNL     1      -1.873  -0.282   1.672  0.00  0.00    -0.090 HD
ENDBRANCH  15  16
BRANCH  15  21
ATOM     20  C   UNL     1      -0.108   1.577  -0.243  0.00  0.00    +0.002 C 
ATOM     21  C   UNL     1      -0.054   0.049  -0.214  0.00  0.00    -0.018 C 
ENDBRANCH  15  21
ENDBRANCH   1  15
TORSDOF 6
