REMARK  Name = ZINC37174935
REMARK  8 active torsions:
REMARK  status: ('A' for Active; 'I' for Inactive)
REMARK    1  A    between atoms: C_1  and  C_2
REMARK    2  A    between atoms: C_2  and  C_4
REMARK    3  A    between atoms: C_2  and  N_16
REMARK    4  A    between atoms: N_6  and  C_7
REMARK    5  A    between atoms: C_12  and  C_13
REMARK    6  A    between atoms: C_13  and  N_15
REMARK    7  A    between atoms: N_16  and  C_17
REMARK    8  A    between atoms: N_16  and  C_18
REMARK                            x       y       z     vdW  Elec       q    Type
REMARK                         _______ _______ _______ _____ _____    ______ ____
ROOT
ATOM      1  C   UNL     1       0.413  -0.000  -1.469  0.00  0.00    +0.203 C 
ATOM      2  O   UNL     1       1.102  -0.998  -1.478  0.00  0.00    -0.277 OA
ATOM      3  N   UNL     1       0.099   0.613  -2.628  0.00  0.00    -0.286 N 
ATOM      4  H   UNL     1      -0.512   1.365  -2.629  0.00  0.00    +0.155 HD
ENDROOT
BRANCH   3   5
ATOM      5  C   UNL     1       0.654   0.164  -3.825  0.00  0.00    +0.043 A 
ATOM      6  C   UNL     1       2.027  -0.003  -3.938  0.00  0.00    +0.024 A 
ATOM      7  C   UNL     1       2.575  -0.447  -5.125  0.00  0.00    +0.002 A 
ATOM      8  C   UNL     1       1.761  -0.729  -6.211  0.00  0.00    +0.001 A 
ATOM      9  C   UNL     1       0.396  -0.569  -6.118  0.00  0.00    +0.012 A 
ATOM     10  C   UNL     1      -0.174  -0.126  -4.921  0.00  0.00    +0.024 A 
BRANCH  10  11
ATOM     11  C   UNL     1      -1.633   0.041  -4.812  0.00  0.00    +0.079 C 
ATOM     12  S   UNL     1      -2.342   0.415  -3.298  0.00  0.00    -0.035 S 
BRANCH  11  13
ATOM     13  N   UNL     1      -2.411  -0.100  -5.903  0.00  0.00    -0.352 N 
ATOM     14  H   UNL     1      -2.010  -0.311  -6.761  0.00  0.00    +0.143 HD
ATOM     15  H   UNL     1      -3.373   0.011  -5.831  0.00  0.00    +0.143 HD
ENDBRANCH  11  13
ENDBRANCH  10  11
ENDBRANCH   3   5
BRANCH   1  17
ATOM     16  C   UNL     1       0.451   1.970   0.036  0.00  0.00    -0.004 C 
ATOM     17  C   UNL     1      -0.094   0.555  -0.163  0.00  0.00    +0.016 C 
BRANCH  17  18
ATOM     18  N   UNL     1       0.357  -0.303   0.941  0.00  0.00    +0.388 N 
ATOM     19  C   UNL     1       1.826  -0.340   0.964  0.00  0.00    -0.095 C 
ATOM     20  H   UNL     1       0.017   0.067   1.816  0.00  0.00    -0.081 HD
BRANCH  18  21
ATOM     21  C   UNL     1      -0.164  -1.663   0.749  0.00  0.00    -0.057 C 
ATOM     22  C   UNL     1      -1.668  -1.579   0.495  0.00  0.00    -0.004 C 
ATOM     23  C   UNL     1      -2.369  -2.880   0.976  0.00  0.00    +0.067 C 
ATOM     24  S   UNL     1      -1.419  -3.186   2.530  0.00  0.00    -0.162 S 
ATOM     25  C   UNL     1       0.201  -2.510   1.984  0.00  0.00    +0.054 C 
ENDBRANCH  18  21
ENDBRANCH  17  18
ENDBRANCH   1  17
TORSDOF 6
