REMARK  Name = ZINC37272715
REMARK  7 active torsions:
REMARK  status: ('A' for Active; 'I' for Inactive)
REMARK    1  A    between atoms: C_3  and  N_9
REMARK    2  A    between atoms: C_6  and  N_7
REMARK    3  A    between atoms: C_10  and  C_12
REMARK    4  A    between atoms: C_12  and  N_13
REMARK    5  A    between atoms: C_18  and  C_20
REMARK    6  A    between atoms: C_20  and  C_21
REMARK    7  A    between atoms: C_21  and  O_22
REMARK                            x       y       z     vdW  Elec       q    Type
REMARK                         _______ _______ _______ _____ _____    ______ ____
ROOT
ATOM      1  N   UNL     1       3.651   2.113   0.104  0.00  0.00    -0.286 N 
ATOM      2  C   UNL     1       3.616   3.455  -0.008  0.00  0.00    +0.201 C 
ATOM      3  O   UNL     1       2.557   4.043   0.067  0.00  0.00    -0.278 OA
ATOM      4  H   UNL     1       4.503   1.650   0.123  0.00  0.00    +0.155 HD
ENDROOT
BRANCH   1   7
ATOM      5  C   UNL     1       0.104   1.197  -0.239  0.00  0.00    +0.024 A 
ATOM      6  C   UNL     1       1.282   1.914  -0.326  0.00  0.00    +0.026 A 
ATOM      7  C   UNL     1       2.456   1.385   0.193  0.00  0.00    +0.048 A 
ATOM      8  C   UNL     1       2.447   0.135   0.799  0.00  0.00    +0.041 A 
ATOM      9  C   UNL     1       1.269  -0.581   0.886  0.00  0.00    +0.039 A 
ATOM     10  C   UNL     1       0.095  -0.052   0.367  0.00  0.00    +0.026 A 
ATOM     11 BR   UNL     1       4.046  -0.585   1.505  0.00  0.00    -0.048 Br
BRANCH  10  12
ATOM     12  N   UNL     1      -1.098  -0.778   0.454  0.00  0.00    -0.358 N 
ATOM     13  H   UNL     1      -1.918  -0.409   0.091  0.00  0.00    +0.142 HD
ATOM     14  H   UNL     1      -1.105  -1.651   0.877  0.00  0.00    +0.142 HD
ENDBRANCH  10  12
ENDBRANCH   1   7
BRANCH   2  15
ATOM     15  C   UNL     1       4.892   4.227  -0.226  0.00  0.00    +0.019 C 
BRANCH  15  16
ATOM     16  N   UNL     1       4.588   5.662  -0.314  0.00  0.00    +0.387 N 
ATOM     17  C   UNL     1       4.093   6.136   0.984  0.00  0.00    -0.078 C 
ATOM     18  C   UNL     1       3.698   7.610   0.876  0.00  0.00    -0.019 C 
ATOM     19  C   UNL     1       4.923   8.432   0.464  0.00  0.00    -0.003 C 
ATOM     20  C   UNL     1       5.475   7.881  -0.854  0.00  0.00    -0.015 C 
ATOM     21  C   UNL     1       5.804   6.396  -0.682  0.00  0.00    -0.066 C 
ATOM     22  H   UNL     1       3.880   5.812  -1.017  0.00  0.00    -0.081 HD
BRANCH  21  23
ATOM     23  C   UNL     1       6.357   5.841  -1.996  0.00  0.00    +0.012 C 
BRANCH  23  24
ATOM     24  C   UNL     1       7.636   6.593  -2.369  0.00  0.00    +0.154 C 
BRANCH  24  25
ATOM     25  O   UNL     1       8.091   6.152  -3.650  0.00  0.00    -0.395 OA
ATOM     26  H   UNL     1       8.900   6.587  -3.951  0.00  0.00    +0.209 HD
ENDBRANCH  24  25
ENDBRANCH  23  24
ENDBRANCH  21  23
ENDBRANCH  15  16
ENDBRANCH   2  15
TORSDOF 7
