REMARK  Name = ZINC09648315
REMARK  11 active torsions:
REMARK  status: ('A' for Active; 'I' for Inactive)
REMARK    1  A    between atoms: C_1  and  C_2
REMARK    2  A    between atoms: C_2  and  N_61
REMARK    3  A    between atoms: C_3  and  C_4
REMARK    4  A    between atoms: C_3  and  N_61
REMARK    5  A    between atoms: C_5  and  C_6
REMARK    6  A    between atoms: C_5  and  N_61
REMARK    7  A    between atoms: C_6  and  N_7
REMARK    8  A    between atoms: N_14  and  C_17
REMARK    9  A    between atoms: N_23  and  C_24
REMARK   10  A    between atoms: C_27  and  S_30
REMARK   11  A    between atoms: S_30  and  C_31
REMARK                            x       y       z     vdW  Elec       q    Type
REMARK                         _______ _______ _______ _____ _____    ______ ____
ROOT
ATOM      1  N   UNL     1      -4.719  -0.112   0.225  0.00  0.00    -0.315 N 
ATOM      2  C   UNL     1      -3.541  -0.838   0.190  0.00  0.00    +0.219 A 
ATOM      3  N   UNL     1      -2.391  -0.186   0.067  0.00  0.00    -0.199 NA
ATOM      4  C   UNL     1      -1.234  -0.836   0.030  0.00  0.00    +0.139 A 
ATOM      5  C   UNL     1      -1.250  -2.242   0.119  0.00  0.00    +0.079 A 
ATOM      6  C   UNL     1      -0.258  -3.247   0.110  0.00  0.00    +0.148 A 
ATOM      7  N   UNL     1      -0.842  -4.406   0.224  0.00  0.00    -0.172 NA
ATOM      8  N   UNL     1      -2.228  -4.229   0.323  0.00  0.00    -0.214 N 
ATOM      9  C   UNL     1      -2.493  -2.891   0.253  0.00  0.00    +0.170 A 
ATOM     10  N   UNL     1      -3.603  -2.156   0.282  0.00  0.00    -0.195 NA
ATOM     11  N   UNL     1      -0.042  -0.149  -0.099  0.00  0.00    -0.299 N 
ATOM     12  H   UNL     1      -5.569  -0.570   0.314  0.00  0.00    +0.149 HD
ATOM     13  H   UNL     1       0.790  -0.637  -0.204  0.00  0.00    +0.154 HD
ENDROOT
BRANCH   8  14
ATOM     14  C   UNL     1      -3.179  -5.248   0.457  0.00  0.00    +0.068 A 
ATOM     15  C   UNL     1      -4.320  -5.040   1.220  0.00  0.00    +0.028 A 
ATOM     16  C   UNL     1      -5.258  -6.045   1.346  0.00  0.00    +0.002 A 
ATOM     17  C   UNL     1      -5.057  -7.263   0.721  0.00  0.00    +0.000 A 
ATOM     18  C   UNL     1      -3.919  -7.475  -0.035  0.00  0.00    +0.002 A 
ATOM     19  C   UNL     1      -2.980  -6.472  -0.169  0.00  0.00    +0.028 A 
ENDBRANCH   8  14
BRANCH  11  20
ATOM     20  C   UNL     1      -0.034   1.251  -0.077  0.00  0.00    +0.032 A 
ATOM     21  C   UNL     1       0.908   1.952  -0.820  0.00  0.00    +0.024 A 
ATOM     22  C   UNL     1       0.912   3.332  -0.803  0.00  0.00    +0.017 A 
ATOM     23  C   UNL     1      -0.019   4.020  -0.035  0.00  0.00    +0.013 A 
ATOM     24  C   UNL     1      -0.958   3.319   0.712  0.00  0.00    +0.017 A 
ATOM     25  C   UNL     1      -0.965   1.939   0.691  0.00  0.00    +0.024 A 
BRANCH  23  26
ATOM     26  S   UNL     1      -0.010   5.782  -0.008  0.00  0.00    -0.056 S 
BRANCH  26  27
ATOM     27  C   UNL     1       1.360   6.230  -1.109  0.00  0.00    +0.404 C 
ATOM     28  F   UNL     1       2.552   5.689  -0.616  0.00  0.00    -0.197 F 
ATOM     29  F   UNL     1       1.113   5.724  -2.390  0.00  0.00    -0.197 F 
ENDBRANCH  26  27
ENDBRANCH  23  26
ENDBRANCH  11  20
BRANCH   1  30
ATOM     30  C   UNL     1      -4.681   1.349   0.126  0.00  0.00    +0.086 C 
BRANCH  30  31
ATOM     31  C   UNL     1      -6.107   1.901   0.189  0.00  0.00    -0.060 C 
BRANCH  31  32
ATOM     32  N   UNL     1      -6.051   3.376   0.109  0.00  0.00    +0.380 N 
ATOM     33  H   UNL     1      -5.389   3.723   0.814  0.00  0.00    -0.082 HD
BRANCH  32  35
ATOM     34  C   UNL     1      -6.575   3.334  -2.306  0.00  0.00    -0.017 C 
ATOM     35  C   UNL     1      -5.587   3.793  -1.231  0.00  0.00    -0.082 C 
ENDBRANCH  32  35
BRANCH  32  36
ATOM     36  C   UNL     1      -7.386   3.948   0.382  0.00  0.00    -0.082 C 
ATOM     37  C   UNL     1      -7.234   5.447   0.648  0.00  0.00    -0.017 C 
ENDBRANCH  32  36
ENDBRANCH  31  32
ENDBRANCH  30  31
ENDBRANCH   1  30
TORSDOF 9
