REMARK  Name = ZINC11996482
REMARK  10 active torsions:
REMARK  status: ('A' for Active; 'I' for Inactive)
REMARK    1  A    between atoms: C_1  and  C_2
REMARK    2  A    between atoms: C_7  and  C_10
REMARK    3  A    between atoms: C_11  and  C_13
REMARK    4  A    between atoms: C_15  and  C_23
REMARK    5  A    between atoms: C_17  and  N_19
REMARK    6  A    between atoms: C_20  and  C_22
REMARK    7  A    between atoms: C_23  and  N_58
REMARK    8  A    between atoms: C_24  and  C_25
REMARK    9  A    between atoms: C_24  and  N_58
REMARK   10  A    between atoms: C_30  and  O_31
REMARK                            x       y       z     vdW  Elec       q    Type
REMARK                         _______ _______ _______ _____ _____    ______ ____
ROOT
ATOM      1  C   UNL     1       6.197   3.784  -4.808  0.00  0.00    +0.039 A 
ATOM      2  C   UNL     1       5.639   3.544  -3.551  0.00  0.00    +0.015 A 
ATOM      3  C   UNL     1       4.773   4.462  -2.994  0.00  0.00    -0.062 A 
ATOM      4  C   UNL     1       4.462   5.626  -3.672  0.00  0.00    +0.025 A 
ATOM      5  C   UNL     1       5.016   5.877  -4.921  0.00  0.00    +0.034 A 
ATOM      6  C   UNL     1       5.883   4.958  -5.492  0.00  0.00    +0.036 A 
ENDROOT
BRANCH   1  15
ATOM      7  C   UNL     1       4.723   3.053  -9.612  0.00  0.00    +0.039 C 
ATOM      8  C   UNL     1       5.568   2.324  -8.566  0.00  0.00    +0.133 C 
ATOM      9  C   UNL     1       6.206   3.342  -7.621  0.00  0.00    +0.139 C 
ATOM     10  N   UNL     1       7.159   2.640  -6.747  0.00  0.00    -0.293 N 
ATOM     11  C   UNL     1       8.150   1.753  -7.377  0.00  0.00    +0.139 C 
ATOM     12  C   UNL     1       7.415   0.808  -8.333  0.00  0.00    +0.133 C 
ATOM     13  O   UNL     1       6.598   1.577  -9.219  0.00  0.00    -0.371 OA
ATOM     14  C   UNL     1       8.435   0.006  -9.144  0.00  0.00    +0.039 C 
ATOM     15  C   UNL     1       7.122   2.800  -5.409  0.00  0.00    +0.247 C 
ATOM     16  O   UNL     1       7.849   2.135  -4.697  0.00  0.00    -0.270 OA
ENDBRANCH   1  15
BRANCH   5  17
ATOM     17  N   UNL     1       4.697   7.057  -5.604  0.00  0.00    -0.286 N 
ATOM     18  C   UNL     1       4.343   8.159  -4.914  0.00  0.00    +0.214 C 
ATOM     19  O   UNL     1       4.390   8.158  -3.702  0.00  0.00    -0.276 OA
ATOM     20  C   UNL     1       3.888   9.393  -5.649  0.00  0.00    +0.109 C 
ATOM     21  H   UNL     1       4.732   7.081  -6.573  0.00  0.00    +0.155 HD
ENDBRANCH   5  17
BRANCH   3  22
ATOM     22  C   UNL     1       4.168   4.198  -1.639  0.00  0.00    -0.046 C 
BRANCH  22  23
ATOM     23  N   UNL     1       2.895   3.472  -1.811  0.00  0.00    +0.384 N 
ATOM     24  H   UNL     1       3.075   2.583  -2.292  0.00  0.00    -0.085 HD
ATOM     25  H   UNL     1       2.254   4.042  -2.374  0.00  0.00    -0.085 HD
BRANCH  23  26
ATOM     26  C   UNL     1       2.280   3.199  -0.498  0.00  0.00    -0.043 C 
BRANCH  26  27
ATOM     27  C   UNL     1       0.984   2.458  -0.705  0.00  0.00    -0.022 A 
ATOM     28  C   UNL     1      -0.217   3.138  -0.652  0.00  0.00    +0.025 A 
ATOM     29  C   UNL     1      -1.407   2.458  -0.843  0.00  0.00    +0.041 A 
ATOM     30  C   UNL     1      -1.396   1.097  -1.091  0.00  0.00    +0.023 A 
ATOM     31  C   UNL     1      -0.197   0.412  -1.139  0.00  0.00    +0.047 A 
ATOM     32  C   UNL     1       0.997   1.093  -0.949  0.00  0.00    +0.118 A 
ATOM     33 CL   UNL     1      -2.915   3.315  -0.776  0.00  0.00    -0.084 Cl
BRANCH  32  34
ATOM     34  O   UNL     1       2.178   0.422  -1.001  0.00  0.00    -0.507 OA
ATOM     35  H   UNL     1       2.570   0.383  -1.884  0.00  0.00    +0.292 HD
ENDBRANCH  32  34
ENDBRANCH  26  27
ENDBRANCH  23  26
ENDBRANCH  22  23
ENDBRANCH   3  22
TORSDOF 7
