REMARK  Name = ZINC18935167
REMARK  12 active torsions:
REMARK  status: ('A' for Active; 'I' for Inactive)
REMARK    1  A    between atoms: C_1  and  C_2
REMARK    2  A    between atoms: C_2  and  C_3
REMARK    3  A    between atoms: C_2  and  C_4
REMARK    4  A    between atoms: C_4  and  N_5
REMARK    5  A    between atoms: N_5  and  C_6
REMARK    6  A    between atoms: C_7  and  N_22
REMARK    7  A    between atoms: N_8  and  C_15
REMARK    8  A    between atoms: C_15  and  C_16
REMARK    9  A    between atoms: C_23  and  C_25
REMARK   10  A    between atoms: C_25  and  N_71
REMARK   11  A    between atoms: C_26  and  N_71
REMARK   12  A    between atoms: C_27  and  N_71
REMARK                            x       y       z     vdW  Elec       q    Type
REMARK                         _______ _______ _______ _____ _____    ______ ____
ROOT
ATOM      1  N   UNL     1      -0.641   0.776   2.594  0.00  0.00    -0.266 N 
ATOM      2  C   UNL     1      -0.937   1.132   1.326  0.00  0.00    +0.203 C 
ATOM      3  O   UNL     1      -2.026   1.600   1.066  0.00  0.00    -0.277 OA
ENDROOT
BRANCH   1   4
ATOM      4  C   UNL     1      -1.558   1.043   3.633  0.00  0.00    +0.140 A 
ATOM      5  C   UNL     1      -1.204   1.860   4.688  0.00  0.00    +0.128 A 
ATOM      6  N   UNL     1      -2.121   2.104   5.684  0.00  0.00    -0.276 N 
ATOM      7  C   UNL     1      -3.344   1.546   5.636  0.00  0.00    +0.331 A 
ATOM      8  O   UNL     1      -4.138   1.771   6.529  0.00  0.00    -0.246 OA
ATOM      9  N   UNL     1      -3.704   0.743   4.619  0.00  0.00    -0.273 N 
ATOM     10  H   UNL     1      -4.619   0.341   4.607  0.00  0.00    +0.173 HD
ATOM     11  C   UNL     1      -2.845   0.475   3.615  0.00  0.00    +0.277 A 
ATOM     12  O   UNL     1      -3.182  -0.254   2.698  0.00  0.00    -0.266 OA
BRANCH   5  13
ATOM     13  N   UNL     1       0.047   2.426   4.740  0.00  0.00    -0.343 N 
ATOM     14  H   UNL     1       0.662   2.312   3.998  0.00  0.00    +0.144 HD
ATOM     15  H   UNL     1       0.315   2.940   5.517  0.00  0.00    +0.144 HD
ENDBRANCH   5  13
BRANCH   6  16
ATOM     16  C   UNL     1      -1.761   2.974   6.807  0.00  0.00    +0.163 C 
BRANCH  16  17
ATOM     17  C   UNL     1      -1.152   2.145   7.909  0.00  0.00    -0.028 A 
ATOM     18  C   UNL     1      -1.957   1.605   8.893  0.00  0.00    +0.005 A 
ATOM     19  C   UNL     1      -1.399   0.840   9.900  0.00  0.00    +0.000 A 
ATOM     20  C   UNL     1      -0.034   0.626   9.930  0.00  0.00    +0.000 A 
ATOM     21  C   UNL     1       0.773   1.171   8.948  0.00  0.00    +0.000 A 
ATOM     22  C   UNL     1       0.214   1.931   7.938  0.00  0.00    +0.005 A 
ENDBRANCH  16  17
ENDBRANCH   6  16
ENDBRANCH   1   4
BRANCH   1  23
ATOM     23  C   UNL     1       0.631   0.114   2.891  0.00  0.00    +0.117 C 
BRANCH  23  25
ATOM     24  C   UNL     1       1.855  -2.063   2.812  0.00  0.00    +0.009 C 
ATOM     25  C   UNL     1       0.490  -1.391   2.650  0.00  0.00    +0.001 C 
ATOM     26  C   UNL     1      -0.492  -1.980   3.665  0.00  0.00    +0.009 C 
ENDBRANCH  23  25
ENDBRANCH   1  23
BRANCH   2  27
ATOM     27  C   UNL     1       0.085   0.948   0.234  0.00  0.00    +0.020 C 
BRANCH  27  29
ATOM     28  C   UNL     1      -0.333   2.991  -0.997  0.00  0.00    -0.095 C 
ATOM     29  N   UNL     1      -0.454   1.518  -1.019  0.00  0.00    +0.388 N 
ATOM     30  H   UNL     1      -1.446   1.266  -1.101  0.00  0.00    -0.081 HD
BRANCH  29  31
ATOM     31  C   UNL     1       0.279   0.968  -2.179  0.00  0.00    -0.037 C 
ATOM     32  C   UNL     1       1.785   1.109  -1.970  0.00  0.00    -0.010 C 
ATOM     33  C   UNL     1       2.502   0.333  -3.082  0.00  0.00    +0.003 C 
ATOM     34  C   UNL     1       2.284  -1.160  -2.844  0.00  0.00    +0.035 C 
ATOM     35  C   UNL     1       0.820  -1.457  -2.652  0.00  0.00    -0.046 A 
ATOM     36  C   UNL     1      -0.101  -0.481  -2.343  0.00  0.00    -0.058 A 
ATOM     37  C   UNL     1      -1.435  -0.823  -2.171  0.00  0.00    +0.002 A 
ATOM     38  C   UNL     1      -1.847  -2.133  -2.311  0.00  0.00    +0.000 A 
ATOM     39  C   UNL     1      -0.924  -3.112  -2.626  0.00  0.00    +0.000 A 
ATOM     40  C   UNL     1       0.403  -2.774  -2.796  0.00  0.00    +0.004 A 
ENDBRANCH  29  31
ENDBRANCH  27  29
ENDBRANCH   2  27
TORSDOF 9
