REMARK  Name = ZINC63384662
REMARK  9 active torsions:
REMARK  status: ('A' for Active; 'I' for Inactive)
REMARK    1  A    between atoms: C_1  and  C_2
REMARK    2  A    between atoms: C_2  and  C_3
REMARK    3  A    between atoms: C_2  and  C_4
REMARK    4  A    between atoms: C_4  and  C_6
REMARK    5  A    between atoms: C_4  and  N_20
REMARK    6  A    between atoms: N_8  and  C_9
REMARK    7  A    between atoms: C_9  and  C_10
REMARK    8  A    between atoms: C_10  and  C_11
REMARK    9  A    between atoms: C_25  and  O_33
REMARK                            x       y       z     vdW  Elec       q    Type
REMARK                         _______ _______ _______ _____ _____    ______ ____
ROOT
ATOM      1  C   UNL     1       0.718  -0.497  -1.257  0.00  0.00    +0.163 C 
ENDROOT
BRANCH   1   2
ATOM      2  N   UNL     1       0.010  -0.012  -2.444  0.00  0.00    -0.287 N 
ATOM      3  C   UNL     1       0.274   1.216  -2.931  0.00  0.00    +0.308 C 
ATOM      4  O   UNL     1       1.101   1.922  -2.386  0.00  0.00    -0.252 OA
ATOM      5  N   UNL     1      -0.378   1.663  -4.023  0.00  0.00    -0.245 N 
ATOM      6  C   UNL     1      -1.389   0.838  -4.705  0.00  0.00    +0.210 C 
ATOM      7  C   UNL     1      -1.229   0.999  -6.194  0.00  0.00    +0.206 C 
ATOM      8  N   UNL     1      -0.734   2.077  -6.712  0.00  0.00    -0.214 NA
ATOM      9  C   UNL     1      -0.315   3.125  -5.936  0.00  0.00    +0.089 A 
ATOM     10  C   UNL     1      -0.126   2.936  -4.556  0.00  0.00    +0.064 A 
ATOM     11  C   UNL     1       0.297   3.980  -3.759  0.00  0.00    +0.026 A 
ATOM     12  C   UNL     1       0.529   5.224  -4.321  0.00  0.00    +0.002 A 
ATOM     13  C   UNL     1       0.338   5.423  -5.677  0.00  0.00    +0.002 A 
ATOM     14  C   UNL     1      -0.077   4.378  -6.493  0.00  0.00    +0.030 A 
ATOM     15  H   UNL     1      -0.650  -0.575  -2.879  0.00  0.00    +0.151 HD
BRANCH   7  16
ATOM     16  O   UNL     1      -1.612  -0.006  -7.009  0.00  0.00    -0.494 OA
ATOM     17  H   UNL     1      -1.477   0.176  -7.949  0.00  0.00    +0.293 HD
ENDBRANCH   7  16
ENDBRANCH   1   2
BRANCH   1  18
ATOM     18  C   UNL     1       0.739  -2.004  -1.265  0.00  0.00    +0.234 C 
ATOM     19  O   UNL     1       0.213  -2.613  -2.173  0.00  0.00    -0.274 OA
ATOM     20  N   UNL     1       1.341  -2.676  -0.264  0.00  0.00    -0.313 N 
ATOM     21  H   UNL     1       1.761  -2.189   0.463  0.00  0.00    +0.149 HD
BRANCH  20  22
ATOM     22  C   UNL     1       1.361  -4.141  -0.272  0.00  0.00    +0.108 C 
BRANCH  22  23
ATOM     23  C   UNL     1       2.101  -4.647   0.968  0.00  0.00    +0.052 C 
BRANCH  23  24
ATOM     24  C   UNL     1       2.121  -6.154   0.960  0.00  0.00    -0.040 C 
ATOM     25  C   UNL     1       3.110  -6.951   0.494  0.00  0.00    -0.001 A 
ATOM     26  C   UNL     1       4.411  -6.665  -0.121  0.00  0.00    +0.010 A 
ATOM     27  C   UNL     1       5.202  -7.698  -0.494  0.00  0.00    +0.001 A 
ATOM     28  C   UNL     1       4.810  -9.030  -0.308  0.00  0.00    +0.002 A 
ATOM     29  C   UNL     1       3.629  -9.372   0.250  0.00  0.00    +0.026 A 
ATOM     30  C   UNL     1       2.720  -8.367   0.680  0.00  0.00    +0.043 A 
ATOM     31  N   UNL     1       1.536  -8.442   1.239  0.00  0.00    -0.380 N 
ATOM     32  C   UNL     1       1.044  -7.081   1.476  0.00  0.00    +0.144 C 
ATOM     33  H   UNL     1       1.066  -9.261   1.462  0.00  0.00    +0.160 HD
ENDBRANCH  23  24
ENDBRANCH  22  23
ENDBRANCH  20  22
ENDBRANCH   1  18
BRANCH   1  35
ATOM     34  C   UNL     1      -0.019   1.526   0.010  0.00  0.00    +0.009 C 
ATOM     35  C   UNL     1       0.002  -0.004   0.002  0.00  0.00    +0.012 C 
ATOM     36  C   UNL     1      -1.433  -0.534   0.013  0.00  0.00    +0.009 C 
ENDBRANCH   1  35
TORSDOF 7
