REMARK  Name = ZINC63393770
REMARK  7 active torsions:
REMARK  status: ('A' for Active; 'I' for Inactive)
REMARK    1  A    between atoms: C_1  and  C_2
REMARK    2  A    between atoms: C_7  and  C_8
REMARK    3  A    between atoms: C_17  and  C_32
REMARK    4  A    between atoms: C_18  and  C_19
REMARK    5  A    between atoms: N_20  and  C_21
REMARK    6  A    between atoms: C_21  and  C_22
REMARK    7  A    between atoms: C_22  and  C_23
REMARK                            x       y       z     vdW  Elec       q    Type
REMARK                         _______ _______ _______ _____ _____    ______ ____
ROOT
ATOM      1  C   UNL     1       0.339   0.390   2.875  0.00  0.00    +0.088 C 
ATOM      2  C   UNL     1       1.543  -0.507   2.769  0.00  0.00    +0.007 A 
ATOM      3  C   UNL     1       2.586  -0.149   1.934  0.00  0.00    +0.008 A 
ATOM      4  C   UNL     1       3.699  -0.962   1.825  0.00  0.00    +0.001 A 
ATOM      5  C   UNL     1       3.772  -2.137   2.550  0.00  0.00    +0.004 A 
ATOM      6  C   UNL     1       2.734  -2.499   3.384  0.00  0.00    +0.046 A 
ATOM      7  C   UNL     1       1.613  -1.684   3.497  0.00  0.00    +0.133 A 
ATOM      8  O   UNL     1       0.603  -2.055   4.321  0.00  0.00    -0.454 OA
ATOM      9  C   UNL     1      -0.288  -1.138   4.745  0.00  0.00    +0.148 C 
ATOM     10  C   UNL     1      -0.459   0.042   4.100  0.00  0.00    +0.025 C 
ENDROOT
BRANCH   1  17
ATOM     11  C   UNL     1      -0.043   2.597   1.050  0.00  0.00    +0.044 C 
ATOM     12  C   UNL     1      -0.706   1.271   0.778  0.00  0.00    -0.046 A 
ATOM     13  C   UNL     1      -1.492   1.110  -0.347  0.00  0.00    +0.003 A 
ATOM     14  C   UNL     1      -2.100  -0.106  -0.596  0.00  0.00    +0.000 A 
ATOM     15  C   UNL     1      -1.922  -1.161   0.280  0.00  0.00    +0.000 A 
ATOM     16  C   UNL     1      -1.135  -0.999   1.405  0.00  0.00    +0.005 A 
ATOM     17  C   UNL     1      -0.523   0.216   1.651  0.00  0.00    -0.032 A 
ENDBRANCH   1  17
BRANCH   9  18
ATOM     18  C   UNL     1      -1.094  -1.425   5.934  0.00  0.00    +0.055 A 
ATOM     19  C   UNL     1      -0.687  -1.899   7.173  0.00  0.00    +0.019 A 
ATOM     20  C   UNL     1      -1.685  -2.072   8.103  0.00  0.00    +0.008 A 
ATOM     21  C   UNL     1      -2.963  -1.777   7.761  0.00  0.00    +0.046 A 
ATOM     22  S   UNL     1      -2.852  -1.249   6.170  0.00  0.00    -0.094 S 
ENDBRANCH   9  18
BRANCH  10  23
ATOM     23  C   UNL     1      -1.406   0.960   4.591  0.00  0.00    +0.113 C 
ATOM     24  N   UNL     1      -1.274   2.232   4.336  0.00  0.00    -0.291 NA
BRANCH  24  25
ATOM     25  C   UNL     1      -2.195   3.200   4.938  0.00  0.00    +0.146 C 
BRANCH  25  26
ATOM     26  C   UNL     1      -1.423   4.113   5.893  0.00  0.00    +0.056 C 
BRANCH  26  27
ATOM     27  C   UNL     1      -2.371   5.108   6.511  0.00  0.00    -0.040 C 
ATOM     28  C   UNL     1      -2.997   5.000   7.705  0.00  0.00    -0.001 A 
ATOM     29  C   UNL     1      -2.985   3.964   8.745  0.00  0.00    +0.010 A 
ATOM     30  C   UNL     1      -3.734   4.142   9.857  0.00  0.00    +0.001 A 
ATOM     31  C   UNL     1      -4.520   5.288  10.041  0.00  0.00    +0.002 A 
ATOM     32  C   UNL     1      -4.582   6.283   9.131  0.00  0.00    +0.026 A 
ATOM     33  C   UNL     1      -3.835   6.201   7.924  0.00  0.00    +0.043 A 
ATOM     34  N   UNL     1      -3.731   7.019   6.905  0.00  0.00    -0.380 N 
ATOM     35  C   UNL     1      -2.809   6.432   5.926  0.00  0.00    +0.144 C 
ATOM     36  H   UNL     1      -4.184   7.872   6.815  0.00  0.00    +0.160 HD
ENDBRANCH  26  27
ENDBRANCH  25  26
ENDBRANCH  24  25
ENDBRANCH  10  23
TORSDOF 6
