REMARK  Name = ZINC21263346
REMARK  17 active torsions:
REMARK  status: ('A' for Active; 'I' for Inactive)
REMARK    1  A    between atoms: C_1  and  C_2
REMARK    2  A    between atoms: C_2  and  C_34
REMARK    3  A    between atoms: C_4  and  N_10
REMARK    4  A    between atoms: C_6  and  C_8
REMARK    5  A    between atoms: C_6  and  C_9
REMARK    6  A    between atoms: N_10  and  C_11
REMARK    7  A    between atoms: C_11  and  N_13
REMARK    8  A    between atoms: N_13  and  C_14
REMARK    9  A    between atoms: N_13  and  C_21
REMARK   10  A    between atoms: C_14  and  C_15
REMARK   11  A    between atoms: C_21  and  C_22
REMARK   12  A    between atoms: C_25  and  O_32
REMARK   13  A    between atoms: C_26  and  O_30
REMARK   14  A    between atoms: C_27  and  O_28
REMARK   15  A    between atoms: O_28  and  C_29
REMARK   16  A    between atoms: O_30  and  C_31
REMARK   17  A    between atoms: O_32  and  C_33
REMARK                            x       y       z     vdW  Elec       q    Type
REMARK                         _______ _______ _______ _____ _____    ______ ____
ROOT
ATOM      1  N   UNL     1       0.092   7.044  -2.328  0.00  0.00    -0.304 N 
ENDROOT
BRANCH   1   2
ATOM      2  C   UNL     1       0.100   5.696  -2.318  0.00  0.00    +0.134 C 
ATOM      3  S   UNL     1      -0.206   4.828  -3.761  0.00  0.00    -0.019 S 
BRANCH   2   4
ATOM      4  N   UNL     1       0.349   5.032  -1.172  0.00  0.00    -0.324 N 
ATOM      5  H   UNL     1       0.546   5.590  -0.245  0.00  0.00    +0.148 HD
BRANCH   4   9
ATOM      6  C   UNL     1      -0.951   0.966  -2.308  0.00  0.00    -0.010 C 
ATOM      7  C   UNL     1      -1.084   1.527  -0.887  0.00  0.00    -0.072 C 
ATOM      8  C   UNL     1      -1.064   3.053  -0.937  0.00  0.00    +0.009 C 
ATOM      9  C   UNL     1       0.359   3.564  -1.162  0.00  0.00    +0.069 C 
ATOM     10  C   UNL     1       1.234   3.075  -0.006  0.00  0.00    +0.009 C 
ATOM     11  C   UNL     1       1.258   1.547   0.019  0.00  0.00    -0.072 C 
ATOM     12  N   UNL     1      -0.073   0.973  -0.009  0.00  0.00    +0.386 N 
ATOM     13  C   UNL     1       1.941   1.114   1.335  0.00  0.00    -0.010 C 
ATOM     14  C   UNL     1       2.117   1.024  -1.136  0.00  0.00    -0.010 C 
ATOM     15  C   UNL     1      -2.470   1.098  -0.355  0.00  0.00    -0.010 C 
ATOM     16  H   UNL     1      -0.415   1.045   1.034  0.00  0.00    -0.084 HD
ATOM     17  H   UNL     1       0.098  -0.082  -0.267  0.00  0.00    -0.084 HD
ENDBRANCH   4   9
ENDBRANCH   2   4
ENDBRANCH   1   2
BRANCH   1  18
ATOM     18  C   UNL     1       0.353   7.787  -1.092  0.00  0.00    +0.142 C 
BRANCH  18  19
ATOM     19  C   UNL     1       1.832   8.048  -0.967  0.00  0.00    -0.030 A 
ATOM     20  C   UNL     1       2.642   7.139  -0.312  0.00  0.00    +0.005 A 
ATOM     21  C   UNL     1       3.999   7.376  -0.202  0.00  0.00    +0.000 A 
ATOM     22  C   UNL     1       4.545   8.528  -0.737  0.00  0.00    +0.000 A 
ATOM     23  C   UNL     1       3.735   9.440  -1.387  0.00  0.00    +0.000 A 
ATOM     24  C   UNL     1       2.378   9.200  -1.502  0.00  0.00    +0.005 A 
ENDBRANCH  18  19
ENDBRANCH   1  18
BRANCH   1  25
ATOM     25  C   UNL     1      -0.179   7.766  -3.573  0.00  0.00    +0.146 C 
BRANCH  25  26
ATOM     26  C   UNL     1      -1.661   8.007  -3.702  0.00  0.00    +0.015 A 
ATOM     27  C   UNL     1      -2.425   7.191  -4.516  0.00  0.00    +0.012 A 
ATOM     28  C   UNL     1      -3.785   7.405  -4.634  0.00  0.00    +0.050 A 
ATOM     29  C   UNL     1      -4.388   8.446  -3.943  0.00  0.00    +0.165 A 
ATOM     30  C   UNL     1      -3.623   9.271  -3.128  0.00  0.00    +0.204 A 
ATOM     31  C   UNL     1      -2.256   9.050  -3.008  0.00  0.00    +0.170 A 
BRANCH  31  32
ATOM     32  O   UNL     1      -1.503   9.855  -2.212  0.00  0.00    -0.491 OA
ATOM     33  C   UNL     1      -0.851  10.961  -2.839  0.00  0.00    +0.277 C 
ENDBRANCH  31  32
BRANCH  30  34
ATOM     34  O   UNL     1      -4.210  10.294  -2.449  0.00  0.00    -0.488 OA
ATOM     35  C   UNL     1      -4.398  11.520  -3.158  0.00  0.00    +0.277 C 
ENDBRANCH  30  34
BRANCH  29  36
ATOM     36  O   UNL     1      -5.726   8.658  -4.063  0.00  0.00    -0.491 OA
ATOM     37  C   UNL     1      -6.449   7.771  -4.918  0.00  0.00    +0.277 C 
ENDBRANCH  29  36
ENDBRANCH  25  26
ENDBRANCH   1  25
TORSDOF 10
