REMARK  Name = ZINC10035233
REMARK  6 active torsions:
REMARK  status: ('A' for Active; 'I' for Inactive)
REMARK    1  A    between atoms: C_1  and  C_2
REMARK    2  A    between atoms: C_3  and  C_24
REMARK    3  A    between atoms: C_4  and  C_18
REMARK    4  A    between atoms: N_26  and  C_27
REMARK    5  A    between atoms: C_32  and  O_33
REMARK    6  A    between atoms: O_33  and  C_34
REMARK                            x       y       z     vdW  Elec       q    Type
REMARK                         _______ _______ _______ _____ _____    ______ ____
ROOT
ATOM      1  C   UNL     1      -0.989   1.499   0.256  0.00  0.00    +0.061 C 
ATOM      2  C   UNL     1      -1.127   1.906   1.700  0.00  0.00    +0.018 C 
ATOM      3  C   UNL     1      -0.526   3.023   2.149  0.00  0.00    +0.058 C 
ATOM      4  C   UNL     1      -0.665   3.454   3.581  0.00  0.00    +0.149 C 
ATOM      5  C   UNL     1      -1.702   1.299   3.925  0.00  0.00    +0.166 C 
ATOM      6  N   UNL     1      -1.863   1.137   2.567  0.00  0.00    -0.292 N 
ATOM      7  N   UNL     1      -2.141   0.311   4.780  0.00  0.00    -0.243 N 
ATOM      8  C   UNL     1      -1.988   0.459   6.144  0.00  0.00    +0.295 A 
ATOM      9  N   UNL     1      -1.436   1.491   6.728  0.00  0.00    -0.195 NA
ATOM     10  C   UNL     1      -1.460   1.295   8.075  0.00  0.00    +0.111 A 
ATOM     11  C   UNL     1      -1.023   2.047   9.166  0.00  0.00    +0.031 A 
ATOM     12  C   UNL     1      -1.189   1.559  10.443  0.00  0.00    +0.002 A 
ATOM     13  C   UNL     1      -1.788   0.326  10.650  0.00  0.00    +0.004 A 
ATOM     14  C   UNL     1      -2.225  -0.428   9.580  0.00  0.00    +0.048 A 
ATOM     15  C   UNL     1      -2.065   0.048   8.288  0.00  0.00    +0.157 A 
ATOM     16  O   UNL     1      -2.378  -0.439   7.066  0.00  0.00    -0.424 OA
ATOM     17  H   UNL     1      -2.491   0.482   2.225  0.00  0.00    +0.154 HD
ATOM     18  H   UNL     1      -2.558  -0.489   4.423  0.00  0.00    +0.159 HD
ATOM     19  N   UNL     1      -1.140   2.365   4.505  0.00  0.00    -0.350 N 
ATOM     20  H   UNL     1      -1.038   2.437   5.524  0.00  0.00    +0.163 HD
ENDROOT
BRANCH   4  21
ATOM     21  C   UNL     1       0.680   3.907   4.090  0.00  0.00    -0.021 A 
ATOM     22  C   UNL     1       1.648   2.973   4.409  0.00  0.00    +0.006 A 
ATOM     23  C   UNL     1       2.883   3.389   4.871  0.00  0.00    +0.000 A 
ATOM     24  C   UNL     1       3.146   4.737   5.023  0.00  0.00    +0.000 A 
ATOM     25  C   UNL     1       2.176   5.670   4.709  0.00  0.00    +0.000 A 
ATOM     26  C   UNL     1       0.943   5.255   4.243  0.00  0.00    +0.006 A 
ENDBRANCH   4  21
BRANCH   3  27
ATOM     27  C   UNL     1       0.246   3.806   1.256  0.00  0.00    +0.248 C 
ATOM     28  O   UNL     1      -0.252   4.772   0.708  0.00  0.00    -0.270 OA
ATOM     29  N   UNL     1       1.532   3.481   1.014  0.00  0.00    -0.279 N 
ATOM     30  H   UNL     1       1.902   2.662   1.378  0.00  0.00    +0.155 HD
BRANCH  29  31
ATOM     31  C   UNL     1       2.333   4.327   0.237  0.00  0.00    +0.076 A 
ATOM     32  C   UNL     1       1.762   5.101  -0.763  0.00  0.00    +0.027 A 
ATOM     33  C   UNL     1       2.555   5.935  -1.528  0.00  0.00    +0.002 A 
ATOM     34  C   UNL     1       3.917   6.002  -1.299  0.00  0.00    +0.004 A 
ATOM     35  C   UNL     1       4.493   5.233  -0.305  0.00  0.00    +0.047 A 
ATOM     36  C   UNL     1       3.705   4.398   0.470  0.00  0.00    +0.141 A 
BRANCH  36  37
ATOM     37  O   UNL     1       4.269   3.646   1.452  0.00  0.00    -0.493 OA
ATOM     38  C   UNL     1       5.681   3.770   1.634  0.00  0.00    +0.277 C 
ENDBRANCH  36  37
ENDBRANCH  29  31
ENDBRANCH   3  27
TORSDOF 4
