REMARK  Name = ZINC13590030
REMARK  10 active torsions:
REMARK  status: ('A' for Active; 'I' for Inactive)
REMARK    1  A    between atoms: C_1  and  N_2
REMARK    2  A    between atoms: N_2  and  C_3
REMARK    3  A    between atoms: C_3  and  C_4
REMARK    4  A    between atoms: C_4  and  C_27
REMARK    5  A    between atoms: C_9  and  C_11
REMARK    6  A    between atoms: C_11  and  C_12
REMARK    7  A    between atoms: C_12  and  N_13
REMARK    8  A    between atoms: N_15  and  C_16
REMARK    9  A    between atoms: N_17  and  S_18
REMARK   10  A    between atoms: S_18  and  C_21
REMARK                            x       y       z     vdW  Elec       q    Type
REMARK                         _______ _______ _______ _____ _____    ______ ____
ROOT
ATOM      1  C   UNL     1       0.468  -2.421  -1.261  0.00  0.00    +0.044 C 
ATOM      2  C   UNL     1      -0.902  -3.087  -1.411  0.00  0.00    +0.018 C 
ATOM      3  C   UNL     1      -0.768  -4.590  -1.160  0.00  0.00    +0.001 C 
ATOM      4  C   UNL     1       0.206  -5.193  -2.174  0.00  0.00    +0.000 C 
ATOM      5  C   UNL     1       1.575  -4.527  -2.023  0.00  0.00    +0.005 C 
ATOM      6  C   UNL     1       1.442  -3.024  -2.275  0.00  0.00    +0.007 C 
ENDROOT
BRANCH   1   7
ATOM      7  C   UNL     1       0.988  -2.653   0.135  0.00  0.00    -0.019 A 
ATOM      8  C   UNL     1       2.229  -2.163   0.511  0.00  0.00    +0.007 A 
ATOM      9  C   UNL     1       2.667  -2.400   1.805  0.00  0.00    +0.018 A 
ATOM     10  C   UNL     1       1.858  -3.112   2.670  0.00  0.00    +0.082 A 
ATOM     11  N   UNL     1       0.684  -3.565   2.277  0.00  0.00    -0.367 N 
ATOM     12  C   UNL     1       0.232  -3.353   1.056  0.00  0.00    +0.087 A 
ATOM     13  H   UNL     1       0.135  -4.063   2.903  0.00  0.00    +0.165 HD
ENDBRANCH   1   7
BRANCH   1  14
ATOM     14  C   UNL     1       0.337  -0.941  -1.508  0.00  0.00    +0.059 C 
ATOM     15  S   UNL     1       0.820   0.102  -0.397  0.00  0.00    -0.039 S 
BRANCH  14  17
ATOM     16  C   UNL     1      -0.417   0.938  -2.864  0.00  0.00    +0.125 C 
ATOM     17  N   UNL     1      -0.188  -0.495  -2.667  0.00  0.00    -0.344 N 
ATOM     18  H   UNL     1      -0.413  -1.124  -3.371  0.00  0.00    +0.146 HD
ENDBRANCH  14  17
ENDBRANCH   1  14
BRANCH   6  19
ATOM     19  C   UNL     1       2.811  -2.359  -2.124  0.00  0.00    +0.026 C 
BRANCH  19  20
ATOM     20  C   UNL     1       3.712  -2.775  -3.289  0.00  0.00    +0.116 C 
BRANCH  20  21
ATOM     21  N   UNL     1       5.023  -2.138  -3.145  0.00  0.00    -0.355 N 
ATOM     22  C   UNL     1       6.005  -2.366  -4.080  0.00  0.00    +0.213 C 
ATOM     23  N   UNL     1       5.737  -3.059  -5.151  0.00  0.00    -0.254 NA
ATOM     24  C   UNL     1       6.807  -3.396  -6.093  0.00  0.00    +0.174 C 
ATOM     25  N   UNL     1       7.269  -1.862  -3.886  0.00  0.00    -0.226 N 
ATOM     26  H   UNL     1       5.199  -1.555  -2.390  0.00  0.00    +0.162 HD
ATOM     27  H   UNL     1       7.936  -1.941  -4.587  0.00  0.00    +0.191 HD
BRANCH  25  28
ATOM     28  S   UNL     1       7.655  -1.120  -2.457  0.00  0.00    +0.080 S 
ATOM     29  O   UNL     1       9.007  -0.699  -2.570  0.00  0.00    -0.148 OA
ATOM     30  O   UNL     1       6.596  -0.217  -2.170  0.00  0.00    -0.148 OA
BRANCH  28  31
ATOM     31  C   UNL     1       7.616  -2.356  -1.201  0.00  0.00    +0.110 A 
ATOM     32  C   UNL     1       6.426  -2.658  -0.565  0.00  0.00    +0.029 A 
ATOM     33  C   UNL     1       6.396  -3.628   0.420  0.00  0.00    +0.002 A 
ATOM     34  C   UNL     1       7.554  -4.296   0.768  0.00  0.00    +0.000 A 
ATOM     35  C   UNL     1       8.744  -3.995   0.131  0.00  0.00    +0.002 A 
ATOM     36  C   UNL     1       8.774  -3.028  -0.857  0.00  0.00    +0.029 A 
ENDBRANCH  28  31
ENDBRANCH  25  28
ENDBRANCH  20  21
ENDBRANCH  19  20
ENDBRANCH   6  19
TORSDOF 8
