REMARK  Name = ZINC19775770
REMARK  4 active torsions:
REMARK  status: ('A' for Active; 'I' for Inactive)
REMARK    1  A    between atoms: N_9  and  C_11
REMARK    2  A    between atoms: C_11  and  C_12
REMARK    3  A    between atoms: N_14  and  C_15
REMARK    4  A    between atoms: C_18  and  N_22
REMARK                            x       y       z     vdW  Elec       q    Type
REMARK                         _______ _______ _______ _____ _____    ______ ____
ROOT
ATOM      1  C   UNL     1      -2.029   4.976  -2.119  0.00  0.00    +0.201 C 
ATOM      2  O   UNL     1      -2.144   5.409  -0.992  0.00  0.00    -0.278 OA
ATOM      3  N   UNL     1      -2.402   5.730  -3.172  0.00  0.00    -0.286 N 
ATOM      4  H   UNL     1      -2.376   5.308  -4.188  0.00  0.00    +0.155 HD
ENDROOT
BRANCH   3   5
ATOM      5  C   UNL     1      -2.824   7.052  -2.974  0.00  0.00    +0.052 A 
ATOM      6  C   UNL     1      -3.407   7.421  -1.769  0.00  0.00    +0.026 A 
ATOM      7  C   UNL     1      -3.821   8.723  -1.572  0.00  0.00    +0.024 A 
ATOM      8  C   UNL     1      -3.656   9.665  -2.580  0.00  0.00    +0.026 A 
ATOM      9  C   UNL     1      -3.074   9.296  -3.786  0.00  0.00    +0.044 A 
ATOM     10  C   UNL     1      -2.654   7.994  -3.980  0.00  0.00    +0.064 A 
ATOM     11 CL   UNL     1      -1.918   7.535  -5.484  0.00  0.00    -0.082 Cl
BRANCH   8  12
ATOM     12  N   UNL     1      -4.076  10.984  -2.381  0.00  0.00    -0.358 N 
ATOM     13  H   UNL     1      -3.945  11.729  -3.179  0.00  0.00    +0.142 HD
ATOM     14  H   UNL     1      -4.537  11.276  -1.425  0.00  0.00    +0.142 HD
ENDBRANCH   8  12
ENDBRANCH   3   5
BRANCH   1  15
ATOM     15  C   UNL     1      -1.468   3.595  -2.342  0.00  0.00    +0.019 C 
BRANCH  15  24
ATOM     16  C   UNL     1       0.872   0.000   2.442  0.00  0.00    +0.000 A 
ATOM     17  C   UNL     1       0.406  -0.835   1.443  0.00  0.00    +0.000 A 
ATOM     18  C   UNL     1      -0.094  -0.298   0.279  0.00  0.00    +0.002 A 
ATOM     19  C   UNL     1      -0.131   1.077   0.098  0.00  0.00    -0.061 A 
ATOM     20  C   UNL     1       0.331   1.910   1.092  0.00  0.00    -0.048 A 
ATOM     21  C   UNL     1       0.834   1.369   2.266  0.00  0.00    +0.004 A 
ATOM     22  C   UNL     1       0.306   3.410   0.946  0.00  0.00    +0.017 C 
ATOM     23  C   UNL     1       0.123   3.786  -0.524  0.00  0.00    -0.073 C 
ATOM     24  N   UNL     1      -1.023   3.034  -1.060  0.00  0.00    +0.388 N 
ATOM     25  C   UNL     1      -0.680   1.615  -1.197  0.00  0.00    -0.042 C 
ATOM     26  H   UNL     1      -1.860   3.119  -0.350  0.00  0.00    -0.081 HD
ENDBRANCH  15  24
ENDBRANCH   1  15
TORSDOF 4
