REMARK  Name = ZINC38517731
REMARK  7 active torsions:
REMARK  status: ('A' for Active; 'I' for Inactive)
REMARK    1  A    between atoms: C_1  and  N_2
REMARK    2  A    between atoms: N_5  and  C_8
REMARK    3  A    between atoms: C_8  and  C_10
REMARK    4  A    between atoms: C_8  and  C_24
REMARK    5  A    between atoms: C_10  and  N_11
REMARK    6  A    between atoms: N_14  and  C_15
REMARK    7  A    between atoms: N_33  and  C_34
REMARK                            x       y       z     vdW  Elec       q    Type
REMARK                         _______ _______ _______ _____ _____    ______ ____
ROOT
ATOM      1  C   UNL     1       1.353  -3.932   0.066  0.00  0.00    +0.104 C 
ENDROOT
BRANCH   1   2
ATOM      2  C   UNL     1       2.116  -4.296   1.313  0.00  0.00    -0.028 A 
ATOM      3  C   UNL     1       1.868  -3.622   2.495  0.00  0.00    +0.007 A 
ATOM      4  C   UNL     1       2.568  -3.955   3.637  0.00  0.00    +0.024 A 
ATOM      5  C   UNL     1       3.520  -4.968   3.600  0.00  0.00    +0.033 A 
ATOM      6  C   UNL     1       3.765  -5.646   2.416  0.00  0.00    -0.026 A 
ATOM      7  C   UNL     1       3.056  -5.307   1.275  0.00  0.00    +0.010 A 
ATOM      8  C   UNL     1       4.780  -6.755   2.340  0.00  0.00    +0.038 C 
ATOM      9  C   UNL     1       5.776  -6.650   3.496  0.00  0.00    +0.024 C 
ATOM     10  C   UNL     1       4.997  -6.534   4.812  0.00  0.00    +0.105 C 
ATOM     11  N   UNL     1       4.222  -5.287   4.768  0.00  0.00    -0.333 N 
ATOM     12  C   UNL     1       4.185  -4.391   5.926  0.00  0.00    +0.129 C 
ENDBRANCH   1   2
BRANCH   1  17
ATOM     13  C   UNL     1       4.065   0.876  -1.062  0.00  0.00    -0.096 C 
ATOM     14  N   UNL     1       3.619  -0.411  -0.512  0.00  0.00    +0.379 N 
ATOM     15  C   UNL     1       2.251  -0.274   0.005  0.00  0.00    -0.064 C 
ATOM     16  C   UNL     1       1.793  -1.610   0.595  0.00  0.00    +0.066 C 
ATOM     17  N   UNL     1       1.840  -2.645  -0.448  0.00  0.00    -0.297 NA
ATOM     18  C   UNL     1       3.199  -2.775  -0.992  0.00  0.00    +0.066 C 
ATOM     19  C   UNL     1       3.646  -1.430  -1.569  0.00  0.00    -0.064 C 
ATOM     20  H   UNL     1       4.236  -0.688   0.238  0.00  0.00    -0.082 HD
ENDBRANCH   1  17
BRANCH   1  21
ATOM     21  C   UNL     1      -0.137  -3.819   0.394  0.00  0.00    +0.129 C 
BRANCH  21  22
ATOM     22  N   UNL     1      -0.867  -3.377  -0.797  0.00  0.00    -0.297 N 
ATOM     23  C   UNL     1      -2.212  -3.297  -0.772  0.00  0.00    +0.304 C 
ATOM     24  O   UNL     1      -2.820  -3.591   0.239  0.00  0.00    -0.253 OA
ATOM     25  N   UNL     1      -2.884  -2.890  -1.867  0.00  0.00    -0.269 N 
ATOM     26  H   UNL     1      -0.382  -3.142  -1.604  0.00  0.00    +0.150 HD
ATOM     27  H   UNL     1      -2.407  -2.730  -2.697  0.00  0.00    +0.156 HD
BRANCH  25  28
ATOM     28  C   UNL     1      -4.271  -2.698  -1.808  0.00  0.00    +0.038 A 
ATOM     29  C   UNL     1      -5.056  -2.963  -2.921  0.00  0.00    +0.027 A 
ATOM     30  C   UNL     1      -6.424  -2.775  -2.864  0.00  0.00    +0.051 A 
ATOM     31  C   UNL     1      -7.015  -2.322  -1.696  0.00  0.00    +0.166 A 
ATOM     32  C   UNL     1      -6.230  -2.055  -0.577  0.00  0.00    +0.168 A 
ATOM     33  C   UNL     1      -4.860  -2.249  -0.634  0.00  0.00    +0.073 A 
ATOM     34  O   UNL     1      -7.041  -1.626   0.433  0.00  0.00    -0.453 OA
ATOM     35  C   UNL     1      -8.275  -1.242  -0.201  0.00  0.00    +0.466 C 
ATOM     36  O   UNL     1      -8.319  -2.059  -1.386  0.00  0.00    -0.453 OA
ENDBRANCH  25  28
ENDBRANCH  21  22
ENDBRANCH   1  21
TORSDOF 5
