REMARK  Name = ZINC39711817
REMARK  10 active torsions:
REMARK  status: ('A' for Active; 'I' for Inactive)
REMARK    1  A    between atoms: C_1  and  C_2
REMARK    2  A    between atoms: C_2  and  C_3
REMARK    3  A    between atoms: C_8  and  C_12
REMARK    4  A    between atoms: C_12  and  C_14
REMARK    5  A    between atoms: C_14  and  S_15
REMARK    6  A    between atoms: S_15  and  C_16
REMARK    7  A    between atoms: C_20  and  C_27
REMARK    8  A    between atoms: N_22  and  C_23
REMARK    9  A    between atoms: C_23  and  C_24
REMARK   10  A    between atoms: C_31  and  C_33
REMARK                            x       y       z     vdW  Elec       q    Type
REMARK                         _______ _______ _______ _____ _____    ______ ____
ROOT
ATOM      1  C   UNL     1      -1.615  -2.379   9.613  0.00  0.00    +0.078 C 
ATOM      2  N   UNL     1      -2.723  -3.209   9.087  0.00  0.00    -0.262 NA
ATOM      3  N   UNL     1      -3.943  -2.500   9.501  0.00  0.00    -0.267 NA
ATOM      4  C   UNL     1      -3.571  -1.070   9.343  0.00  0.00    +0.050 C 
ATOM      5  N   UNL     1      -2.154  -1.012   9.776  0.00  0.00    +0.417 N 
ATOM      6  H   UNL     1      -2.694  -4.139   9.477  0.00  0.00    +0.140 HD
ATOM      7  H   UNL     1      -4.721  -2.739   8.905  0.00  0.00    +0.139 HD
ATOM      8  H   UNL     1      -2.099  -0.732  10.744  0.00  0.00    -0.074 HD
ENDROOT
BRANCH   4   9
ATOM      9  C   UNL     1      -4.430  -0.200  10.224  0.00  0.00    -0.046 A 
ATOM     10  C   UNL     1      -3.918   0.973  10.747  0.00  0.00    +0.003 A 
ATOM     11  C   UNL     1      -4.706   1.770  11.556  0.00  0.00    +0.001 A 
ATOM     12  C   UNL     1      -6.006   1.395  11.841  0.00  0.00    +0.003 A 
ATOM     13  C   UNL     1      -6.517   0.222  11.318  0.00  0.00    -0.050 A 
ATOM     14  C   UNL     1      -5.731  -0.573  10.506  0.00  0.00    +0.006 A 
ATOM     15  C   UNL     1      -7.934  -0.187  11.630  0.00  0.00    +0.044 C 
ENDBRANCH   4   9
BRANCH   1  16
ATOM     16  S   UNL     1      -0.235  -2.366   8.436  0.00  0.00    -0.152 S 
BRANCH  16  17
ATOM     17  C   UNL     1       0.582  -3.964   8.700  0.00  0.00    +0.148 C 
BRANCH  17  18
ATOM     18  C   UNL     1       1.757  -4.088   7.764  0.00  0.00    +0.171 C 
ATOM     19  O   UNL     1       2.018  -3.186   6.994  0.00  0.00    -0.291 OA
BRANCH  18  25
ATOM     20  C   UNL     1       5.364  -7.354   6.638  0.00  0.00    -0.024 A 
ATOM     21  C   UNL     1       5.922  -6.575   5.686  0.00  0.00    +0.005 A 
ATOM     22  C   UNL     1       5.405  -5.310   5.365  0.00  0.00    +0.001 A 
ATOM     23  C   UNL     1       4.320  -4.791   5.982  0.00  0.00    +0.010 A 
ATOM     24  C   UNL     1       3.658  -5.523   6.996  0.00  0.00    +0.006 A 
ATOM     25  C   UNL     1       2.553  -5.253   7.783  0.00  0.00    +0.024 C 
ATOM     26  C   UNL     1       2.379  -6.467   8.669  0.00  0.00    +0.152 C 
ATOM     27  N   UNL     1       3.455  -7.394   8.304  0.00  0.00    -0.380 N 
ATOM     28  C   UNL     1       4.175  -6.867   7.356  0.00  0.00    +0.046 A 
ATOM     29  H   UNL     1       3.604  -8.265   8.704  0.00  0.00    +0.160 HD
BRANCH  20  31
ATOM     30  C   UNL     1       5.209  -9.782   6.155  0.00  0.00    +0.009 C 
ATOM     31  C   UNL     1       5.947  -8.707   6.956  0.00  0.00    +0.034 C 
ENDBRANCH  20  31
ENDBRANCH  18  25
ENDBRANCH  17  18
ENDBRANCH  16  17
ENDBRANCH   1  16
BRANCH   5  32
ATOM     32  C   UNL     1      -1.406  -0.071   8.933  0.00  0.00    +0.055 C 
BRANCH  32  33
ATOM     33  C   UNL     1      -0.005   0.078   9.467  0.00  0.00    +0.340 C 
ATOM     34  O   UNL     1       0.339  -0.543  10.458  0.00  0.00    -0.249 OA
ATOM     35  O   UNL     1       0.785   0.819   8.907  0.00  0.00    -0.249 OA
ENDBRANCH  32  33
ENDBRANCH   5  32
TORSDOF 8
