REMARK  Name = ZINC59212178
REMARK  10 active torsions:
REMARK  status: ('A' for Active; 'I' for Inactive)
REMARK    1  A    between atoms: C_1  and  C_2
REMARK    2  A    between atoms: C_2  and  C_3
REMARK    3  A    between atoms: C_2  and  C_4
REMARK    4  A    between atoms: C_2  and  C_5
REMARK    5  A    between atoms: C_8  and  S_11
REMARK    6  A    between atoms: S_11  and  C_12
REMARK    7  A    between atoms: C_12  and  C_13
REMARK    8  A    between atoms: N_15  and  C_16
REMARK    9  A    between atoms: C_21  and  N_22
REMARK   10  A    between atoms: N_25  and  C_28
REMARK                            x       y       z     vdW  Elec       q    Type
REMARK                         _______ _______ _______ _____ _____    ______ ____
ROOT
ATOM      1  C   UNL     1       5.319  -1.672  -6.012  0.00  0.00    +0.227 C 
ATOM      2  O   UNL     1       4.825  -2.366  -6.876  0.00  0.00    -0.275 OA
ATOM      3  N   UNL     1       6.598  -1.264  -6.125  0.00  0.00    -0.283 N 
ATOM      4  H   UNL     1       6.969  -0.645  -5.476  0.00  0.00    +0.155 HD
ENDROOT
BRANCH   3   5
ATOM      5  C   UNL     1       7.394  -1.735  -7.178  0.00  0.00    +0.056 A 
ATOM      6  C   UNL     1       7.100  -2.949  -7.783  0.00  0.00    +0.025 A 
ATOM      7  C   UNL     1       7.886  -3.412  -8.821  0.00  0.00    +0.003 A 
ATOM      8  C   UNL     1       8.967  -2.669  -9.261  0.00  0.00    +0.022 A 
ATOM      9  C   UNL     1       9.267  -1.458  -8.664  0.00  0.00    +0.064 A 
ATOM     10  C   UNL     1       8.480  -0.983  -7.624  0.00  0.00    +0.070 A 
ATOM     11 CL   UNL     1      10.625  -0.530  -9.219  0.00  0.00    -0.082 Cl
BRANCH  10  12
ATOM     12  N   UNL     1       8.779   0.244  -7.021  0.00  0.00    -0.331 N 
ATOM     13  C   UNL     1       8.187   1.496  -7.520  0.00  0.00    +0.086 C 
ATOM     14  C   UNL     1       7.579   2.251  -6.334  0.00  0.00    -0.060 C 
ATOM     15  N   UNL     1       8.601   2.436  -5.296  0.00  0.00    +0.380 N 
ATOM     16  C   UNL     1       9.013   1.131  -4.763  0.00  0.00    -0.060 C 
ATOM     17  C   UNL     1       9.688   0.319  -5.868  0.00  0.00    +0.086 C 
ATOM     18  C   UNL     1       8.049   3.255  -4.208  0.00  0.00    -0.096 C 
ATOM     19  H   UNL     1       9.401   2.904  -5.693  0.00  0.00    -0.082 HD
ENDBRANCH  10  12
ENDBRANCH   3   5
BRANCH   1  20
ATOM     20  C   UNL     1       4.501  -1.266  -4.814  0.00  0.00    +0.170 C 
BRANCH  20  21
ATOM     21  S   UNL     1       2.834  -1.966  -4.954  0.00  0.00    -0.116 S 
BRANCH  21  25
ATOM     22  C   UNL     1       0.725  -0.534  -1.210  0.00  0.00    -0.042 A 
ATOM     23  C   UNL     1       0.050  -1.323  -2.123  0.00  0.00    +0.005 A 
ATOM     24  C   UNL     1       0.689  -1.762  -3.265  0.00  0.00    +0.015 A 
ATOM     25  C   UNL     1       2.013  -1.409  -3.497  0.00  0.00    +0.008 A 
ATOM     26  C   UNL     1       2.689  -0.615  -2.578  0.00  0.00    +0.015 A 
ATOM     27  C   UNL     1       2.041  -0.176  -1.440  0.00  0.00    +0.005 A 
BRANCH  22  29
ATOM     28  C   UNL     1       0.001   1.472   0.055  0.00  0.00    +0.015 C 
ATOM     29  C   UNL     1       0.024  -0.058   0.036  0.00  0.00    -0.013 C 
ATOM     30  C   UNL     1       0.769  -0.572   1.269  0.00  0.00    +0.015 C 
ATOM     31  C   UNL     1      -1.411  -0.590   0.049  0.00  0.00    +0.015 C 
ENDBRANCH  22  29
ENDBRANCH  21  25
ENDBRANCH  20  21
ENDBRANCH   1  20
TORSDOF 6
