REMARK  Name = ZINC09577143
REMARK  9 active torsions:
REMARK  status: ('A' for Active; 'I' for Inactive)
REMARK    1  A    between atoms: C_4  and  C_7
REMARK    2  A    between atoms: C_7  and  C_8
REMARK    3  A    between atoms: C_8  and  N_9
REMARK    4  A    between atoms: C_10  and  C_12
REMARK    5  A    between atoms: C_17  and  N_18
REMARK    6  A    between atoms: C_19  and  C_21
REMARK    7  A    between atoms: N_23  and  C_24
REMARK    8  A    between atoms: C_24  and  C_25
REMARK    9  A    between atoms: C_25  and  N_61
REMARK                            x       y       z     vdW  Elec       q    Type
REMARK                         _______ _______ _______ _____ _____    ______ ____
ROOT
ATOM      1  C   UNL     1      -4.923  -6.931   0.709  0.00  0.00    +0.058 A 
ATOM      2  C   UNL     1      -4.963  -8.324   0.612  0.00  0.00    +0.015 A 
ATOM      3  C   UNL     1      -3.799  -9.031   0.401  0.00  0.00    +0.001 A 
ATOM      4  C   UNL     1      -2.588  -8.368   0.283  0.00  0.00    +0.002 A 
ATOM      5  C   UNL     1      -2.534  -6.992   0.372  0.00  0.00    +0.024 A 
ATOM      6  C   UNL     1      -3.696  -6.262   0.590  0.00  0.00    +0.046 A 
ENDROOT
BRANCH   1   8
ATOM      7  N   UNL     1      -7.325  -6.817   1.159  0.00  0.00    -0.311 N 
ATOM      8  C   UNL     1      -6.165  -6.168   0.936  0.00  0.00    +0.246 C 
ATOM      9  O   UNL     1      -6.143  -4.952   0.921  0.00  0.00    -0.270 OA
ATOM     10  H   UNL     1      -7.343  -7.787   1.170  0.00  0.00    +0.149 HD
BRANCH   7  11
ATOM     11  C   UNL     1      -8.558  -6.059   1.383  0.00  0.00    +0.109 C 
BRANCH  11  12
ATOM     12  C   UNL     1      -9.719  -7.030   1.609  0.00  0.00    +0.054 C 
BRANCH  12  16
ATOM     13  C   UNL     1     -13.315  -4.819   2.265  0.00  0.00    +0.000 A 
ATOM     14  C   UNL     1     -12.954  -5.187   0.983  0.00  0.00    +0.000 A 
ATOM     15  C   UNL     1     -11.790  -5.902   0.770  0.00  0.00    +0.004 A 
ATOM     16  C   UNL     1     -10.988  -6.250   1.841  0.00  0.00    -0.046 A 
ATOM     17  C   UNL     1     -11.352  -5.887   3.124  0.00  0.00    +0.004 A 
ATOM     18  C   UNL     1     -12.513  -5.168   3.336  0.00  0.00    +0.000 A 
ENDBRANCH  12  16
ENDBRANCH  11  12
ENDBRANCH   7  11
ENDBRANCH   1   8
BRANCH   6  19
ATOM     19  N   UNL     1      -3.643  -4.875   0.685  0.00  0.00    -0.277 N 
ATOM     20  C   UNL     1      -2.768  -4.181  -0.070  0.00  0.00    +0.303 C 
ATOM     21  O   UNL     1      -1.973  -4.769  -0.772  0.00  0.00    -0.265 OA
ATOM     22  H   UNL     1      -4.235  -4.408   1.295  0.00  0.00    +0.155 HD
BRANCH  20  23
ATOM     23  C   UNL     1      -2.779  -2.688  -0.042  0.00  0.00    +0.299 C 
ATOM     24  O   UNL     1      -3.575  -2.100   0.661  0.00  0.00    -0.265 OA
ATOM     25  N   UNL     1      -1.904  -1.994  -0.797  0.00  0.00    -0.309 N 
ATOM     26  H   UNL     1      -1.268  -2.464  -1.358  0.00  0.00    +0.149 HD
BRANCH  25  27
ATOM     27  C   UNL     1      -1.915  -0.529  -0.769  0.00  0.00    +0.086 C 
BRANCH  27  28
ATOM     28  C   UNL     1      -0.832   0.006  -1.708  0.00  0.00    -0.060 C 
BRANCH  28  34
ATOM     29  C   UNL     1      -2.091   2.003  -2.243  0.00  0.00    -0.079 C 
ATOM     30  C   UNL     1      -2.130   3.523  -2.065  0.00  0.00    -0.019 C 
ATOM     31  C   UNL     1      -0.925   4.146  -2.776  0.00  0.00    -0.004 C 
ATOM     32  C   UNL     1       0.362   3.543  -2.206  0.00  0.00    -0.019 C 
ATOM     33  C   UNL     1       0.328   2.023  -2.379  0.00  0.00    -0.079 C 
ATOM     34  N   UNL     1      -0.840   1.483  -1.651  0.00  0.00    +0.381 N 
ATOM     35  H   UNL     1      -0.787   1.779  -0.670  0.00  0.00    -0.082 HD
ENDBRANCH  28  34
ENDBRANCH  27  28
ENDBRANCH  25  27
ENDBRANCH  20  23
ENDBRANCH   6  19
TORSDOF 9
