REMARK  Name = ZINC54991690
REMARK  9 active torsions:
REMARK  status: ('A' for Active; 'I' for Inactive)
REMARK    1  A    between atoms: C_3  and  S_23
REMARK    2  A    between atoms: C_6  and  O_7
REMARK    3  A    between atoms: O_7  and  C_8
REMARK    4  A    between atoms: C_8  and  C_9
REMARK    5  A    between atoms: C_9  and  N_10
REMARK    6  A    between atoms: C_14  and  C_15
REMARK    7  A    between atoms: N_17  and  C_18
REMARK    8  A    between atoms: C_18  and  C_19
REMARK    9  A    between atoms: S_23  and  N_26
REMARK                            x       y       z     vdW  Elec       q    Type
REMARK                         _______ _______ _______ _____ _____    ______ ____
ROOT
ATOM      1  C   UNL     1      -2.498  -2.681   0.040  0.00  0.00    -0.036 C 
ENDROOT
BRANCH   1   2
ATOM      2  N   UNL     1      -3.182  -2.351  -1.218  0.00  0.00    +0.389 N 
ATOM      3  C   UNL     1      -2.410  -2.887  -2.359  0.00  0.00    -0.078 C 
ATOM      4  C   UNL     1      -3.481  -3.340  -3.383  0.00  0.00    -0.020 C 
ATOM      5  C   UNL     1      -4.587  -3.903  -2.451  0.00  0.00    -0.008 C 
ATOM      6  C   UNL     1      -4.523  -2.963  -1.229  0.00  0.00    +0.019 C 
ATOM      7  H   UNL     1      -3.265  -1.349  -1.307  0.00  0.00    -0.081 HD
BRANCH   6   8
ATOM      8  C   UNL     1      -4.737  -3.752   0.037  0.00  0.00    +0.200 C 
ATOM      9  O   UNL     1      -3.964  -4.637   0.338  0.00  0.00    -0.278 OA
ATOM     10  N   UNL     1      -5.787  -3.474   0.835  0.00  0.00    -0.308 N 
ATOM     11  H   UNL     1      -6.405  -2.767   0.595  0.00  0.00    +0.149 HD
BRANCH  10  12
ATOM     12  C   UNL     1      -5.995  -4.242   2.066  0.00  0.00    +0.217 C 
BRANCH  12  13
ATOM     13  C   UNL     1      -7.247  -3.730   2.780  0.00  0.00    +0.405 C 
ATOM     14  F   UNL     1      -8.357  -3.882   1.943  0.00  0.00    -0.169 F 
ATOM     15  F   UNL     1      -7.445  -4.463   3.956  0.00  0.00    -0.169 F 
ATOM     16  F   UNL     1      -7.083  -2.377   3.097  0.00  0.00    -0.169 F 
ENDBRANCH  12  13
ENDBRANCH  10  12
ENDBRANCH   6   8
ENDBRANCH   1   2
BRANCH   1  17
ATOM     17  C   UNL     1      -1.183  -1.903   0.125  0.00  0.00    +0.210 C 
BRANCH  17  18
ATOM     18  O   UNL     1      -1.462  -0.503   0.202  0.00  0.00    -0.494 OA
BRANCH  18  24
ATOM     19  C   UNL     1      -0.593   1.705   0.362  0.00  0.00    +0.047 A 
ATOM     20  C   UNL     1       0.493   2.555   0.446  0.00  0.00    +0.032 A 
ATOM     21  C   UNL     1       1.776   2.040   0.451  0.00  0.00    +0.105 A 
ATOM     22  C   UNL     1       1.976   0.674   0.374  0.00  0.00    +0.032 A 
ATOM     23  C   UNL     1       0.893  -0.180   0.290  0.00  0.00    +0.047 A 
ATOM     24  C   UNL     1      -0.395   0.335   0.284  0.00  0.00    +0.121 A 
BRANCH  21  25
ATOM     25  S   UNL     1       3.159   3.127   0.557  0.00  0.00    +0.056 S 
ATOM     26  O   UNL     1       4.265   2.433  -0.005  0.00  0.00    -0.153 OA
ATOM     27  O   UNL     1       2.723   4.388   0.069  0.00  0.00    -0.153 OA
BRANCH  25  28
ATOM     28  N   UNL     1       3.498   3.333   2.165  0.00  0.00    -0.204 NA
ATOM     29  H   UNL     1       2.960   2.883   2.836  0.00  0.00    +0.144 HD
ATOM     30  H   UNL     1       4.234   3.903   2.437  0.00  0.00    +0.144 HD
ENDBRANCH  25  28
ENDBRANCH  21  25
ENDBRANCH  18  24
ENDBRANCH  17  18
ENDBRANCH   1  17
TORSDOF 9
