REMARK  Name = ZINC63789192
REMARK  8 active torsions:
REMARK  status: ('A' for Active; 'I' for Inactive)
REMARK    1  A    between atoms: C_1  and  N_2
REMARK    2  A    between atoms: C_6  and  S_7
REMARK    3  A    between atoms: S_7  and  C_8
REMARK    4  A    between atoms: C_8  and  C_9
REMARK    5  A    between atoms: C_12  and  C_15
REMARK    6  A    between atoms: N_17  and  N_18
REMARK    7  A    between atoms: C_19  and  C_21
REMARK    8  A    between atoms: C_21  and  C_22
REMARK                            x       y       z     vdW  Elec       q    Type
REMARK                         _______ _______ _______ _____ _____    ______ ____
ROOT
ATOM      1  C   UNL     1       9.366  -0.276  -0.096  0.00  0.00    +0.260 C 
ATOM      2  O   UNL     1       9.942  -0.114  -1.154  0.00  0.00    -0.269 OA
ATOM      3  N   UNL     1      10.031  -0.118   1.065  0.00  0.00    -0.230 N 
ATOM      4  H   UNL     1       9.571  -0.247   1.909  0.00  0.00    +0.173 HD
ENDROOT
BRANCH   1   8
ATOM      5  C   UNL     1       5.254  -1.341  -0.059  0.00  0.00    -0.037 A 
ATOM      6  C   UNL     1       5.907  -1.157  -1.265  0.00  0.00    +0.005 A 
ATOM      7  C   UNL     1       7.242  -0.811  -1.284  0.00  0.00    +0.013 A 
ATOM      8  C   UNL     1       7.934  -0.646  -0.083  0.00  0.00    +0.038 A 
ATOM      9  C   UNL     1       7.270  -0.833   1.130  0.00  0.00    +0.013 A 
ATOM     10  C   UNL     1       5.933  -1.174   1.135  0.00  0.00    +0.005 A 
BRANCH   5  11
ATOM     11  C   UNL     1       3.795  -1.719  -0.046  0.00  0.00    +0.112 C 
BRANCH  11  12
ATOM     12  S   UNL     1       2.781  -0.215  -0.028  0.00  0.00    -0.084 S 
BRANCH  12  18
ATOM     13  C   UNL     1      -0.018   1.461   0.010  0.00  0.00    +0.133 C 
ATOM     14  N   UNL     1       0.002  -0.004   0.002  0.00  0.00    -0.295 N 
ATOM     15  C   UNL     1      -1.166  -0.900   0.002  0.00  0.00    +0.230 C 
ATOM     16  N   UNL     1      -0.577  -2.250  -0.008  0.00  0.00    -0.249 N 
ATOM     17  N   UNL     1       0.811  -2.069  -0.013  0.00  0.00    -0.163 NA
ATOM     18  C   UNL     1       1.125  -0.818  -0.014  0.00  0.00    +0.175 C 
ATOM     19  H   UNL     1      -1.054  -3.095  -0.010  0.00  0.00    +0.170 HD
ENDBRANCH  12  18
ENDBRANCH  11  12
ENDBRANCH   5  11
ENDBRANCH   1   8
BRANCH   3  20
ATOM     20  N   UNL     1      11.387   0.234   1.052  0.00  0.00    -0.234 N 
ATOM     21  C   UNL     1      12.053   0.392   2.214  0.00  0.00    +0.233 C 
ATOM     22  O   UNL     1      11.478   0.230   3.269  0.00  0.00    -0.274 OA
ATOM     23  H   UNL     1      11.847   0.363   0.208  0.00  0.00    +0.173 HD
BRANCH  21  24
ATOM     24  C   UNL     1      13.512   0.769   2.200  0.00  0.00    +0.130 C 
BRANCH  24  25
ATOM     25  C   UNL     1      14.015   0.882   3.617  0.00  0.00    -0.033 C 
ATOM     26  C   UNL     1      14.646  -0.075   4.334  0.00  0.00    -0.001 A 
ATOM     27  C   UNL     1      15.038  -1.455   4.023  0.00  0.00    +0.010 A 
ATOM     28  C   UNL     1      15.672  -2.186   4.968  0.00  0.00    +0.001 A 
ATOM     29  C   UNL     1      15.963  -1.660   6.234  0.00  0.00    +0.002 A 
ATOM     30  C   UNL     1      15.635  -0.401   6.594  0.00  0.00    +0.026 A 
ATOM     31  C   UNL     1      14.966   0.457   5.678  0.00  0.00    +0.043 A 
ATOM     32  N   UNL     1      14.548   1.695   5.787  0.00  0.00    -0.380 N 
ATOM     33  C   UNL     1      13.921   2.090   4.521  0.00  0.00    +0.145 C 
ATOM     34  H   UNL     1      14.642   2.256   6.572  0.00  0.00    +0.160 HD
ENDBRANCH  24  25
ENDBRANCH  21  24
ENDBRANCH   3  20
TORSDOF 7
