REMARK  Name = ZINC13128505
REMARK  8 active torsions:
REMARK  status: ('A' for Active; 'I' for Inactive)
REMARK    1  A    between atoms: C_1  and  C_2
REMARK    2  A    between atoms: C_5  and  S_8
REMARK    3  A    between atoms: S_8  and  N_11
REMARK    4  A    between atoms: C_17  and  C_19
REMARK    5  A    between atoms: C_17  and  C_20
REMARK    6  A    between atoms: C_17  and  N_56
REMARK    7  A    between atoms: N_22  and  C_23
REMARK    8  A    between atoms: C_24  and  C_28
REMARK                            x       y       z     vdW  Elec       q    Type
REMARK                         _______ _______ _______ _____ _____    ______ ____
ROOT
ATOM      1  N   UNL     1      -0.739   1.582   1.226  0.00  0.00    -0.178 NA
ATOM      2  C   UNL     1      -0.013   1.086   0.008  0.00  0.00    +0.107 C 
ATOM      3  C   UNL     1      -0.744   1.583  -1.162  0.00  0.00    -0.001 C 
ATOM      4  C   UNL     1      -0.875   3.101  -1.216  0.00  0.00    -0.076 C 
ATOM      5  C   UNL     1      -1.860   3.827   0.881  0.00  0.00    -0.060 C 
ATOM      6  C   UNL     1      -0.728   2.989   1.516  0.00  0.00    +0.091 C 
ATOM      7  N   UNL     1      -2.119   3.374  -0.519  0.00  0.00    +0.388 N 
ATOM      8  H   UNL     1      -2.677   2.513  -0.489  0.00  0.00    -0.081 HD
ENDROOT
BRANCH   1   9
ATOM      9  S   UNL     1      -1.543   0.525   2.216  0.00  0.00    +0.061 S 
ATOM     10  O   UNL     1      -2.540   1.279   2.891  0.00  0.00    -0.153 OA
ATOM     11  O   UNL     1      -1.854  -0.614   1.425  0.00  0.00    -0.153 OA
BRANCH   9  16
ATOM     12  C   UNL     1       2.375  -1.312   6.420  0.00  0.00    +0.044 C 
ATOM     13  C   UNL     1       1.396  -0.853   5.370  0.00  0.00    -0.050 A 
ATOM     14  C   UNL     1       0.619   0.268   5.593  0.00  0.00    +0.005 A 
ATOM     15  C   UNL     1      -0.279   0.688   4.630  0.00  0.00    +0.029 A 
ATOM     16  C   UNL     1      -0.398  -0.011   3.443  0.00  0.00    +0.105 A 
ATOM     17  C   UNL     1       0.376  -1.135   3.223  0.00  0.00    +0.029 A 
ATOM     18  C   UNL     1       1.277  -1.553   4.184  0.00  0.00    +0.005 A 
ENDBRANCH   9  16
ENDBRANCH   1   9
BRANCH   7  19
ATOM     19  C   UNL     1      -2.878   4.417  -1.254  0.00  0.00    +0.016 C 
ATOM     20  C   UNL     1      -4.215   4.640  -0.544  0.00  0.00    -0.004 C 
BRANCH  19  21
ATOM     21  C   UNL     1      -3.130   3.940  -2.661  0.00  0.00    +0.204 C 
ATOM     22  O   UNL     1      -2.704   2.864  -3.022  0.00  0.00    -0.277 OA
ATOM     23  N   UNL     1      -3.828   4.710  -3.519  0.00  0.00    -0.281 N 
ATOM     24  H   UNL     1      -4.169   5.571  -3.230  0.00  0.00    +0.155 HD
BRANCH  23  25
ATOM     25  C   UNL     1      -4.060   4.272  -4.814  0.00  0.00    +0.084 A 
ATOM     26  C   UNL     1      -4.756   4.914  -5.831  0.00  0.00    +0.065 A 
ATOM     27  C   UNL     1      -4.841   4.223  -7.096  0.00  0.00    +0.022 A 
ATOM     28  C   UNL     1      -4.250   3.018  -7.178  0.00  0.00    +0.048 A 
ATOM     29  S   UNL     1      -3.559   2.789  -5.553  0.00  0.00    -0.081 S 
BRANCH  26  30
ATOM     30  C   UNL     1      -5.370   6.230  -5.631  0.00  0.00    +0.244 C 
ATOM     31  O   UNL     1      -5.277   6.787  -4.552  0.00  0.00    -0.270 OA
ATOM     32  N   UNL     1      -6.038   6.823  -6.640  0.00  0.00    -0.325 N 
ATOM     33  H   UNL     1      -6.112   6.379  -7.500  0.00  0.00    +0.145 HD
ATOM     34  H   UNL     1      -6.444   7.694  -6.508  0.00  0.00    +0.145 HD
ENDBRANCH  26  30
ENDBRANCH  23  25
ENDBRANCH  19  21
ENDBRANCH   7  19
TORSDOF 6
