REMARK  Name = ZINC12703680
REMARK  8 active torsions:
REMARK  status: ('A' for Active; 'I' for Inactive)
REMARK    1  A    between atoms: C_3  and  C_6
REMARK    2  A    between atoms: C_6  and  C_8
REMARK    3  A    between atoms: C_6  and  N_16
REMARK    4  A    between atoms: N_10  and  C_11
REMARK    5  A    between atoms: N_16  and  C_17
REMARK    6  A    between atoms: C_24  and  C_26
REMARK    7  A    between atoms: C_27  and  N_34
REMARK    8  A    between atoms: C_28  and  C_31
REMARK                            x       y       z     vdW  Elec       q    Type
REMARK                         _______ _______ _______ _____ _____    ______ ____
ROOT
ATOM      1  N   UNL     1      -1.510   2.291  -0.694  0.00  0.00    -0.248 N 
ATOM      2  C   UNL     1      -1.331   2.268  -2.029  0.00  0.00    +0.262 C 
ATOM      3  O   UNL     1      -0.208   2.178  -2.491  0.00  0.00    -0.269 OA
ENDROOT
BRANCH   1   4
ATOM      4  C   UNL     1      -2.796   2.435  -0.163  0.00  0.00    +0.038 A 
ATOM      5  C   UNL     1      -3.405   3.684  -0.145  0.00  0.00    +0.025 A 
ATOM      6  C   UNL     1      -4.677   3.823   0.375  0.00  0.00    +0.022 A 
ATOM      7  C   UNL     1      -5.340   2.722   0.887  0.00  0.00    +0.041 A 
ATOM      8  C   UNL     1      -4.734   1.478   0.875  0.00  0.00    +0.022 A 
ATOM      9  C   UNL     1      -3.465   1.332   0.352  0.00  0.00    +0.025 A 
ATOM     10 CL   UNL     1      -6.937   2.901   1.546  0.00  0.00    -0.084 Cl
ENDBRANCH   1   4
BRANCH   2  11
ATOM     11  C   UNL     1      -2.486   2.351  -2.924  0.00  0.00    +0.116 A 
ATOM     12  C   UNL     1      -2.521   2.460  -4.316  0.00  0.00    +0.076 A 
ATOM     13  C   UNL     1      -3.823   2.510  -4.815  0.00  0.00    +0.155 A 
ATOM     14  N   UNL     1      -4.835   2.463  -3.977  0.00  0.00    -0.203 NA
ATOM     15  S   UNL     1      -4.222   2.347  -2.530  0.00  0.00    +0.019 S 
BRANCH  13  16
ATOM     16  C   UNL     1      -4.061   2.620  -6.266  0.00  0.00    +0.262 C 
ATOM     17  O   UNL     1      -3.120   2.664  -7.035  0.00  0.00    -0.269 OA
ATOM     18  N   UNL     1      -5.322   2.673  -6.740  0.00  0.00    -0.324 N 
ATOM     19  H   UNL     1      -6.072   2.639  -6.126  0.00  0.00    +0.145 HD
ATOM     20  H   UNL     1      -5.478   2.746  -7.694  0.00  0.00    +0.145 HD
ENDBRANCH  13  16
BRANCH  12  21
ATOM     21  N   UNL     1      -1.387   2.511  -5.115  0.00  0.00    -0.355 N 
ATOM     22  H   UNL     1      -0.506   2.470  -4.710  0.00  0.00    +0.142 HD
ATOM     23  H   UNL     1      -1.474   2.587  -6.078  0.00  0.00    +0.142 HD
ENDBRANCH  12  21
ENDBRANCH   2  11
BRANCH   1  24
ATOM     24  C   UNL     1      -0.358   2.164   0.203  0.00  0.00    +0.233 C 
BRANCH  24  27
ATOM     25  C   UNL     1       0.228   4.931   2.566  0.00  0.00    +0.041 A 
ATOM     26  C   UNL     1       0.700   3.970   1.642  0.00  0.00    +0.047 A 
ATOM     27  C   UNL     1      -0.375   3.289   1.205  0.00  0.00    +0.135 A 
ATOM     28  O   UNL     1      -1.466   3.779   1.818  0.00  0.00    -0.465 OA
ATOM     29  C   UNL     1      -1.106   4.774   2.644  0.00  0.00    +0.195 A 
ENDBRANCH  24  27
BRANCH  24  30
ATOM     30  C   UNL     1      -0.428   0.845   0.927  0.00  0.00    +0.242 C 
ATOM     31  O   UNL     1      -0.952  -0.112   0.396  0.00  0.00    -0.273 OA
ATOM     32  N   UNL     1       0.092   0.727   2.165  0.00  0.00    -0.311 N 
ATOM     33  H   UNL     1       0.511   1.492   2.590  0.00  0.00    +0.149 HD
BRANCH  32  34
ATOM     34  C   UNL     1       0.024  -0.555   2.870  0.00  0.00    +0.073 C 
ATOM     35  C   UNL     1      -1.301  -0.659   3.652  0.00  0.00    +0.022 C 
ATOM     36  C   UNL     1      -0.914  -1.395   4.959  0.00  0.00    +0.002 C 
ATOM     37  C   UNL     1       0.479  -0.803   5.285  0.00  0.00    +0.002 C 
ATOM     38  C   UNL     1       1.156  -0.647   3.908  0.00  0.00    +0.022 C 
ENDBRANCH  32  34
ENDBRANCH  24  30
ENDBRANCH   1  24
TORSDOF 8
