REMARK  Name = ZINC21316359
REMARK  7 active torsions:
REMARK  status: ('A' for Active; 'I' for Inactive)
REMARK    1  A    between atoms: C_3  and  C_9
REMARK    2  A    between atoms: N_10  and  N_11
REMARK    3  A    between atoms: C_15  and  S_18
REMARK    4  A    between atoms: N_16  and  N_17
REMARK    5  A    between atoms: S_18  and  C_19
REMARK    6  A    between atoms: C_19  and  C_20
REMARK    7  A    between atoms: N_22  and  C_23
REMARK                            x       y       z     vdW  Elec       q    Type
REMARK                         _______ _______ _______ _____ _____    ______ ____
ROOT
ATOM      1  N   UNL     1      -3.757   5.854   0.133  0.00  0.00    -0.204 N 
ATOM      2  C   UNL     1      -3.771   7.241   0.131  0.00  0.00    +0.254 A 
ATOM      3  N   UNL     1      -2.718   8.022   0.129  0.00  0.00    -0.109 NA
ATOM      4  N   UNL     1      -3.164   9.350   0.123  0.00  0.00    -0.119 NA
ATOM      5  C   UNL     1      -4.476   9.337   0.131  0.00  0.00    +0.210 A 
ATOM      6  N   UNL     1      -4.885   8.034   0.136  0.00  0.00    -0.211 N 
ATOM      7  H   UNL     1      -4.704   5.294   0.140  0.00  0.00    +0.177 HD
ENDROOT
BRANCH   6   8
ATOM      8  N   UNL     1      -6.180   7.598   0.144  0.00  0.00    -0.294 N 
ATOM      9  H   UNL     1      -7.005   8.326   0.148  0.00  0.00    +0.163 HD
ATOM     10  H   UNL     1      -6.398   6.520   0.148  0.00  0.00    +0.163 HD
ENDBRANCH   6   8
BRANCH   1  12
ATOM     11  C   UNL     1      -2.524   3.867   0.129  0.00  0.00    +0.139 C 
ATOM     12  N   UNL     1      -2.537   5.165   0.127  0.00  0.00    -0.187 NA
BRANCH  11  15
ATOM     13  C   UNL     1      -0.017   1.074   0.119  0.00  0.00    +0.002 A 
ATOM     14  C   UNL     1      -1.222   1.746   0.120  0.00  0.00    +0.011 A 
ATOM     15  C   UNL     1      -1.240   3.143   0.123  0.00  0.00    +0.014 A 
ATOM     16  C   UNL     1      -0.034   3.850   0.115  0.00  0.00    +0.068 A 
ATOM     17  C   UNL     1       1.165   3.164   0.109  0.00  0.00    +0.060 A 
ATOM     18  C   UNL     1       1.173   1.779   0.111  0.00  0.00    +0.021 A 
ATOM     19 CL   UNL     1       2.664   4.039   0.098  0.00  0.00    -0.082 Cl
ATOM     20 CL   UNL     1      -0.043   5.586   0.112  0.00  0.00    -0.081 Cl
ENDBRANCH  11  15
ENDBRANCH   1  12
BRANCH   5  21
ATOM     21  S   UNL     1      -5.526  10.752   0.136  0.00  0.00    -0.075 S 
BRANCH  21  22
ATOM     22  C   UNL     1      -4.374  12.153   0.126  0.00  0.00    +0.173 C 
BRANCH  22  23
ATOM     23  C   UNL     1      -5.153  13.443   0.129  0.00  0.00    +0.228 C 
ATOM     24  O   UNL     1      -6.366  13.420   0.136  0.00  0.00    -0.275 OA
ATOM     25  N   UNL     1      -4.502  14.623   0.123  0.00  0.00    -0.284 N 
ATOM     26  H   UNL     1      -3.404  14.646   0.190  0.00  0.00    +0.155 HD
BRANCH  25  27
ATOM     27  C   UNL     1      -5.222  15.820   0.030  0.00  0.00    +0.053 A 
ATOM     28  C   UNL     1      -6.468  15.930   0.634  0.00  0.00    +0.025 A 
ATOM     29  C   UNL     1      -7.177  17.112   0.542  0.00  0.00    +0.003 A 
ATOM     30  C   UNL     1      -6.649  18.186  -0.150  0.00  0.00    +0.021 A 
ATOM     31  C   UNL     1      -5.408  18.081  -0.754  0.00  0.00    +0.061 A 
ATOM     32  C   UNL     1      -4.690  16.901  -0.660  0.00  0.00    +0.080 A 
ATOM     33 CL   UNL     1      -3.131  16.771  -1.411  0.00  0.00    -0.080 Cl
ATOM     34 CL   UNL     1      -4.748  19.431  -1.623  0.00  0.00    -0.082 Cl
ENDBRANCH  25  27
ENDBRANCH  22  23
ENDBRANCH  21  22
ENDBRANCH   5  21
TORSDOF 7
