REMARK  Name = ZINC51996906
REMARK  9 active torsions:
REMARK  status: ('A' for Active; 'I' for Inactive)
REMARK    1  A    between atoms: C_1  and  C_2
REMARK    2  A    between atoms: C_2  and  O_3
REMARK    3  A    between atoms: O_3  and  C_4
REMARK    4  A    between atoms: C_5  and  O_22
REMARK    5  A    between atoms: C_7  and  C_11
REMARK    6  A    between atoms: C_11  and  N_12
REMARK    7  A    between atoms: N_12  and  C_13
REMARK    8  A    between atoms: C_19  and  O_21
REMARK    9  A    between atoms: O_22  and  C_23
REMARK                            x       y       z     vdW  Elec       q    Type
REMARK                         _______ _______ _______ _____ _____    ______ ____
ROOT
ATOM      1  C   UNL     1      -1.498  -1.849   0.006  0.00  0.00    +0.176 A 
ATOM      2  C   UNL     1      -1.586  -2.536  -1.201  0.00  0.00    +0.163 A 
ATOM      3  C   UNL     1      -1.749  -3.912  -1.201  0.00  0.00    +0.051 A 
ATOM      4  C   UNL     1      -1.824  -4.600  -0.004  0.00  0.00    -0.060 A 
ATOM      5  C   UNL     1      -1.738  -3.919   1.195  0.00  0.00    +0.021 A 
ATOM      6  C   UNL     1      -1.569  -2.546   1.203  0.00  0.00    +0.063 A 
ATOM      7 BR   UNL     1      -1.442  -1.618   2.846  0.00  0.00    -0.046 Br
ENDROOT
BRANCH   2   8
ATOM      8  O   UNL     1      -1.513  -1.858  -2.377  0.00  0.00    -0.491 OA
ATOM      9  C   UNL     1      -1.610  -2.628  -3.577  0.00  0.00    +0.277 C 
ENDBRANCH   2   8
BRANCH   1  10
ATOM     10  O   UNL     1      -1.339  -0.499   0.012  0.00  0.00    -0.487 OA
BRANCH  10  12
ATOM     11  C   UNL     1      -0.019   1.526   0.010  0.00  0.00    +0.048 C 
ATOM     12  C   UNL     1       0.002  -0.004   0.002  0.00  0.00    +0.226 C 
ENDBRANCH  10  12
ENDBRANCH   1  10
BRANCH   4  13
ATOM     13  C   UNL     1      -2.001  -6.097  -0.008  0.00  0.00    -0.046 C 
BRANCH  13  14
ATOM     14  N   UNL     1      -0.684  -6.746  -0.016  0.00  0.00    +0.385 N 
ATOM     15  H   UNL     1      -0.176  -6.466  -0.842  0.00  0.00    -0.085 HD
ATOM     16  H   UNL     1      -0.168  -6.470   0.806  0.00  0.00    -0.085 HD
BRANCH  14  17
ATOM     17  C   UNL     1      -0.856  -8.205  -0.019  0.00  0.00    -0.042 C 
ATOM     18  C   UNL     1      -1.528  -8.636  -1.324  0.00  0.00    -0.013 C 
ATOM     19  C   UNL     1      -1.708 -10.155  -1.328  0.00  0.00    -0.001 C 
ATOM     20  C   UNL     1      -0.341 -10.831  -1.211  0.00  0.00    +0.002 C 
ATOM     21  C   UNL     1       0.331 -10.400   0.095  0.00  0.00    +0.030 C 
ATOM     22  C   UNL     1       0.511  -8.880   0.098  0.00  0.00    +0.101 C 
BRANCH  22  23
ATOM     23  O   UNL     1       1.329  -8.495  -1.009  0.00  0.00    -0.393 OA
ATOM     24  H   UNL     1       2.213  -8.887  -1.000  0.00  0.00    +0.210 HD
ENDBRANCH  22  23
ENDBRANCH  14  17
ENDBRANCH  13  14
ENDBRANCH   4  13
TORSDOF 7
