REMARK  Name = ZINC48086079
REMARK  4 active torsions:
REMARK  status: ('A' for Active; 'I' for Inactive)
REMARK    1  A    between atoms: C_6  and  N_7
REMARK    2  A    between atoms: C_8  and  C_10
REMARK    3  A    between atoms: C_10  and  N_11
REMARK    4  A    between atoms: N_14  and  C_15
REMARK                            x       y       z     vdW  Elec       q    Type
REMARK                         _______ _______ _______ _____ _____    ______ ____
ROOT
ATOM      1  N   UNL     1      -2.217  -4.273  -0.160  0.00  0.00    -0.291 N 
ATOM      2  C   UNL     1      -3.221  -5.167  -0.259  0.00  0.00    +0.304 C 
ATOM      3  O   UNL     1      -4.373  -4.805  -0.116  0.00  0.00    -0.252 OA
ATOM      4  N   UNL     1      -2.947  -6.461  -0.516  0.00  0.00    -0.268 N 
ATOM      5  H   UNL     1      -1.298  -4.561  -0.274  0.00  0.00    +0.151 HD
ATOM      6  H   UNL     1      -2.027  -6.764  -0.552  0.00  0.00    +0.156 HD
ENDROOT
BRANCH   4   7
ATOM      7  C   UNL     1      -3.994  -7.369  -0.730  0.00  0.00    +0.051 A 
ATOM      8  C   UNL     1      -5.172  -6.955  -1.350  0.00  0.00    +0.028 A 
ATOM      9  C   UNL     1      -6.178  -7.884  -1.542  0.00  0.00    +0.043 A 
ATOM     10  C   UNL     1      -5.982  -9.193  -1.113  0.00  0.00    +0.099 A 
ATOM     11  N   UNL     1      -4.850  -9.551  -0.528  0.00  0.00    -0.348 N 
ATOM     12  C   UNL     1      -3.868  -8.692  -0.335  0.00  0.00    +0.107 A 
ATOM     13  N   UNL     1      -6.988 -10.137  -1.302  0.00  0.00    -0.317 N 
ATOM     14  C   UNL     1      -8.289  -9.887  -1.939  0.00  0.00    +0.106 C 
ATOM     15  C   UNL     1      -9.080 -11.211  -1.901  0.00  0.00    +0.020 C 
ATOM     16  C   UNL     1      -8.403 -11.988  -0.741  0.00  0.00    +0.020 C 
ATOM     17  C   UNL     1      -6.922 -11.554  -0.902  0.00  0.00    +0.106 C 
ATOM     18  H   UNL     1      -4.738 -10.470  -0.239  0.00  0.00    +0.167 HD
ENDBRANCH   4   7
BRANCH   1  19
ATOM     19  C   UNL     1      -2.514  -2.865   0.119  0.00  0.00    +0.202 C 
BRANCH  19  21
ATOM     20  N   UNL     1      -1.256  -0.758   0.425  0.00  0.00    -0.284 N 
ATOM     21  C   UNL     1      -1.228  -2.083   0.179  0.00  0.00    +0.234 C 
ATOM     22  O   UNL     1      -0.167  -2.645   0.005  0.00  0.00    -0.274 OA
ATOM     23  H   UNL     1      -2.096  -0.321   0.634  0.00  0.00    +0.155 HD
BRANCH  20  29
ATOM     24  C   UNL     1       0.928  -0.350  -0.524  0.00  0.00    +0.026 A 
ATOM     25  C   UNL     1       2.096   0.387  -0.569  0.00  0.00    +0.043 A 
ATOM     26  C   UNL     1       2.271   1.462   0.285  0.00  0.00    +0.159 A 
ATOM     27  C   UNL     1       1.274   1.802   1.188  0.00  0.00    +0.160 A 
ATOM     28  C   UNL     1       0.104   1.067   1.235  0.00  0.00    +0.064 A 
ATOM     29  C   UNL     1      -0.072  -0.012   0.379  0.00  0.00    +0.036 A 
ATOM     30  F   UNL     1       1.447   2.852   2.021  0.00  0.00    -0.202 F 
ATOM     31  F   UNL     1       3.414   2.180   0.239  0.00  0.00    -0.202 F 
ENDBRANCH  20  29
ENDBRANCH  19  21
ENDBRANCH   1  19
TORSDOF 4
