REMARK  Name = ZINC61454928
REMARK  7 active torsions:
REMARK  status: ('A' for Active; 'I' for Inactive)
REMARK    1  A    between atoms: C_1  and  N_2
REMARK    2  A    between atoms: N_2  and  C_3
REMARK    3  A    between atoms: N_2  and  C_8
REMARK    4  A    between atoms: C_3  and  C_4
REMARK    5  A    between atoms: C_8  and  C_10
REMARK    6  A    between atoms: C_8  and  C_12
REMARK    7  A    between atoms: C_10  and  N_11
REMARK                            x       y       z     vdW  Elec       q    Type
REMARK                         _______ _______ _______ _____ _____    ______ ____
ROOT
ATOM      1  C   UNL     1      -1.379  -0.499   0.157  0.00  0.00    +0.069 C 
ENDROOT
BRANCH   1   2
ATOM      2  C   UNL     1      -2.062  -0.116  -1.131  0.00  0.00    -0.027 A 
ATOM      3  C   UNL     1      -3.381   0.298  -1.116  0.00  0.00    +0.054 A 
ATOM      4  C   UNL     1      -4.012   0.652  -2.299  0.00  0.00    +0.163 A 
ATOM      5  C   UNL     1      -3.314   0.592  -3.499  0.00  0.00    +0.176 A 
ATOM      6  C   UNL     1      -1.991   0.175  -3.508  0.00  0.00    +0.063 A 
ATOM      7  C   UNL     1      -1.367  -0.172  -2.324  0.00  0.00    +0.024 A 
ATOM      8 BR   UNL     1      -1.039   0.087  -5.139  0.00  0.00    -0.046 Br
ATOM      9  O   UNL     1      -3.912   0.942  -4.671  0.00  0.00    -0.484 OA
ATOM     10  C   UNL     1      -5.343   0.997  -4.672  0.00  0.00    +0.270 C 
ATOM     11  C   UNL     1      -5.796   1.756  -3.418  0.00  0.00    +0.270 C 
ATOM     12  O   UNL     1      -5.312   1.053  -2.269  0.00  0.00    -0.485 OA
ENDBRANCH   1   2
BRANCH   1  14
ATOM     13  C   UNL     1       0.018   1.464  -0.083  0.00  0.00    +0.105 C 
ATOM     14  N   UNL     1      -0.003   0.014   0.153  0.00  0.00    -0.300 NA
BRANCH  14  15
ATOM     15  C   UNL     1       0.689  -0.326   1.403  0.00  0.00    +0.088 C 
BRANCH  15  16
ATOM     16  C   UNL     1       2.179  -0.007   1.264  0.00  0.00    +0.003 C 
ATOM     17  C   UNL     1       3.003  -1.161   0.668  0.00  0.00    +0.005 C 
ATOM     18  C   UNL     1       4.096  -0.804   1.689  0.00  0.00    +0.001 C 
ATOM     19  C   UNL     1       2.977  -0.213   2.563  0.00  0.00    +0.005 C 
ENDBRANCH  15  16
ENDBRANCH  14  15
ENDBRANCH   1  14
BRANCH   1  20
ATOM     20  C   UNL     1      -1.355  -2.023   0.287  0.00  0.00    -0.063 C 
BRANCH  20  21
ATOM     21  N   UNL     1      -2.731  -2.527   0.397  0.00  0.00    +0.379 N 
ATOM     22  H   UNL     1      -2.718  -3.535   0.430  0.00  0.00    -0.090 HD
ATOM     23  H   UNL     1      -3.154  -2.169   1.240  0.00  0.00    -0.090 HD
ATOM     24  H   UNL     1      -3.265  -2.223  -0.403  0.00  0.00    -0.090 HD
ENDBRANCH  20  21
ENDBRANCH   1  20
TORSDOF 6
