REMARK  Name = ZINC39623297
REMARK  8 active torsions:
REMARK  status: ('A' for Active; 'I' for Inactive)
REMARK    1  A    between atoms: C_1  and  C_2
REMARK    2  A    between atoms: C_2  and  C_3
REMARK    3  A    between atoms: C_3  and  C_4
REMARK    4  A    between atoms: C_4  and  C_5
REMARK    5  A    between atoms: C_5  and  N_6
REMARK    6  A    between atoms: C_7  and  C_9
REMARK    7  A    between atoms: C_20  and  C_22
REMARK    8  A    between atoms: C_25  and  C_28
REMARK                            x       y       z     vdW  Elec       q    Type
REMARK                         _______ _______ _______ _____ _____    ______ ____
ROOT
ATOM      1  C   UNL     1       1.973  -6.799  -3.328  0.00  0.00    +0.100 C 
ATOM      2  C   UNL     1       0.446  -7.024  -3.381  0.00  0.00    +0.121 C 
ATOM      3  N   UNL     1       0.143  -7.205  -4.820  0.00  0.00    -0.296 N 
ATOM      4  C   UNL     1       1.274  -8.014  -5.335  0.00  0.00    +0.115 C 
ATOM      5  C   UNL     1       2.514  -7.453  -4.611  0.00  0.00    -0.004 C 
ATOM      6  C   UNL     1       3.207  -6.411  -5.483  0.00  0.00    -0.010 C 
ATOM      7  C   UNL     1       3.785  -7.095  -6.725  0.00  0.00    -0.082 C 
ATOM      8  N   UNL     1       4.740  -8.132  -6.314  0.00  0.00    +0.379 N 
ATOM      9  C   UNL     1       4.046  -9.178  -5.554  0.00  0.00    -0.082 C 
ATOM     10  C   UNL     1       3.478  -8.582  -4.263  0.00  0.00    -0.010 C 
ATOM     11  C   UNL     1      -0.919  -6.739  -5.506  0.00  0.00    +0.247 C 
ATOM     12  O   UNL     1      -1.703  -5.981  -4.971  0.00  0.00    -0.270 OA
ATOM     13  H   UNL     1       5.164  -8.540  -7.134  0.00  0.00    -0.086 HD
ATOM     14  H   UNL     1       5.457  -7.718  -5.738  0.00  0.00    -0.086 HD
ENDROOT
BRANCH  11  15
ATOM     15  C   UNL     1      -1.131  -7.151  -6.910  0.00  0.00    +0.037 A 
ATOM     16  C   UNL     1      -0.530  -8.313  -7.398  0.00  0.00    +0.013 A 
ATOM     17  C   UNL     1      -0.732  -8.692  -8.709  0.00  0.00    +0.004 A 
ATOM     18  C   UNL     1      -1.528  -7.923  -9.540  0.00  0.00    -0.050 A 
ATOM     19  C   UNL     1      -2.126  -6.770  -9.063  0.00  0.00    +0.004 A 
ATOM     20  C   UNL     1      -1.937  -6.383  -7.752  0.00  0.00    +0.013 A 
ATOM     21  C   UNL     1      -1.744  -8.343 -10.971  0.00  0.00    +0.044 C 
ENDBRANCH  11  15
BRANCH   1  23
ATOM     22  N   UNL     1       3.455  -4.887  -2.810  0.00  0.00    -0.315 N 
ATOM     23  C   UNL     1       2.286  -5.325  -3.318  0.00  0.00    +0.218 C 
ATOM     24  O   UNL     1       1.486  -4.532  -3.768  0.00  0.00    -0.275 OA
ATOM     25  H   UNL     1       4.095  -5.521  -2.450  0.00  0.00    +0.149 HD
BRANCH  22  26
ATOM     26  C   UNL     1       3.760  -3.454  -2.800  0.00  0.00    +0.104 C 
BRANCH  26  27
ATOM     27  C   UNL     1       5.137  -3.230  -2.174  0.00  0.00    +0.019 C 
BRANCH  27  28
ATOM     28  C   UNL     1       5.455  -1.733  -2.164  0.00  0.00    +0.001 C 
BRANCH  28  30
ATOM     29  C   UNL     1       7.151  -0.012  -1.529  0.00  0.00    +0.004 C 
ATOM     30  C   UNL     1       6.833  -1.508  -1.538  0.00  0.00    -0.003 C 
ENDBRANCH  28  30
ENDBRANCH  27  28
ENDBRANCH  26  27
ENDBRANCH  22  26
ENDBRANCH   1  23
TORSDOF 6
