REMARK  Name = ZINC20347885
REMARK  11 active torsions:
REMARK  status: ('A' for Active; 'I' for Inactive)
REMARK    1  A    between atoms: C_1  and  C_2
REMARK    2  A    between atoms: C_5  and  N_8
REMARK    3  A    between atoms: C_9  and  C_11
REMARK    4  A    between atoms: C_11  and  S_12
REMARK    5  A    between atoms: S_12  and  C_13
REMARK    6  A    between atoms: C_14  and  C_36
REMARK    7  A    between atoms: C_15  and  C_31
REMARK    8  A    between atoms: C_17  and  C_21
REMARK    9  A    between atoms: C_18  and  C_20
REMARK   10  A    between atoms: N_23  and  C_24
REMARK   11  A    between atoms: C_28  and  C_30
REMARK                            x       y       z     vdW  Elec       q    Type
REMARK                         _______ _______ _______ _____ _____    ______ ____
ROOT
ATOM      1  C   UNL     1      -1.399   0.753   3.087  0.00  0.00    +0.080 C 
ATOM      2  C   UNL     1      -1.929   1.992   2.902  0.00  0.00    +0.072 C 
ATOM      3  C   UNL     1      -1.621   2.796   1.671  0.00  0.00    +0.134 C 
ATOM      4  C   UNL     1      -0.420   2.243   0.960  0.00  0.00    +0.047 C 
ATOM      5  C   UNL     1       0.044   1.008   1.212  0.00  0.00    +0.015 C 
ATOM      6  N   UNL     1      -0.555   0.207   2.146  0.00  0.00    -0.312 N 
ATOM      7  C   UNL     1       1.246   0.499   0.459  0.00  0.00    +0.061 C 
ATOM      8  H   UNL     1      -0.360  -0.876   2.144  0.00  0.00    +0.152 HD
ENDROOT
BRANCH   3   9
ATOM      9  C   UNL     1      -1.345   4.223   2.068  0.00  0.00    +0.118 A 
ATOM     10  C   UNL     1      -2.083   5.293   1.720  0.00  0.00    +0.045 A 
ATOM     11  C   UNL     1      -1.469   6.423   2.307  0.00  0.00    +0.041 A 
ATOM     12  C   UNL     1      -0.388   5.977   2.972  0.00  0.00    +0.195 A 
ATOM     13  O   UNL     1      -0.318   4.644   2.824  0.00  0.00    -0.467 OA
ENDBRANCH   3   9
BRANCH   4  14
ATOM     14  C   UNL     1       0.240   3.043  -0.004  0.00  0.00    +0.247 C 
ATOM     15  O   UNL     1      -0.223   3.150  -1.125  0.00  0.00    -0.270 OA
ATOM     16  N   UNL     1       1.379   3.686   0.320  0.00  0.00    -0.282 N 
ATOM     17  H   UNL     1       1.862   3.496   1.290  0.00  0.00    +0.155 HD
BRANCH  16  18
ATOM     18  C   UNL     1       1.948   4.595  -0.578  0.00  0.00    +0.034 A 
ATOM     19  C   UNL     1       1.134   5.343  -1.420  0.00  0.00    +0.023 A 
ATOM     20  C   UNL     1       1.699   6.240  -2.305  0.00  0.00    +0.002 A 
ATOM     21  C   UNL     1       3.072   6.395  -2.353  0.00  0.00    +0.003 A 
ATOM     22  C   UNL     1       3.885   5.653  -1.515  0.00  0.00    -0.049 A 
ATOM     23  C   UNL     1       3.326   4.758  -0.624  0.00  0.00    +0.026 A 
ATOM     24  C   UNL     1       5.381   5.826  -1.570  0.00  0.00    +0.044 C 
ENDBRANCH  16  18
ENDBRANCH   4  14
BRANCH   2  25
ATOM     25  C   UNL     1      -2.798   2.540   3.900  0.00  0.00    +0.098 C 
ATOM     26  N   UNL     1      -3.487   2.975   4.692  0.00  0.00    -0.191 NA
ENDBRANCH   2  25
BRANCH   1  27
ATOM     27  S   UNL     1      -1.795  -0.160   4.541  0.00  0.00    -0.100 S 
BRANCH  27  28
ATOM     28  C   UNL     1      -0.836  -1.665   4.239  0.00  0.00    +0.171 C 
BRANCH  28  30
ATOM     29  N   UNL     1      -0.403  -3.816   5.380  0.00  0.00    -0.285 N 
ATOM     30  C   UNL     1      -1.026  -2.621   5.388  0.00  0.00    +0.227 C 
ATOM     31  O   UNL     1      -1.740  -2.316   6.319  0.00  0.00    -0.275 OA
ATOM     32  H   UNL     1       0.189  -4.122   4.504  0.00  0.00    +0.155 HD
BRANCH  29  37
ATOM     33  C   UNL     1      -0.829  -7.268   9.862  0.00  0.00    +0.044 C 
ATOM     34  C   UNL     1      -0.716  -6.351   8.671  0.00  0.00    -0.050 A 
ATOM     35  C   UNL     1      -1.794  -5.570   8.297  0.00  0.00    +0.005 A 
ATOM     36  C   UNL     1      -1.694  -4.729   7.206  0.00  0.00    +0.023 A 
ATOM     37  C   UNL     1      -0.508  -4.667   6.485  0.00  0.00    +0.033 A 
ATOM     38  C   UNL     1       0.571  -5.457   6.861  0.00  0.00    +0.023 A 
ATOM     39  C   UNL     1       0.466  -6.292   7.956  0.00  0.00    +0.005 A 
ENDBRANCH  29  37
ENDBRANCH  28  30
ENDBRANCH  27  28
ENDBRANCH   1  27
TORSDOF 8
