REMARK  Name = ZINC31978897
REMARK  6 active torsions:
REMARK  status: ('A' for Active; 'I' for Inactive)
REMARK    1  A    between atoms: C_8  and  C_19
REMARK    2  A    between atoms: C_10  and  C_12
REMARK    3  A    between atoms: N_14  and  C_15
REMARK    4  A    between atoms: C_15  and  C_16
REMARK    5  A    between atoms: C_16  and  C_17
REMARK    6  A    between atoms: C_17  and  O_18
REMARK                            x       y       z     vdW  Elec       q    Type
REMARK                         _______ _______ _______ _____ _____    ______ ____
ROOT
ATOM      1  C   UNL     1      -0.210   1.193   1.164  0.00  0.00    +0.016 C 
ATOM      2  C   UNL     1      -1.258   2.237   1.698  0.00  0.00    +0.025 C 
ATOM      3  C   UNL     1      -2.550   1.607   1.165  0.00  0.00    -0.027 C 
ATOM      4  C   UNL     1      -2.281   1.016   0.013  0.00  0.00    -0.027 C 
ATOM      5  C   UNL     1      -0.792   1.215  -0.296  0.00  0.00    +0.027 C 
ATOM      6  C   UNL     1      -0.673   2.738  -0.625  0.00  0.00    +0.121 C 
ATOM      7  C   UNL     1      -0.989   3.429   0.724  0.00  0.00    +0.096 C 
ENDROOT
BRANCH   7   8
ATOM      8  C   UNL     1       0.192   4.238   1.194  0.00  0.00    +0.217 C 
ATOM      9  O   UNL     1       1.011   3.740   1.937  0.00  0.00    -0.275 OA
ATOM     10  N   UNL     1       0.338   5.516   0.790  0.00  0.00    -0.315 N 
ATOM     11  H   UNL     1      -0.406   5.967   0.116  0.00  0.00    +0.149 HD
BRANCH  10  12
ATOM     12  C   UNL     1       1.486   6.302   1.247  0.00  0.00    +0.106 C 
BRANCH  12  13
ATOM     13  C   UNL     1       1.413   7.707   0.645  0.00  0.00    +0.046 C 
BRANCH  13  14
ATOM     14  C   UNL     1       2.612   8.529   1.123  0.00  0.00    +0.157 C 
BRANCH  14  15
ATOM     15  O   UNL     1       2.544   9.841   0.561  0.00  0.00    -0.395 OA
ATOM     16  H   UNL     1       3.326  10.580   0.793  0.00  0.00    +0.209 HD
ENDBRANCH  14  15
ENDBRANCH  13  14
ENDBRANCH  12  13
ENDBRANCH  10  12
ENDBRANCH   7   8
BRANCH   6  17
ATOM     17  C   UNL     1       0.724   3.073  -1.081  0.00  0.00    +0.360 C 
ATOM     18  O   UNL     1       1.651   2.371  -0.755  0.00  0.00    -0.246 OA
ATOM     19  O   UNL     1       0.937   4.153  -1.849  0.00  0.00    -0.246 OA
ENDBRANCH   6  17
TORSDOF 6
