REMARK  Name = ZINC64683800
REMARK  10 active torsions:
REMARK  status: ('A' for Active; 'I' for Inactive)
REMARK    1  A    between atoms: C_1  and  C_2
REMARK    2  A    between atoms: C_2  and  N_3
REMARK    3  A    between atoms: C_4  and  C_30
REMARK    4  A    between atoms: C_8  and  S_10
REMARK    5  A    between atoms: S_10  and  C_11
REMARK    6  A    between atoms: C_11  and  C_12
REMARK    7  A    between atoms: N_14  and  CA_15
REMARK    8  A    between atoms: CA_15  and  CB_17
REMARK    9  A    between atoms: CA_15  and  C_27
REMARK   10  A    between atoms: CB_17  and  CG_18
REMARK                            x       y       z     vdW  Elec       q    Type
REMARK                         _______ _______ _______ _____ _____    ______ ____
ROOT
ATOM      1  C   UNK A   0       2.247   0.280   2.985  0.00  0.00    +0.223 C 
ATOM      2  O   UNK A   0       2.776   1.369   3.061  0.00  0.00    -0.275 OA
ATOM      3  N   TRP A   1       2.006  -0.431   4.104  0.00  0.00    -0.301 N 
ATOM      4  H   TRP A   1       1.583  -1.302   4.044  0.00  0.00    +0.150 HD
ENDROOT
BRANCH   1   5
ATOM      5  C   UNK A   0       1.859  -0.277   1.640  0.00  0.00    +0.164 C 
BRANCH   5   6
ATOM      6  S   UNK A   0       2.310   0.907   0.342  0.00  0.00    -0.150 S 
BRANCH   6  11
ATOM      7  N   UNK A   0       2.555   0.723  -2.345  0.00  0.00    +0.412 N 
ATOM      8  C   UNK A   0       1.455   1.149  -3.241  0.00  0.00    +0.086 C 
ATOM      9  N   UNK A   0       0.334   0.232  -2.905  0.00  0.00    -0.264 NA
ATOM     10  N   UNK A   0       0.457   0.077  -1.447  0.00  0.00    -0.261 NA
ATOM     11  C   UNK A   0       1.917   0.038  -1.201  0.00  0.00    +0.078 C 
ATOM     12  H   UNK A   0       0.441  -0.656  -3.373  0.00  0.00    +0.139 HD
ATOM     13  H   UNK A   0       0.015  -0.774  -1.135  0.00  0.00    +0.140 HD
ATOM     14  H   UNK A   0       3.171   0.087  -2.829  0.00  0.00    -0.075 HD
BRANCH   8  15
ATOM     15  C   UNK A   0       1.859   0.986  -4.684  0.00  0.00    +0.106 A 
ATOM     16  C   UNK A   0       1.027   0.726  -5.709  0.00  0.00    +0.044 A 
ATOM     17  C   UNK A   0       1.823   0.656  -6.875  0.00  0.00    +0.041 A 
ATOM     18  C   UNK A   0       3.094   0.877  -6.493  0.00  0.00    +0.195 A 
ATOM     19  O   UNK A   0       3.109   1.082  -5.166  0.00  0.00    -0.468 OA
ENDBRANCH   8  15
BRANCH   7  21
ATOM     20  C   UNK A   0       4.061   2.520  -3.050  0.00  0.00    -0.017 C 
ATOM     21  C   UNK A   0       3.305   1.895  -1.875  0.00  0.00    -0.076 C 
ENDBRANCH   7  21
ENDBRANCH   6  11
ENDBRANCH   5   6
ENDBRANCH   1   5
BRANCH   3  22
ATOM     22  CA  TRP A   1       2.383   0.111   5.412  0.00  0.00    +0.190 C 
BRANCH  22  23
ATOM     23  C   TRP A   1       3.829  -0.212   5.692  0.00  0.00    +0.376 C 
ATOM     24  O   TRP A   1       4.498   0.538   6.381  0.00  0.00    -0.244 OA
ATOM     25  OXT TRP A   1       4.328  -1.223   5.228  0.00  0.00    -0.244 OA
ENDBRANCH  22  23
BRANCH  22  26
ATOM     26  CB  TRP A   1       1.503  -0.514   6.496  0.00  0.00    +0.067 C 
BRANCH  26  27
ATOM     27  CG  TRP A   1       0.072  -0.091   6.287  0.00  0.00    -0.039 C 
ATOM     28  CD2 TRP A   1      -0.891  -0.774   5.627  0.00  0.00    -0.001 A 
ATOM     29  CE3 TRP A   1      -0.892  -2.067   4.931  0.00  0.00    +0.010 A 
ATOM     30  CZ3 TRP A   1      -2.035  -2.498   4.350  0.00  0.00    +0.001 A 
ATOM     31  CH2 TRP A   1      -3.215  -1.743   4.396  0.00  0.00    +0.002 A 
ATOM     32  CZ2 TRP A   1      -3.292  -0.546   5.016  0.00  0.00    +0.026 A 
ATOM     33  CE2 TRP A   1      -2.150   0.004   5.660  0.00  0.00    +0.043 A 
ATOM     34  NE1 TRP A   1      -1.972   1.125   6.316  0.00  0.00    -0.380 N 
ATOM     35  CD1 TRP A   1      -0.581   1.182   6.778  0.00  0.00    +0.144 C 
ATOM     36  HE1 TRP A   1      -2.649   1.802   6.473  0.00  0.00    +0.160 HD
ENDBRANCH  26  27
ENDBRANCH  22  26
ENDBRANCH   3  22
TORSDOF 9
