REMARK  Name = ZINC12106037
REMARK  7 active torsions:
REMARK  status: ('A' for Active; 'I' for Inactive)
REMARK    1  A    between atoms: C_4  and  C_7
REMARK    2  A    between atoms: C_7  and  C_8
REMARK    3  A    between atoms: C_11  and  S_19
REMARK    4  A    between atoms: N_12  and  C_13
REMARK    5  A    between atoms: S_19  and  C_20
REMARK    6  A    between atoms: C_20  and  C_21
REMARK    7  A    between atoms: N_27  and  C_28
REMARK                            x       y       z     vdW  Elec       q    Type
REMARK                         _______ _______ _______ _____ _____    ______ ____
ROOT
ATOM      1  S   UNL     1      -2.798  -1.373   4.771  0.00  0.00    -0.078 S 
ENDROOT
BRANCH   1   5
ATOM      2  C   UNL     1      -2.653   0.603   1.407  0.00  0.00    +0.143 A 
ATOM      3  N   UNL     1      -3.547   1.264   2.086  0.00  0.00    -0.133 NA
ATOM      4  N   UNL     1      -3.712   0.727   3.242  0.00  0.00    -0.122 NA
ATOM      5  C   UNL     1      -2.925  -0.317   3.366  0.00  0.00    +0.197 A 
ATOM      6  N   UNL     1      -2.228  -0.434   2.195  0.00  0.00    -0.274 N 
BRANCH   6   7
ATOM      7  C   UNL     1      -1.274  -1.409   1.870  0.00  0.00    +0.050 A 
ATOM      8  C   UNL     1      -1.525  -2.315   0.849  0.00  0.00    +0.026 A 
ATOM      9  C   UNL     1      -0.581  -3.271   0.527  0.00  0.00    +0.002 A 
ATOM     10  C   UNL     1       0.609  -3.333   1.229  0.00  0.00    +0.000 A 
ATOM     11  C   UNL     1       0.860  -2.435   2.250  0.00  0.00    +0.002 A 
ATOM     12  C   UNL     1      -0.078  -1.474   2.572  0.00  0.00    +0.026 A 
ENDBRANCH   6   7
BRANCH   2  13
ATOM     13  C   UNL     1      -2.181   0.916   0.010  0.00  0.00    +0.111 C 
BRANCH  13  17
ATOM     14  C   UNL     1       1.161   3.570   0.194  0.00  0.00    +0.000 A 
ATOM     15  C   UNL     1       1.363   2.203   0.205  0.00  0.00    +0.000 A 
ATOM     16  C   UNL     1       0.281   1.344   0.149  0.00  0.00    +0.004 A 
ATOM     17  C   UNL     1      -1.002   1.852   0.077  0.00  0.00    -0.040 A 
ATOM     18  C   UNL     1      -1.204   3.220   0.072  0.00  0.00    +0.004 A 
ATOM     19  C   UNL     1      -0.122   4.079   0.127  0.00  0.00    +0.000 A 
ENDBRANCH  13  17
ENDBRANCH   2  13
ENDBRANCH   1   5
BRANCH   1  20
ATOM     20  C   UNL     1      -4.008  -0.588   5.864  0.00  0.00    +0.153 C 
BRANCH  20  21
ATOM     21  C   UNL     1      -4.072  -1.343   7.167  0.00  0.00    +0.146 A 
ATOM     22  N   UNL     1      -4.928  -2.341   7.309  0.00  0.00    -0.199 NA
ATOM     23  C   UNL     1      -4.984  -3.014   8.456  0.00  0.00    +0.217 A 
ATOM     24  N   UNL     1      -4.186  -2.674   9.462  0.00  0.00    -0.181 NA
ATOM     25  C   UNL     1      -3.331  -1.667   9.318  0.00  0.00    +0.224 A 
ATOM     26  N   UNL     1      -3.277  -1.003   8.166  0.00  0.00    -0.198 NA
ATOM     27  N   UNL     1      -2.500  -1.311  10.361  0.00  0.00    -0.284 N 
ATOM     28  N   UNL     1      -5.873  -4.059   8.601  0.00  0.00    -0.327 N 
ATOM     29  H   UNL     1      -1.821  -0.630  10.230  0.00  0.00    +0.155 HD
ATOM     30  H   UNL     1      -5.916  -4.546   9.438  0.00  0.00    +0.145 HD
ATOM     31  H   UNL     1      -6.455  -4.306   7.865  0.00  0.00    +0.145 HD
BRANCH  27  32
ATOM     32  C   UNL     1      -2.636  -1.932  11.608  0.00  0.00    +0.034 A 
ATOM     33  C   UNL     1      -3.889  -2.331  12.053  0.00  0.00    +0.026 A 
ATOM     34  C   UNL     1      -4.020  -2.949  13.281  0.00  0.00    +0.040 A 
ATOM     35  C   UNL     1      -2.905  -3.160  14.074  0.00  0.00    +0.124 A 
ATOM     36  C   UNL     1      -1.654  -2.759  13.634  0.00  0.00    +0.040 A 
ATOM     37  C   UNL     1      -1.518  -2.146  12.404  0.00  0.00    +0.026 A 
ATOM     38  F   UNL     1      -3.036  -3.760  15.277  0.00  0.00    -0.205 F 
ENDBRANCH  27  32
ENDBRANCH  20  21
ENDBRANCH   1  20
TORSDOF 7
