REMARK  Name = ZINC37011221
REMARK  5 active torsions:
REMARK  status: ('A' for Active; 'I' for Inactive)
REMARK    1  A    between atoms: C_2  and  S_17
REMARK    2  A    between atoms: C_5  and  N_8
REMARK    3  A    between atoms: C_9  and  C_11
REMARK    4  A    between atoms: C_11  and  C_12
REMARK    5  A    between atoms: S_17  and  N_20
REMARK                            x       y       z     vdW  Elec       q    Type
REMARK                         _______ _______ _______ _____ _____    ______ ____
ROOT
ATOM      1  C   UNL     1       0.962   1.387   1.178  0.00  0.00    +0.050 A 
ATOM      2  C   UNL     1       1.169   2.087   0.004  0.00  0.00    +0.108 A 
ATOM      3  C   UNL     1       1.399   1.409  -1.178  0.00  0.00    +0.050 A 
ATOM      4  C   UNL     1       1.422   0.027  -1.191  0.00  0.00    +0.065 A 
ATOM      5  C   UNL     1       1.215  -0.681  -0.013  0.00  0.00    +0.071 A 
ATOM      6  C   UNL     1       0.985   0.004   1.173  0.00  0.00    +0.065 A 
ATOM      7 CL   UNL     1       0.726  -0.874   2.648  0.00  0.00    -0.082 Cl
ATOM      8 CL   UNL     1       1.710  -0.824  -2.677  0.00  0.00    -0.082 Cl
ENDROOT
BRANCH   5   9
ATOM      9  N   UNL     1       1.238  -2.081  -0.022  0.00  0.00    -0.283 N 
ATOM     10  C   UNL     1       2.401  -2.737   0.165  0.00  0.00    +0.226 C 
ATOM     11  O   UNL     1       3.410  -2.119   0.430  0.00  0.00    -0.275 OA
ATOM     12  H   UNL     1       0.418  -2.578  -0.163  0.00  0.00    +0.155 HD
BRANCH  10  13
ATOM     13  C   UNL     1       2.446  -4.238   0.044  0.00  0.00    +0.209 C 
BRANCH  13  14
ATOM     14  C   UNL     1       3.873  -4.728   0.300  0.00  0.00    +0.398 C 
ATOM     15  F   UNL     1       4.270  -4.351   1.588  0.00  0.00    -0.170 F 
ATOM     16  F   UNL     1       3.915  -6.121   0.188  0.00  0.00    -0.170 F 
ATOM     17  F   UNL     1       4.738  -4.157  -0.640  0.00  0.00    -0.170 F 
ENDBRANCH  13  14
ENDBRANCH  10  13
ENDBRANCH   5   9
BRANCH   2  18
ATOM     18  S   UNL     1       1.139   3.849   0.015  0.00  0.00    +0.056 S 
ATOM     19  O   UNL     1       0.817   4.258  -1.307  0.00  0.00    -0.153 OA
ATOM     20  O   UNL     1       0.363   4.235   1.142  0.00  0.00    -0.153 OA
BRANCH  18  21
ATOM     21  N   UNL     1       2.686   4.363   0.307  0.00  0.00    -0.204 NA
ATOM     22  H   UNL     1       2.992   5.209  -0.055  0.00  0.00    +0.144 HD
ATOM     23  H   UNL     1       3.285   3.818   0.840  0.00  0.00    +0.144 HD
ENDBRANCH  18  21
ENDBRANCH   2  18
TORSDOF 5
