REMARK  Name = ZINC09357809
REMARK  5 active torsions:
REMARK  status: ('A' for Active; 'I' for Inactive)
REMARK    1  A    between atoms: C_1  and  C_2
REMARK    2  A    between atoms: C_5  and  N_9
REMARK    3  A    between atoms: C_6  and  C_8
REMARK    4  A    between atoms: C_24  and  C_30
REMARK    5  A    between atoms: N_32  and  C_33
REMARK                            x       y       z     vdW  Elec       q    Type
REMARK                         _______ _______ _______ _____ _____    ______ ____
ROOT
ATOM      1  N   UNL     1       0.013   1.344  -0.011  0.00  0.00    -0.210 N 
ATOM      2  C   UNL     1       0.028   0.001  -0.019  0.00  0.00    +0.232 C 
ATOM      3  O   UNL     1      -0.937  -0.721   0.112  0.00  0.00    -0.274 OA
ATOM      4  C   UNL     1       1.457  -0.457  -0.219  0.00  0.00    +0.113 C 
ATOM      5  C   UNL     1       1.842  -1.508   0.819  0.00  0.00    +0.100 C 
ATOM      6  C   UNL     1       0.655  -2.327   1.252  0.00  0.00    -0.021 A 
ATOM      7  C   UNL     1      -0.356  -2.638   0.373  0.00  0.00    +0.006 A 
ATOM      8  C   UNL     1      -1.442  -3.383   0.803  0.00  0.00    +0.000 A 
ATOM      9  C   UNL     1      -1.514  -3.818   2.114  0.00  0.00    +0.001 A 
ATOM     10  C   UNL     1      -0.505  -3.515   3.005  0.00  0.00    +0.008 A 
ATOM     11  C   UNL     1       0.594  -2.766   2.580  0.00  0.00    -0.019 A 
ATOM     12  C   UNL     1       1.682  -2.440   3.524  0.00  0.00    +0.022 C 
ATOM     13  C   UNL     1       2.537  -1.440   3.227  0.00  0.00    +0.054 C 
ATOM     14  C   UNL     1       2.474   0.624   1.716  0.00  0.00    +0.156 C 
ATOM     15  C   UNL     1       2.265   0.810   0.199  0.00  0.00    +0.118 C 
ATOM     16  C   UNL     1       1.232   1.906  -0.004  0.00  0.00    +0.232 C 
ATOM     17  O   UNL     1       1.468   3.088  -0.138  0.00  0.00    -0.274 OA
ATOM     18  N   UNL     1       2.631  -0.857   1.836  0.00  0.00    -0.383 NA
ATOM     19  H   UNL     1       3.604  -1.040   1.564  0.00  0.00    +0.127 HD
ENDROOT
BRANCH   1  24
ATOM     20  C   UNL     1      -4.785   4.375  -0.031  0.00  0.00    +0.044 C 
ATOM     21  C   UNL     1      -3.511   3.570  -0.025  0.00  0.00    -0.050 A 
ATOM     22  C   UNL     1      -2.937   3.194   1.175  0.00  0.00    +0.005 A 
ATOM     23  C   UNL     1      -1.772   2.453   1.183  0.00  0.00    +0.024 A 
ATOM     24  C   UNL     1      -1.172   2.093  -0.016  0.00  0.00    +0.047 A 
ATOM     25  C   UNL     1      -1.750   2.471  -1.220  0.00  0.00    -0.028 A 
ATOM     26  C   UNL     1      -2.918   3.209  -1.221  0.00  0.00    +0.008 A 
ATOM     27  C   UNL     1      -1.105   2.078  -2.523  0.00  0.00    +0.046 C 
ENDBRANCH   1  24
BRANCH  14  28
ATOM     28  C   UNL     1       1.438   1.414   2.474  0.00  0.00    +0.237 C 
ATOM     29  O   UNL     1       0.459   0.855   2.923  0.00  0.00    -0.273 OA
ATOM     30  N   UNL     1       1.598   2.740   2.652  0.00  0.00    -0.284 N 
ATOM     31  H   UNL     1       2.410   3.175   2.348  0.00  0.00    +0.155 HD
BRANCH  30  32
ATOM     32  C   UNL     1       0.594   3.489   3.276  0.00  0.00    +0.034 A 
ATOM     33  C   UNL     1       0.347   4.794   2.872  0.00  0.00    +0.025 A 
ATOM     34  C   UNL     1      -0.648   5.529   3.486  0.00  0.00    +0.022 A 
ATOM     35  C   UNL     1      -1.392   4.970   4.510  0.00  0.00    +0.041 A 
ATOM     36  C   UNL     1      -1.144   3.671   4.918  0.00  0.00    +0.022 A 
ATOM     37  C   UNL     1      -0.154   2.929   4.304  0.00  0.00    +0.025 A 
ATOM     38 CL   UNL     1      -2.637   5.899   5.284  0.00  0.00    -0.084 Cl
ENDBRANCH  30  32
ENDBRANCH  14  28
TORSDOF 3
