REMARK  Name = ZINC35374538
REMARK  9 active torsions:
REMARK  status: ('A' for Active; 'I' for Inactive)
REMARK    1  A    between atoms: C_1  and  C_2
REMARK    2  A    between atoms: C_2  and  C_3
REMARK    3  A    between atoms: C_3  and  C_5
REMARK    4  A    between atoms: C_3  and  C_6
REMARK    5  A    between atoms: C_6  and  N_7
REMARK    6  A    between atoms: C_8  and  C_10
REMARK    7  A    between atoms: C_21  and  C_23
REMARK    8  A    between atoms: C_23  and  C_24
REMARK    9  A    between atoms: C_24  and  C_25
REMARK                            x       y       z     vdW  Elec       q    Type
REMARK                         _______ _______ _______ _____ _____    ______ ____
ROOT
ATOM      1  C   UNL     1       2.697  -4.272  -3.689  0.00  0.00    +0.028 C 
ATOM      2  C   UNL     1       4.113  -3.625  -3.630  0.00  0.00    +0.061 C 
ATOM      3  S   UNL     1       5.014  -4.843  -4.692  0.00  0.00    -0.174 S 
ATOM      4  C   UNL     1       3.997  -6.314  -4.266  0.00  0.00    -0.016 C 
ATOM      5  N   UNL     1       2.793  -5.735  -3.651  0.00  0.00    +0.397 N 
ATOM      6  C   UNL     1       4.753  -7.186  -3.275  0.00  0.00    +0.017 C 
ATOM      7  C   UNL     1       3.896  -8.403  -2.907  0.00  0.00    +0.107 C 
ATOM      8  N   UNL     1       3.480  -9.078  -4.144  0.00  0.00    -0.302 N 
ATOM      9  C   UNL     1       2.791  -8.297  -5.180  0.00  0.00    +0.107 C 
ATOM     10  C   UNL     1       3.655  -7.081  -5.535  0.00  0.00    +0.017 C 
ATOM     11  C   UNL     1       3.727 -10.390  -4.325  0.00  0.00    +0.216 C 
ATOM     12  O   UNL     1       4.298 -11.025  -3.463  0.00  0.00    -0.276 OA
ATOM     13  H   UNL     1       2.758  -6.029  -2.687  0.00  0.00    -0.083 HD
ATOM     14  H   UNL     1       1.986  -6.116  -4.123  0.00  0.00    -0.083 HD
ENDROOT
BRANCH   1  16
ATOM     15  N   UNL     1       1.639  -2.482  -2.350  0.00  0.00    -0.316 N 
ATOM     16  C   UNL     1       1.885  -3.797  -2.512  0.00  0.00    +0.200 C 
ATOM     17  O   UNL     1       1.454  -4.599  -1.710  0.00  0.00    -0.278 OA
ATOM     18  H   UNL     1       1.984  -1.842  -2.991  0.00  0.00    +0.149 HD
BRANCH  15  19
ATOM     19  C   UNL     1       0.849  -2.021  -1.205  0.00  0.00    +0.107 C 
BRANCH  19  20
ATOM     20  C   UNL     1       0.718  -0.497  -1.257  0.00  0.00    +0.003 C 
ATOM     21  C   UNL     1      -0.089  -0.097  -2.493  0.00  0.00    +0.009 C 
BRANCH  20  23
ATOM     22  C   UNL     1      -0.019   1.526   0.010  0.00  0.00    +0.004 C 
ATOM     23  C   UNL     1       0.002  -0.004   0.002  0.00  0.00    +0.001 C 
ENDBRANCH  20  23
ENDBRANCH  19  20
ENDBRANCH  15  19
ENDBRANCH   1  16
BRANCH  11  24
ATOM     24  C   UNL     1       3.295 -11.069  -5.599  0.00  0.00    +0.096 C 
BRANCH  24  25
ATOM     25  C   UNL     1       3.693 -12.546  -5.550  0.00  0.00    +0.013 C 
BRANCH  25  26
ATOM     26  C   UNL     1       3.254 -13.236  -6.843  0.00  0.00    -0.011 C 
ATOM     27  C   UNL     1       1.714 -13.301  -6.911  0.00  0.00    +0.003 C 
ATOM     28  C   UNL     1       1.421 -14.675  -7.564  0.00  0.00    +0.000 C 
ATOM     29  C   UNL     1       2.506 -15.588  -6.941  0.00  0.00    +0.000 C 
ATOM     30  C   UNL     1       3.757 -14.690  -6.862  0.00  0.00    +0.003 C 
ENDBRANCH  25  26
ENDBRANCH  24  25
ENDBRANCH  11  24
TORSDOF 7
