REMARK  Name = ZINC29568882
REMARK  9 active torsions:
REMARK  status: ('A' for Active; 'I' for Inactive)
REMARK    1  A    between atoms: C_1  and  C_2
REMARK    2  A    between atoms: C_2  and  C_3
REMARK    3  A    between atoms: C_2  and  N_4
REMARK    4  A    between atoms: N_4  and  C_5
REMARK    5  A    between atoms: C_10  and  N_11
REMARK    6  A    between atoms: C_17  and  C_19
REMARK    7  A    between atoms: C_24  and  N_29
REMARK    8  A    between atoms: N_29  and  S_30
REMARK    9  A    between atoms: S_30  and  C_33
REMARK                            x       y       z     vdW  Elec       q    Type
REMARK                         _______ _______ _______ _____ _____    ______ ____
ROOT
ATOM      1  N   UNL     1      -4.022  -1.217  -0.325  0.00  0.00    -0.312 N 
ATOM      2  C   UNL     1      -3.910   0.209   0.009  0.00  0.00    +0.125 C 
ATOM      3  C   UNL     1      -5.005   0.976  -0.741  0.00  0.00    +0.127 C 
ATOM      4  N   UNL     1      -6.290   0.296  -0.521  0.00  0.00    -0.297 N 
ATOM      5  C   UNL     1      -6.402  -1.130  -0.855  0.00  0.00    +0.127 C 
ATOM      6  C   UNL     1      -5.308  -1.896  -0.110  0.00  0.00    +0.125 C 
ATOM      7  C   UNL     1      -7.345   0.969  -0.021  0.00  0.00    +0.236 C 
ATOM      8  O   UNL     1      -7.240   2.146   0.251  0.00  0.00    -0.274 OA
ENDROOT
BRANCH   7   9
ATOM      9  C   UNL     1      -8.656   0.258   0.199  0.00  0.00    +0.161 C 
ATOM     10  C   UNL     1      -9.440   0.166  -1.119  0.00  0.00    +0.068 C 
ATOM     11  C   UNL     1     -10.722   0.923  -0.854  0.00  0.00    -0.023 A 
ATOM     12  C   UNL     1     -11.809   1.175  -1.669  0.00  0.00    +0.030 A 
ATOM     13  C   UNL     1     -12.885   1.908  -1.188  0.00  0.00    +0.048 A 
ATOM     14  C   UNL     1     -12.863   2.386   0.115  0.00  0.00    +0.026 A 
ATOM     15  C   UNL     1     -11.778   2.134   0.927  0.00  0.00    +0.025 A 
ATOM     16  C   UNL     1     -10.693   1.397   0.447  0.00  0.00    +0.031 A 
ATOM     17  N   UNL     1      -9.509   1.035   1.103  0.00  0.00    -0.332 N 
ATOM     18  H   UNL     1      -9.286   1.264   2.019  0.00  0.00    +0.147 HD
BRANCH  13  19
ATOM     19  N   UNL     1     -13.987   2.164  -2.013  0.00  0.00    -0.221 N 
ATOM     20  H   UNL     1     -14.112   3.047  -2.395  0.00  0.00    +0.173 HD
BRANCH  19  21
ATOM     21  S   UNL     1     -15.076   0.960  -2.337  0.00  0.00    +0.040 S 
ATOM     22  O   UNL     1     -16.044   1.565  -3.183  0.00  0.00    -0.155 OA
ATOM     23  O   UNL     1     -14.288  -0.128  -2.800  0.00  0.00    -0.155 OA
ATOM     24  C   UNL     1     -15.816   0.556  -0.730  0.00  0.00    +0.218 C 
ENDBRANCH  19  21
ENDBRANCH  13  19
ENDBRANCH   7   9
BRANCH   1  30
ATOM     25  C   UNL     1      -1.981  -2.456   0.027  0.00  0.00    +0.066 A 
ATOM     26  C   UNL     1      -0.903  -3.150  -0.505  0.00  0.00    +0.028 A 
ATOM     27  C   UNL     1      -0.811  -3.272  -1.885  0.00  0.00    +0.019 A 
ATOM     28  C   UNL     1      -1.784  -2.704  -2.682  0.00  0.00    +0.084 A 
ATOM     29  N   UNL     1      -2.800  -2.049  -2.151  0.00  0.00    -0.348 N 
ATOM     30  C   UNL     1      -2.931  -1.913  -0.842  0.00  0.00    +0.120 A 
ATOM     31  H   UNL     1      -3.470  -1.660  -2.735  0.00  0.00    +0.167 HD
BRANCH  25  32
ATOM     32  N   UNL     1      -2.117  -2.307   1.412  0.00  0.00    -0.339 N 
ATOM     33  H   UNL     1      -2.899  -1.865   1.778  0.00  0.00    +0.146 HD
BRANCH  32  35
ATOM     34  C   UNL     1      -1.109  -2.038   3.624  0.00  0.00    +0.027 C 
ATOM     35  C   UNL     1      -1.079  -2.820   2.309  0.00  0.00    +0.064 C 
ATOM     36  C   UNL     1      -1.335  -4.302   2.591  0.00  0.00    +0.027 C 
ENDBRANCH  32  35
ENDBRANCH  25  32
ENDBRANCH   1  30
TORSDOF 6
