REMARK  Name = ZINC08766612
REMARK  5 active torsions:
REMARK  status: ('A' for Active; 'I' for Inactive)
REMARK    1  A    between atoms: C_1  and  N_50
REMARK    2  A    between atoms: C_3  and  C_25
REMARK    3  A    between atoms: C_5  and  C_18
REMARK    4  A    between atoms: C_18  and  C_20
REMARK    5  A    between atoms: C_29  and  N_31
REMARK                            x       y       z     vdW  Elec       q    Type
REMARK                         _______ _______ _______ _____ _____    ______ ____
ROOT
ATOM      1  C   UNL     1       2.293   4.176   2.252  0.00  0.00    -0.094 C 
ATOM      2  C   UNL     1       4.224   4.142   0.767  0.00  0.00    -0.068 C 
ATOM      3  C   UNL     1       4.518   4.699  -0.649  0.00  0.00    +0.013 C 
ATOM      4  C   UNL     1       3.103   4.901  -1.242  0.00  0.00    +0.071 C 
ATOM      5  C   UNL     1       2.177   5.001  -0.025  0.00  0.00    +0.051 C 
ATOM      6  C   UNL     1       1.122   3.928  -0.059  0.00  0.00    -0.026 A 
ATOM      7  C   UNL     1       1.174   2.552  -0.067  0.00  0.00    +0.019 A 
ATOM      8  C   UNL     1       0.003   1.815  -0.102  0.00  0.00    +0.018 A 
ATOM      9  C   UNL     1      -1.219   2.466  -0.135  0.00  0.00    +0.017 A 
ATOM     10  C   UNL     1      -1.274   3.844  -0.122  0.00  0.00    +0.024 A 
ATOM     11  C   UNL     1      -0.100   4.592  -0.086  0.00  0.00    +0.036 A 
ATOM     12  N   UNL     1       0.102   5.974  -0.072  0.00  0.00    -0.286 N 
ATOM     13  C   UNL     1       1.408   6.297  -0.036  0.00  0.00    +0.212 C 
ATOM     14  O   UNL     1       1.876   7.415  -0.016  0.00  0.00    -0.277 OA
ATOM     15 BR   UNL     1       0.071  -0.075  -0.114  0.00  0.00    -0.050 Br
ATOM     16  H   UNL     1      -0.617   6.626  -0.086  0.00  0.00    +0.155 HD
ATOM     17  N   UNL     1       3.022   4.889   1.159  0.00  0.00    +0.391 N 
ATOM     18  H   UNL     1       3.287   5.826   1.486  0.00  0.00    -0.080 HD
ENDROOT
BRANCH   3  19
ATOM     19  C   UNL     1       5.300   3.701  -1.464  0.00  0.00    -0.043 A 
ATOM     20  C   UNL     1       4.832   2.409  -1.609  0.00  0.00    +0.004 A 
ATOM     21  C   UNL     1       5.549   1.493  -2.355  0.00  0.00    +0.002 A 
ATOM     22  C   UNL     1       6.735   1.871  -2.958  0.00  0.00    +0.033 A 
ATOM     23  C   UNL     1       7.203   3.163  -2.814  0.00  0.00    +0.126 A 
ATOM     24  C   UNL     1       6.483   4.080  -2.070  0.00  0.00    +0.036 A 
BRANCH  23  25
ATOM     25  N   UNL     1       8.473   3.567  -3.458  0.00  0.00    +0.056 N 
ATOM     26  O   UNL     1       9.105   2.760  -4.116  0.00  0.00    -0.126 OA
ATOM     27  O   UNL     1       8.885   4.706  -3.331  0.00  0.00    -0.126 OA
ENDBRANCH  23  25
ENDBRANCH   3  19
BRANCH   4  28
ATOM     28  C   UNL     1       3.046   6.173  -2.049  0.00  0.00    +0.201 C 
ATOM     29  O   UNL     1       3.843   7.064  -1.834  0.00  0.00    -0.289 OA
BRANCH  28  30
ATOM     30  C   UNL     1       2.067   6.328  -3.056  0.00  0.00    +0.170 A 
ATOM     31  C   UNL     1       1.901   7.433  -3.866  0.00  0.00    +0.053 A 
ATOM     32  C   UNL     1       0.819   7.150  -4.710  0.00  0.00    +0.042 A 
ATOM     33  C   UNL     1       0.375   5.912  -4.391  0.00  0.00    +0.196 A 
ATOM     34  O   UNL     1       1.129   5.420  -3.401  0.00  0.00    -0.460 OA
ENDBRANCH  28  30
ENDBRANCH   4  28
TORSDOF 4
