REMARK  Name = ZINC20465918
REMARK  12 active torsions:
REMARK  status: ('A' for Active; 'I' for Inactive)
REMARK    1  A    between atoms: C_1  and  N_2
REMARK    2  A    between atoms: N_2  and  C_3
REMARK    3  A    between atoms: N_2  and  C_11
REMARK    4  A    between atoms: C_3  and  C_4
REMARK    5  A    between atoms: C_4  and  C_5
REMARK    6  A    between atoms: C_13  and  C_23
REMARK    7  A    between atoms: C_16  and  C_21
REMARK    8  A    between atoms: C_18  and  O_20
REMARK    9  A    between atoms: C_21  and  O_22
REMARK   10  A    between atoms: C_23  and  N_24
REMARK   11  A    between atoms: N_24  and  C_25
REMARK   12  A    between atoms: C_25  and  C_26
REMARK                            x       y       z     vdW  Elec       q    Type
REMARK                         _______ _______ _______ _____ _____    ______ ____
ROOT
ATOM      1  C   UNL     1      -0.442   1.230   3.872  0.00  0.00    -0.010 C 
ATOM      2  C   UNL     1       0.309   0.300   4.850  0.00  0.00    +0.091 C 
ATOM      3  O   UNL     1       1.121   1.192   5.652  0.00  0.00    -0.372 OA
ATOM      4  C   UNL     1       0.280   2.335   5.919  0.00  0.00    +0.171 C 
ATOM      5  C   UNL     1      -0.464   2.598   4.591  0.00  0.00    +0.134 C 
ENDROOT
BRANCH   1   7
ATOM      6  C   UNL     1       1.653   1.813   2.807  0.00  0.00    -0.096 C 
ATOM      7  N   UNL     1       0.281   1.329   2.598  0.00  0.00    +0.383 N 
ATOM      8  H   UNL     1       0.341   0.321   2.163  0.00  0.00    -0.082 HD
BRANCH   7   9
ATOM      9  C   UNL     1      -0.440   2.187   1.648  0.00  0.00    -0.072 C 
BRANCH   9  10
ATOM     10  C   UNL     1       0.202   2.070   0.265  0.00  0.00    +0.037 C 
BRANCH  10  11
ATOM     11  C   UNL     1      -0.538   2.950  -0.709  0.00  0.00    +0.040 A 
ATOM     12  C   UNL     1       0.156   3.902  -1.433  0.00  0.00    +0.023 A 
ATOM     13  C   UNL     1      -0.533   4.702  -2.331  0.00  0.00    +0.003 A 
ATOM     14  C   UNL     1      -1.903   4.523  -2.459  0.00  0.00    +0.020 A 
ATOM     15  C   UNL     1      -2.529   3.555  -1.697  0.00  0.00    +0.111 A 
ATOM     16  N   UNL     1      -1.840   2.808  -0.857  0.00  0.00    -0.260 NA
ENDBRANCH  10  11
ENDBRANCH   9  10
ENDBRANCH   7   9
ENDBRANCH   1   7
BRANCH   5  17
ATOM     17  O   UNL     1       0.227   3.581   3.817  0.00  0.00    -0.391 OA
ATOM     18  H   UNL     1       0.306   4.614   4.185  0.00  0.00    +0.210 HD
ENDBRANCH   5  17
BRANCH   4  19
ATOM     19  C   UNL     1       1.131   3.548   6.302  0.00  0.00    +0.190 C 
BRANCH  19  20
ATOM     20  O   UNL     1       1.717   3.332   7.587  0.00  0.00    -0.392 OA
ATOM     21  H   UNL     1       2.366   4.101   8.032  0.00  0.00    +0.210 HD
ENDBRANCH  19  20
ENDBRANCH   4  19
BRANCH   2  22
ATOM     22  C   UNL     1       1.194  -0.681   4.079  0.00  0.00    -0.052 C 
BRANCH  22  23
ATOM     23  N   UNL     1       1.893  -1.560   5.026  0.00  0.00    +0.383 N 
ATOM     24  H   UNL     1       2.518  -0.952   5.698  0.00  0.00    -0.085 HD
ATOM     25  H   UNL     1       1.155  -2.120   5.619  0.00  0.00    -0.085 HD
BRANCH  23  26
ATOM     26  C   UNL     1       2.754  -2.517   4.320  0.00  0.00    -0.047 C 
BRANCH  26  27
ATOM     27  C   UNL     1       3.453  -3.400   5.322  0.00  0.00    -0.064 A 
ATOM     28  C   UNL     1       4.684  -3.028   5.829  0.00  0.00    +0.004 A 
ATOM     29  C   UNL     1       5.323  -3.834   6.752  0.00  0.00    +0.038 A 
ATOM     30  C   UNL     1       4.734  -5.019   7.161  0.00  0.00    +0.123 A 
ATOM     31  C   UNL     1       3.504  -5.393   6.648  0.00  0.00    +0.038 A 
ATOM     32  C   UNL     1       2.864  -4.582   5.729  0.00  0.00    +0.004 A 
ATOM     33  F   UNL     1       5.361  -5.810   8.059  0.00  0.00    -0.205 F 
ENDBRANCH  26  27
ENDBRANCH  23  26
ENDBRANCH  22  23
ENDBRANCH   2  22
TORSDOF 11
