REMARK  Name = ZINC43289270
REMARK  8 active torsions:
REMARK  status: ('A' for Active; 'I' for Inactive)
REMARK    1  A    between atoms: C_1  and  C_2
REMARK    2  A    between atoms: C_2  and  C_3
REMARK    3  A    between atoms: C_3  and  C_5
REMARK    4  A    between atoms: C_3  and  N_23
REMARK    5  A    between atoms: C_5  and  C_7
REMARK    6  A    between atoms: C_5  and  O_13
REMARK    7  A    between atoms: O_13  and  C_14
REMARK    8  A    between atoms: C_19  and  C_20
REMARK                            x       y       z     vdW  Elec       q    Type
REMARK                         _______ _______ _______ _____ _____    ______ ____
ROOT
ATOM      1  C   UNL     1       0.898  -2.095   1.165  0.00  0.00    +0.196 C 
ENDROOT
BRANCH   1   2
ATOM      2  C   UNL     1       1.588  -2.819   2.293  0.00  0.00    +0.029 A 
ATOM      3  C   UNL     1       2.895  -3.155   2.418  0.00  0.00    +0.030 A 
ATOM      4  C   UNL     1       3.309  -3.826   3.554  0.00  0.00    +0.025 A 
ATOM      5  C   UNL     1       2.394  -4.128   4.509  0.00  0.00    +0.060 A 
ATOM      6  S   UNL     1       0.896  -3.450   3.813  0.00  0.00    -0.097 S 
ATOM      7 BR   UNL     1       5.122  -4.316   3.774  0.00  0.00    -0.050 Br
ENDBRANCH   1   2
BRANCH   1   8
ATOM      8  C   UNL     1       0.823  -0.602   1.489  0.00  0.00    -0.029 C 
BRANCH   8   9
ATOM      9  N   UNL     1       0.169  -0.415   2.791  0.00  0.00    +0.383 N 
ATOM     10  H   UNL     1       0.702  -0.888   3.506  0.00  0.00    -0.089 HD
ATOM     11  H   UNL     1       0.119   0.570   3.004  0.00  0.00    -0.089 HD
ATOM     12  H   UNL     1      -0.763  -0.800   2.757  0.00  0.00    -0.089 HD
ENDBRANCH   8   9
BRANCH   8  14
ATOM     13  C   UNL     1       0.043   1.623   0.660  0.00  0.00    +0.002 C 
ATOM     14  C   UNL     1       0.014   0.115   0.405  0.00  0.00    -0.016 C 
ENDBRANCH   8  14
ENDBRANCH   1   8
BRANCH   1  15
ATOM     15  O   UNL     1      -0.423  -2.615   1.003  0.00  0.00    -0.485 OA
BRANCH  15  16
ATOM     16  C   UNL     1      -0.898  -2.703  -0.265  0.00  0.00    +0.133 A 
ATOM     17  C   UNL     1      -0.098  -2.337  -1.336  0.00  0.00    +0.046 A 
ATOM     18  C   UNL     1      -0.583  -2.427  -2.626  0.00  0.00    +0.004 A 
ATOM     19  C   UNL     1      -1.871  -2.882  -2.859  0.00  0.00    +0.001 A 
ATOM     20  C   UNL     1      -2.680  -3.250  -1.807  0.00  0.00    +0.017 A 
ATOM     21  C   UNL     1      -2.199  -3.170  -0.497  0.00  0.00    +0.078 A 
BRANCH  21  22
ATOM     22  C   UNL     1      -3.058  -3.568   0.634  0.00  0.00    +0.245 C 
ATOM     23  O   UNL     1      -2.638  -3.491   1.773  0.00  0.00    -0.270 OA
ATOM     24  N   UNL     1      -4.308  -4.016   0.406  0.00  0.00    -0.325 N 
ATOM     25  H   UNL     1      -4.643  -4.077  -0.502  0.00  0.00    +0.145 HD
ATOM     26  H   UNL     1      -4.873  -4.278   1.150  0.00  0.00    +0.145 HD
ENDBRANCH  21  22
ENDBRANCH  15  16
ENDBRANCH   1  15
TORSDOF 7
