REMARK  Name = ZINC35703184
REMARK  18 active torsions:
REMARK  status: ('A' for Active; 'I' for Inactive)
REMARK    1  A    between atoms: C_1  and  C_2
REMARK    2  A    between atoms: C_2  and  C_3
REMARK    3  A    between atoms: C_3  and  C_5
REMARK    4  A    between atoms: C_3  and  C_11
REMARK    5  A    between atoms: C_11  and  O_13
REMARK    6  A    between atoms: O_13  and  C_14
REMARK    7  A    between atoms: C_17  and  C_22
REMARK    8  A    between atoms: C_19  and  O_20
REMARK    9  A    between atoms: O_20  and  C_21
REMARK   10  A    between atoms: C_23  and  N_31
REMARK   11  A    between atoms: N_31  and  C_32
REMARK   12  A    between atoms: C_32  and  C_33
REMARK   13  A    between atoms: C_32  and  C_34
REMARK   14  A    between atoms: C_32  and  C_35
REMARK   15  A    between atoms: C_35  and  C_36
REMARK   16  A    between atoms: C_36  and  C_37
REMARK   17  A    between atoms: C_36  and  C_38
REMARK   18  A    between atoms: C_36  and  C_39
REMARK                            x       y       z     vdW  Elec       q    Type
REMARK                         _______ _______ _______ _____ _____    ______ ____
ROOT
ATOM      1  C   UNL     1      -3.936   4.286 -10.261  0.00  0.00    +0.173 A 
ATOM      2  C   UNL     1      -4.441   3.562  -9.192  0.00  0.00    +0.051 A 
ATOM      3  C   UNL     1      -4.764   2.229  -9.349  0.00  0.00    +0.014 A 
ATOM      4  C   UNL     1      -4.583   1.608 -10.584  0.00  0.00    +0.005 A 
ATOM      5  C   UNL     1      -4.076   2.336 -11.660  0.00  0.00    +0.059 A 
ATOM      6  C   UNL     1      -3.759   3.673 -11.499  0.00  0.00    +0.163 A 
ENDROOT
BRANCH   4   7
ATOM      7  C   UNL     1      -4.930   0.178 -10.754  0.00  0.00    +0.087 A 
ATOM      8  C   UNL     1      -4.615  -0.841  -9.879  0.00  0.00    +0.129 A 
ATOM      9  N   UNL     1      -5.120  -1.993 -10.415  0.00  0.00    -0.289 N 
ATOM     10  C   UNL     1      -5.106  -3.293  -9.986  0.00  0.00    +0.094 A 
ATOM     11  C   UNL     1      -5.689  -4.264 -10.718  0.00  0.00    +0.018 A 
ATOM     12  C   UNL     1      -6.321  -3.953 -11.936  0.00  0.00    +0.005 A 
ATOM     13  C   UNL     1      -6.343  -2.667 -12.377  0.00  0.00    +0.045 A 
ATOM     14  C   UNL     1      -5.730  -1.659 -11.603  0.00  0.00    +0.117 A 
ATOM     15  N   UNL     1      -5.611  -0.354 -11.785  0.00  0.00    -0.338 N 
ATOM     16  H   UNL     1      -5.958   0.141 -12.544  0.00  0.00    +0.167 HD
BRANCH   8  17
ATOM     17  N   UNL     1      -3.916  -0.720  -8.677  0.00  0.00    -0.323 N 
ATOM     18  H   UNL     1      -3.520   0.131  -8.431  0.00  0.00    +0.148 HD
BRANCH  17  19
ATOM     19  C   UNL     1      -3.780  -1.876  -7.789  0.00  0.00    +0.028 C 
ATOM     20  C   UNL     1      -5.164  -2.459  -7.495  0.00  0.00    +0.031 C 
ATOM     21  C   UNL     1      -2.912  -2.939  -8.464  0.00  0.00    +0.031 C 
BRANCH  19  22
ATOM     22  C   UNL     1      -3.123  -1.438  -6.478  0.00  0.00    +0.031 C 
BRANCH  22  23
ATOM     23  C   UNL     1      -2.066  -0.371  -6.770  0.00  0.00    -0.036 C 
ATOM     24  C   UNL     1      -2.754   0.972  -7.024  0.00  0.00    +0.010 C 
ATOM     25  C   UNL     1      -1.126  -0.243  -5.569  0.00  0.00    +0.010 C 
ATOM     26  C   UNL     1      -1.262  -0.774  -8.007  0.00  0.00    +0.010 C 
ENDBRANCH  22  23
ENDBRANCH  19  22
ENDBRANCH  17  19
ENDBRANCH   8  17
ENDBRANCH   4   7
BRANCH   6  27
ATOM     27  O   UNL     1      -3.268   4.387 -12.547  0.00  0.00    -0.491 OA
ATOM     28  C   UNL     1      -3.112   3.694 -13.787  0.00  0.00    +0.277 C 
ENDBRANCH   6  27
BRANCH   1  29
ATOM     29  O   UNL     1      -3.618   5.599 -10.102  0.00  0.00    -0.422 OA
BRANCH  29  30
ATOM     30  C   UNL     1      -4.546   6.515 -10.420  0.00  0.00    +0.320 C 
ATOM     31  O   UNL     1      -5.594   6.167 -10.921  0.00  0.00    -0.250 OA
BRANCH  30  32
ATOM     32  C   UNL     1      -4.285   7.975 -10.155  0.00  0.00    +0.128 C 
BRANCH  32  33
ATOM     33  C   UNL     1      -5.475   8.787 -10.601  0.00  0.00    -0.034 A 
ATOM     34  C   UNL     1      -6.715   8.565 -10.031  0.00  0.00    +0.004 A 
ATOM     35  C   UNL     1      -7.806   9.309 -10.440  0.00  0.00    +0.000 A 
ATOM     36  C   UNL     1      -7.657  10.275 -11.417  0.00  0.00    +0.000 A 
ATOM     37  C   UNL     1      -6.417  10.498 -11.986  0.00  0.00    +0.000 A 
ATOM     38  C   UNL     1      -5.325   9.756 -11.574  0.00  0.00    +0.004 A 
ENDBRANCH  32  33
BRANCH  32  40
ATOM     39  C   UNL     1      -2.775   7.465  -8.232  0.00  0.00    +0.005 C 
ATOM     40  C   UNL     1      -4.054   8.189  -8.658  0.00  0.00    +0.016 C 
ENDBRANCH  32  40
ENDBRANCH  30  32
ENDBRANCH  29  30
ENDBRANCH   1  29
TORSDOF 11
