REMARK  Name = ZINC10100299
REMARK  10 active torsions:
REMARK  status: ('A' for Active; 'I' for Inactive)
REMARK    1  A    between atoms: C_1  and  C_2
REMARK    2  A    between atoms: C_2  and  C_3
REMARK    3  A    between atoms: C_2  and  N_4
REMARK    4  A    between atoms: N_4  and  C_5
REMARK    5  A    between atoms: N_4  and  S_6
REMARK    6  A    between atoms: S_6  and  C_9
REMARK    7  A    between atoms: C_12  and  C_15
REMARK    8  A    between atoms: N_17  and  C_18
REMARK    9  A    between atoms: C_19  and  C_27
REMARK   10  A    between atoms: C_26  and  N_56
REMARK                            x       y       z     vdW  Elec       q    Type
REMARK                         _______ _______ _______ _____ _____    ______ ____
ROOT
ATOM      1  C   UNL     1      -2.986   3.105   5.774  0.00  0.00    +0.249 C 
ATOM      2  O   UNL     1      -2.626   4.108   6.358  0.00  0.00    -0.270 OA
ATOM      3  N   UNL     1      -3.727   2.181   6.416  0.00  0.00    -0.275 N 
ATOM      4  H   UNL     1      -4.015   1.380   5.949  0.00  0.00    +0.156 HD
ENDROOT
BRANCH   3   5
ATOM      5  C   UNL     1      -4.078   2.373   7.742  0.00  0.00    +0.085 A 
ATOM      6  C   UNL     1      -4.829   1.543   8.566  0.00  0.00    +0.068 A 
ATOM      7  C   UNL     1      -5.054   1.982   9.930  0.00  0.00    -0.027 A 
ATOM      8  C   UNL     1      -4.500   3.172  10.253  0.00  0.00    -0.021 A 
ATOM      9  S   UNL     1      -3.681   3.704   8.779  0.00  0.00    -0.079 S 
ATOM     10  C   UNL     1      -4.577   3.857  11.582  0.00  0.00    -0.036 C 
ATOM     11  C   UNL     1      -5.492   1.750  12.354  0.00  0.00    -0.074 C 
ATOM     12  C   UNL     1      -5.848   1.200  10.970  0.00  0.00    +0.018 C 
ATOM     13  C   UNL     1      -5.662   3.723  13.748  0.00  0.00    -0.096 C 
ATOM     14  N   UNL     1      -5.667   3.217  12.359  0.00  0.00    +0.381 N 
ATOM     15  H   UNL     1      -6.568   3.448  11.923  0.00  0.00    -0.082 HD
BRANCH   6  16
ATOM     16  C   UNL     1      -5.372   0.273   8.075  0.00  0.00    +0.244 C 
ATOM     17  O   UNL     1      -4.717  -0.748   8.175  0.00  0.00    -0.270 OA
ATOM     18  N   UNL     1      -6.596   0.236   7.512  0.00  0.00    -0.325 N 
ATOM     19  H   UNL     1      -7.118   1.050   7.432  0.00  0.00    +0.145 HD
ATOM     20  H   UNL     1      -6.955  -0.605   7.187  0.00  0.00    +0.145 HD
ENDBRANCH   6  16
ENDBRANCH   3   5
BRANCH   1  24
ATOM     21  C   UNL     1      -1.910   2.514   1.708  0.00  0.00    +0.106 A 
ATOM     22  C   UNL     1      -2.675   1.566   2.363  0.00  0.00    +0.029 A 
ATOM     23  C   UNL     1      -3.024   1.749   3.685  0.00  0.00    +0.015 A 
ATOM     24  C   UNL     1      -2.612   2.900   4.359  0.00  0.00    +0.037 A 
ATOM     25  C   UNL     1      -1.845   3.856   3.691  0.00  0.00    +0.015 A 
ATOM     26  C   UNL     1      -1.498   3.658   2.370  0.00  0.00    +0.029 A 
BRANCH  21  27
ATOM     27  S   UNL     1      -1.463   2.269   0.021  0.00  0.00    +0.061 S 
ATOM     28  O   UNL     1      -1.212   3.557  -0.524  0.00  0.00    -0.153 OA
ATOM     29  O   UNL     1      -2.428   1.384  -0.530  0.00  0.00    -0.153 OA
BRANCH  27  30
ATOM     30  N   UNL     1      -0.018   1.461   0.010  0.00  0.00    -0.177 NA
ATOM     31  C   UNL     1       1.241   2.211   0.002  0.00  0.00    +0.132 C 
BRANCH  30  33
ATOM     32  C   UNL     1       0.718  -0.497  -1.257  0.00  0.00    +0.025 C 
ATOM     33  C   UNL     1       0.002  -0.004   0.002  0.00  0.00    +0.073 C 
ATOM     34  C   UNL     1       0.742  -0.511   1.242  0.00  0.00    +0.025 C 
ENDBRANCH  30  33
ENDBRANCH  27  30
ENDBRANCH  21  27
ENDBRANCH   1  24
TORSDOF 6
