REMARK  Name = ZINC15861760
REMARK  4 active torsions:
REMARK  status: ('A' for Active; 'I' for Inactive)
REMARK    1  A    between atoms: C_3  and  C_31
REMARK    2  A    between atoms: C_5  and  N_7
REMARK    3  A    between atoms: N_9  and  C_10
REMARK    4  A    between atoms: C_16  and  N_26
REMARK                            x       y       z     vdW  Elec       q    Type
REMARK                         _______ _______ _______ _____ _____    ______ ____
ROOT
ATOM      1  N   UNL     1      -1.853   1.759   1.085  0.00  0.00    -0.254 N 
ATOM      2  C   UNL     1      -1.597   2.768   0.193  0.00  0.00    +0.098 C 
ATOM      3  N   UNL     1      -0.429   3.114  -0.237  0.00  0.00    -0.372 N 
ATOM      4  C   UNL     1      -2.910   3.409  -0.207  0.00  0.00    +0.131 C 
ATOM      5  C   UNL     1      -3.957   2.621   0.597  0.00  0.00    +0.038 C 
ATOM      6  C   UNL     1      -3.154   1.607   1.372  0.00  0.00    +0.069 C 
ATOM      7  S   UNL     1      -3.758   0.522   2.378  0.00  0.00    -0.039 S 
ATOM      8  C   UNL     1      -4.703   3.553   1.546  0.00  0.00    +0.015 C 
ATOM      9  C   UNL     1      -5.479   4.595   0.737  0.00  0.00    +0.001 C 
ATOM     10  C   UNL     1      -6.469   3.885  -0.189  0.00  0.00    +0.000 C 
ATOM     11  C   UNL     1      -5.706   2.972  -1.150  0.00  0.00    +0.001 C 
ATOM     12  C   UNL     1      -4.930   1.923  -0.348  0.00  0.00    +0.015 C 
ATOM     13  H   UNL     1       0.275   2.347  -0.592  0.00  0.00    +0.161 HD
ENDROOT
BRANCH   1  18
ATOM     14  C   UNL     1       0.339  -1.118   1.755  0.00  0.00    +0.002 A 
ATOM     15  C   UNL     1       1.131  -0.613   2.771  0.00  0.00    +0.012 A 
ATOM     16  C   UNL     1       0.935   0.678   3.227  0.00  0.00    +0.057 A 
ATOM     17  C   UNL     1      -0.052   1.467   2.669  0.00  0.00    +0.036 A 
ATOM     18  C   UNL     1      -0.848   0.963   1.649  0.00  0.00    +0.041 A 
ATOM     19  C   UNL     1      -0.649  -0.333   1.193  0.00  0.00    +0.024 A 
BRANCH  16  20
ATOM     20  C   UNL     1       1.800   1.224   4.333  0.00  0.00    +0.417 C 
ATOM     21  F   UNL     1       1.205   0.947   5.569  0.00  0.00    -0.166 F 
ATOM     22  F   UNL     1       3.062   0.625   4.278  0.00  0.00    -0.166 F 
ATOM     23  F   UNL     1       1.934   2.608   4.181  0.00  0.00    -0.166 F 
ENDBRANCH  16  20
ENDBRANCH   1  18
BRANCH   3  24
ATOM     24  C   UNL     1      -0.043   4.527  -0.253  0.00  0.00    +0.080 C 
ATOM     25  C   UNL     1       0.679   4.844  -1.564  0.00  0.00    +0.024 C 
ATOM     26  C   UNL     1       1.082   6.320  -1.580  0.00  0.00    +0.002 C 
ATOM     27  C   UNL     1       2.015   6.607  -0.402  0.00  0.00    +0.000 C 
ATOM     28  C   UNL     1       1.293   6.290   0.910  0.00  0.00    +0.002 C 
ATOM     29  C   UNL     1       0.890   4.814   0.926  0.00  0.00    +0.024 C 
ENDBRANCH   3  24
BRANCH   4  30
ATOM     30  N   UNL     1      -3.145   3.258  -1.649  0.00  0.00    -0.292 NA
ATOM     31  C   UNL     1      -2.291   4.191  -2.428  0.00  0.00    +0.085 C 
ATOM     32  C   UNL     1      -2.266   3.554  -3.840  0.00  0.00    +0.017 C 
ATOM     33  C   UNL     1      -2.222   2.039  -3.535  0.00  0.00    +0.017 C 
ATOM     34  C   UNL     1      -2.780   1.900  -2.107  0.00  0.00    +0.085 C 
ENDBRANCH   4  30
TORSDOF 4
