REMARK  Name = ZINC38708626
REMARK  7 active torsions:
REMARK  status: ('A' for Active; 'I' for Inactive)
REMARK    1  A    between atoms: C_1  and  C_2
REMARK    2  A    between atoms: N_8  and  C_32
REMARK    3  A    between atoms: C_13  and  N_18
REMARK    4  A    between atoms: N_18  and  S_19
REMARK    5  A    between atoms: S_19  and  C_22
REMARK    6  A    between atoms: C_22  and  C_23
REMARK    7  A    between atoms: C_23  and  N_24
REMARK                            x       y       z     vdW  Elec       q    Type
REMARK                         _______ _______ _______ _____ _____    ______ ____
ROOT
ATOM      1  C   UNL     1      -0.018   1.503   0.010  0.00  0.00    +0.044 C 
ATOM      2  C   UNL     1       0.002  -0.004   0.002  0.00  0.00    -0.048 A 
ATOM      3  C   UNL     1       0.006  -0.688  -1.200  0.00  0.00    +0.007 A 
ATOM      4  C   UNL     1       0.037  -2.069  -1.208  0.00  0.00    +0.048 A 
ATOM      5  C   UNL     1       0.058  -2.775  -0.013  0.00  0.00    +0.150 A 
ATOM      6  C   UNL     1       0.032  -2.091   1.195  0.00  0.00    +0.079 A 
ATOM      7  C   UNL     1       0.023  -0.700   1.195  0.00  0.00    +0.030 A 
ATOM      8  N   UNL     1      -0.018  -2.764   2.415  0.00  0.00    -0.267 N 
ATOM      9  C   UNL     1       0.640  -3.873   2.726  0.00  0.00    +0.254 C 
ATOM     10  O   UNL     1       0.492  -4.318   3.848  0.00  0.00    -0.270 OA
ATOM     11  C   UNL     1       1.534  -4.604   1.817  0.00  0.00    +0.081 A 
ATOM     12  C   UNL     1       2.709  -5.177   2.313  0.00  0.00    +0.043 A 
ATOM     13  C   UNL     1       3.542  -5.887   1.466  0.00  0.00    +0.075 A 
ATOM     14  C   UNL     1       3.211  -6.033   0.123  0.00  0.00    +0.030 A 
ATOM     15  C   UNL     1       2.057  -5.462  -0.375  0.00  0.00    +0.049 A 
ATOM     16  C   UNL     1       1.219  -4.737   0.461  0.00  0.00    +0.141 A 
ATOM     17  O   UNL     1       0.123  -4.130  -0.052  0.00  0.00    -0.453 OA
ATOM     18  C   UNL     1      -0.880  -2.192   3.453  0.00  0.00    +0.139 C 
ENDROOT
BRANCH  13  19
ATOM     19  N   UNL     1       4.720  -6.458   1.961  0.00  0.00    -0.103 NA
BRANCH  19  20
ATOM     20  S   UNL     1       5.718  -7.307   0.948  0.00  0.00    +0.064 S 
ATOM     21  O   UNL     1       4.945  -8.425   0.532  0.00  0.00    -0.154 OA
ATOM     22  O   UNL     1       6.174  -6.350   0.002  0.00  0.00    -0.154 OA
BRANCH  20  23
ATOM     23  C   UNL     1       7.092  -7.854   1.998  0.00  0.00    +0.210 C 
BRANCH  23  24
ATOM     24  C   UNL     1       8.087  -8.657   1.159  0.00  0.00    +0.141 C 
BRANCH  24  25
ATOM     25  N   UNL     1       9.197  -9.098   2.007  0.00  0.00    -0.241 N 
ATOM     26  C   UNL     1      10.269  -8.301   2.131  0.00  0.00    +0.222 C 
ATOM     27  O   UNL     1      10.297  -7.246   1.536  0.00  0.00    -0.275 OA
ATOM     28  C   UNL     1      11.437  -8.692   2.998  0.00  0.00    +0.097 C 
ATOM     29  C   UNL     1      11.543 -10.220   3.041  0.00  0.00    +0.018 C 
ATOM     30  C   UNL     1      10.204 -10.788   3.523  0.00  0.00    +0.097 C 
ATOM     31  C   UNL     1       9.100 -10.281   2.632  0.00  0.00    +0.222 C 
ATOM     32  O   UNL     1       8.106 -10.957   2.474  0.00  0.00    -0.275 OA
ENDBRANCH  24  25
ENDBRANCH  23  24
ENDBRANCH  20  23
ENDBRANCH  19  20
ENDBRANCH  13  19
TORSDOF 5
