REMARK  Name = ZINC43147407
REMARK  8 active torsions:
REMARK  status: ('A' for Active; 'I' for Inactive)
REMARK    1  A    between atoms: C_1  and  C_2
REMARK    2  A    between atoms: C_9  and  C_11
REMARK    3  A    between atoms: N_13  and  N_14
REMARK    4  A    between atoms: N_17  and  C_18
REMARK    5  A    between atoms: C_18  and  C_19
REMARK    6  A    between atoms: C_19  and  N_24
REMARK    7  A    between atoms: N_24  and  C_25
REMARK    8  A    between atoms: N_24  and  C_26
REMARK                            x       y       z     vdW  Elec       q    Type
REMARK                         _______ _______ _______ _____ _____    ______ ____
ROOT
ATOM      1  N   UNL     1       2.486  -7.700   3.437  0.00  0.00    -0.218 N 
ATOM      2  C   UNL     1       2.389  -8.967   2.986  0.00  0.00    +0.316 C 
ATOM      3  O   UNL     1       2.538  -9.899   3.753  0.00  0.00    -0.251 OA
ATOM      4  N   UNL     1       2.128  -9.200   1.685  0.00  0.00    -0.300 N 
ATOM      5  H   UNL     1       2.674  -7.532   4.374  0.00  0.00    +0.174 HD
ATOM      6  H   UNL     1       2.009  -8.457   1.073  0.00  0.00    +0.150 HD
ENDROOT
BRANCH   1   9
ATOM      7  C   UNL     1       2.411  -5.361   3.005  0.00  0.00    +0.267 C 
ATOM      8  O   UNL     1       2.647  -5.150   4.180  0.00  0.00    -0.268 OA
ATOM      9  N   UNL     1       2.315  -6.627   2.554  0.00  0.00    -0.229 N 
ATOM     10  H   UNL     1       2.126  -6.795   1.617  0.00  0.00    +0.173 HD
BRANCH   7  18
ATOM     11  C   UNL     1       1.590   1.626   0.214  0.00  0.00    +0.008 C 
ATOM     12  C   UNL     1       1.408   0.107   0.186  0.00  0.00    -0.009 C 
ATOM     13  C   UNL     1       2.006  -0.454  -1.107  0.00  0.00    +0.009 C 
ATOM     14  C   UNL     1       1.583  -1.922  -1.251  0.00  0.00    +0.043 C 
ATOM     15  C   UNL     1       1.837  -2.619   0.053  0.00  0.00    -0.006 A 
ATOM     16  C   UNL     1       2.080  -2.031   1.259  0.00  0.00    -0.036 A 
ATOM     17  C   UNL     1       2.290  -2.880   2.336  0.00  0.00    +0.024 A 
ATOM     18  C   UNL     1       2.232  -4.237   2.080  0.00  0.00    +0.076 A 
ATOM     19  S   UNL     1       1.883  -4.265   0.332  0.00  0.00    -0.088 S 
ATOM     20  C   UNL     1       2.114  -0.511   1.393  0.00  0.00    +0.039 C 
ENDBRANCH   7  18
ENDBRANCH   1   9
BRANCH   4  21
ATOM     21  C   UNL     1       2.023 -10.577   1.194  0.00  0.00    +0.094 C 
BRANCH  21  22
ATOM     22  C   UNL     1       1.612 -10.563  -0.279  0.00  0.00    -0.050 C 
ATOM     23  C   UNL     1       0.204  -9.952  -0.430  0.00  0.00    -0.010 C 
ATOM     24  C   UNL     1      -0.453 -10.786  -1.558  0.00  0.00    -0.001 C 
ATOM     25  C   UNL     1       0.069 -12.216  -1.274  0.00  0.00    -0.001 C 
ATOM     26  C   UNL     1       1.526 -12.003  -0.816  0.00  0.00    -0.010 C 
BRANCH  22  27
ATOM     27  N   UNL     1       2.584  -9.791  -1.065  0.00  0.00    +0.381 N 
ATOM     28  C   UNL     1       3.905 -10.427  -0.971  0.00  0.00    -0.096 C 
ATOM     29  C   UNL     1       2.158  -9.753  -2.470  0.00  0.00    -0.096 C 
ATOM     30  H   UNL     1       2.637  -8.850  -0.704  0.00  0.00    -0.082 HD
ENDBRANCH  22  27
ENDBRANCH  21  22
ENDBRANCH   4  21
TORSDOF 5
