REMARK  Name = ZINC56710727
REMARK  11 active torsions:
REMARK  status: ('A' for Active; 'I' for Inactive)
REMARK    1  A    between atoms: C_1  and  C_2
REMARK    2  A    between atoms: C_4  and  O_23
REMARK    3  A    between atoms: C_7  and  N_8
REMARK    4  A    between atoms: N_11  and  C_12
REMARK    5  A    between atoms: C_12  and  C_13
REMARK    6  A    between atoms: C_13  and  C_15
REMARK    7  A    between atoms: C_13  and  N_20
REMARK    8  A    between atoms: N_20  and  C_21
REMARK    9  A    between atoms: N_20  and  C_22
REMARK   10  A    between atoms: O_23  and  C_24
REMARK   11  A    between atoms: C_24  and  C_25
REMARK                            x       y       z     vdW  Elec       q    Type
REMARK                         _______ _______ _______ _____ _____    ______ ____
ROOT
ATOM      1  N   UNL     1       0.326   0.100   2.466  0.00  0.00    -0.269 N 
ATOM      2  C   UNL     1       0.119  -0.602   3.599  0.00  0.00    +0.304 C 
ATOM      3  O   UNL     1       0.058  -1.815   3.559  0.00  0.00    -0.253 OA
ATOM      4  N   UNL     1      -0.020   0.043   4.774  0.00  0.00    -0.300 N 
ATOM      5  H   UNL     1       0.444   1.062   2.506  0.00  0.00    +0.156 HD
ATOM      6  H   UNL     1       0.029   1.011   4.805  0.00  0.00    +0.150 HD
ENDROOT
BRANCH   1  13
ATOM      7  C   UNL     1      -0.702   1.449   0.183  0.00  0.00    +0.046 C 
ATOM      8  C   UNL     1      -0.120   0.062   0.092  0.00  0.00    -0.026 A 
ATOM      9  C   UNL     1      -0.070  -0.587  -1.126  0.00  0.00    +0.050 A 
ATOM     10  C   UNL     1       0.465  -1.864  -1.210  0.00  0.00    +0.122 A 
ATOM     11  C   UNL     1       0.950  -2.490  -0.071  0.00  0.00    +0.047 A 
ATOM     12  C   UNL     1       0.901  -1.842   1.147  0.00  0.00    +0.027 A 
ATOM     13  C   UNL     1       0.371  -0.561   1.231  0.00  0.00    +0.038 A 
BRANCH  10  14
ATOM     14  O   UNL     1       0.513  -2.503  -2.409  0.00  0.00    -0.483 OA
BRANCH  14  15
ATOM     15  C   UNL     1       1.078  -3.816  -2.423  0.00  0.00    +0.324 C 
BRANCH  15  16
ATOM     16  C   UNL     1       1.047  -4.361  -3.827  0.00  0.00    +0.248 C 
ATOM     17  O   UNL     1       0.587  -3.692  -4.728  0.00  0.00    -0.272 OA
ATOM     18  N   UNL     1       1.531  -5.593  -4.082  0.00  0.00    -0.327 N 
ATOM     19  H   UNL     1       1.898  -6.129  -3.362  0.00  0.00    +0.145 HD
ATOM     20  H   UNL     1       1.511  -5.944  -4.986  0.00  0.00    +0.145 HD
ENDBRANCH  15  16
ENDBRANCH  14  15
ENDBRANCH  10  14
ENDBRANCH   1  13
BRANCH   4  21
ATOM     21  C   UNL     1      -0.245  -0.720   6.005  0.00  0.00    +0.095 C 
BRANCH  21  22
ATOM     22  C   UNL     1      -0.490   0.247   7.165  0.00  0.00    -0.014 C 
BRANCH  22  23
ATOM     23  C   UNL     1       0.745   1.079   7.396  0.00  0.00    -0.022 A 
ATOM     24  C   UNL     1       1.004   2.349   7.002  0.00  0.00    +0.009 A 
ATOM     25  C   UNL     1       2.221   2.918   7.330  0.00  0.00    +0.008 A 
ATOM     26  C   UNL     1       3.118   2.188   8.037  0.00  0.00    +0.045 A 
ATOM     27  S   UNL     1       2.244   0.649   8.265  0.00  0.00    -0.103 S 
ENDBRANCH  22  23
BRANCH  22  28
ATOM     28  N   UNL     1      -0.800  -0.517   8.382  0.00  0.00    +0.382 N 
ATOM     29  C   UNL     1      -1.127   0.410   9.473  0.00  0.00    -0.096 C 
ATOM     30  C   UNL     1      -1.947  -1.398   8.127  0.00  0.00    -0.096 C 
ATOM     31  H   UNL     1       0.001  -1.074   8.642  0.00  0.00    -0.082 HD
ENDBRANCH  22  28
ENDBRANCH  21  22
ENDBRANCH   4  21
TORSDOF 8
