REMARK  Name = ZINC41603483
REMARK  3 active torsions:
REMARK  status: ('A' for Active; 'I' for Inactive)
REMARK    1  A    between atoms: C_10  and  N_11
REMARK    2  A    between atoms: N_14  and  C_15
REMARK    3  A    between atoms: C_16  and  C_24
REMARK                            x       y       z     vdW  Elec       q    Type
REMARK                         _______ _______ _______ _____ _____    ______ ____
ROOT
ATOM      1  N   UNL     1       4.871   0.098  -0.043  0.00  0.00    -0.269 N 
ATOM      2  C   UNL     1       6.047  -0.556   0.044  0.00  0.00    +0.309 C 
ATOM      3  O   UNL     1       6.068  -1.771   0.038  0.00  0.00    -0.252 OA
ATOM      4  N   UNL     1       7.198   0.138   0.139  0.00  0.00    -0.262 N 
ATOM      5  H   UNL     1       4.859   1.065  -0.120  0.00  0.00    +0.156 HD
ATOM      6  H   UNL     1       7.181   1.108   0.144  0.00  0.00    +0.157 HD
ENDROOT
BRANCH   4   7
ATOM      7  C   UNL     1       8.409  -0.535   0.229  0.00  0.00    +0.091 A 
ATOM      8  C   UNL     1       9.680   0.009   0.337  0.00  0.00    +0.084 A 
ATOM      9  C   UNL     1      10.790  -0.919   0.417  0.00  0.00    -0.022 A 
ATOM     10  C   UNL     1      10.430  -2.222   0.372  0.00  0.00    -0.021 A 
ATOM     11  S   UNL     1       8.669  -2.194   0.239  0.00  0.00    -0.079 S 
ATOM     12  C   UNL     1      11.357  -3.396   0.429  0.00  0.00    -0.039 C 
ATOM     13  N   UNL     1      12.725  -2.919   0.158  0.00  0.00    +0.382 N 
ATOM     14  C   UNL     1      13.028  -1.770   1.021  0.00  0.00    -0.077 C 
ATOM     15  C   UNL     1      12.258  -0.534   0.544  0.00  0.00    +0.018 C 
ATOM     16  H   UNL     1      13.383  -3.662   0.344  0.00  0.00    -0.085 HD
ATOM     17  H   UNL     1      12.799  -2.642  -0.810  0.00  0.00    -0.085 HD
BRANCH   8  18
ATOM     18  C   UNL     1       9.886   1.426   0.369  0.00  0.00    +0.102 C 
ATOM     19  N   UNL     1      10.050   2.549   0.394  0.00  0.00    -0.191 NA
ENDBRANCH   8  18
ENDBRANCH   4   7
BRANCH   1  29
ATOM     20  C   UNL     1       0.202   0.945  -1.762  0.00  0.00    +0.001 A 
ATOM     21  C   UNL     1       1.389   1.675  -1.794  0.00  0.00    +0.001 A 
ATOM     22  C   UNL     1       2.528   1.184  -1.234  0.00  0.00    +0.010 A 
ATOM     23  C   UNL     1       2.511  -0.076  -0.614  0.00  0.00    +0.003 A 
ATOM     24  C   UNL     1       1.305  -0.819  -0.582  0.00  0.00    -0.016 A 
ATOM     25  C   UNL     1       0.148  -0.279  -1.171  0.00  0.00    +0.008 A 
ATOM     26  C   UNL     1       1.286  -2.079   0.039  0.00  0.00    +0.008 A 
ATOM     27  C   UNL     1       2.421  -2.577   0.602  0.00  0.00    +0.002 A 
ATOM     28  C   UNL     1       3.612  -1.857   0.576  0.00  0.00    +0.024 A 
ATOM     29  C   UNL     1       3.672  -0.617  -0.023  0.00  0.00    +0.042 A 
ENDBRANCH   1  29
TORSDOF 3
