REMARK  Name = ZINC35747706
REMARK  14 active torsions:
REMARK  status: ('A' for Active; 'I' for Inactive)
REMARK    1  A    between atoms: C_1  and  C_2
REMARK    2  A    between atoms: C_2  and  C_3
REMARK    3  A    between atoms: C_3  and  N_4
REMARK    4  A    between atoms: N_4  and  C_5
REMARK    5  A    between atoms: N_4  and  C_25
REMARK    6  A    between atoms: C_5  and  C_6
REMARK    7  A    between atoms: C_12  and  C_17
REMARK    8  A    between atoms: C_20  and  C_24
REMARK    9  A    between atoms: C_22  and  C_23
REMARK   10  A    between atoms: C_25  and  C_26
REMARK   11  A    between atoms: C_26  and  C_28
REMARK   12  A    between atoms: C_26  and  O_32
REMARK   13  A    between atoms: C_28  and  C_29
REMARK   14  A    between atoms: C_29  and  C_30
REMARK                            x       y       z     vdW  Elec       q    Type
REMARK                         _______ _______ _______ _____ _____    ______ ____
ROOT
ATOM      1  C   UNL     1      -2.984  -2.617  -1.610  0.00  0.00    +0.094 A 
ATOM      2  N   UNL     1      -4.148  -3.182  -2.020  0.00  0.00    -0.312 N 
ATOM      3  H   UNL     1      -4.672  -3.702  -1.391  0.00  0.00    +0.170 HD
ATOM      4  C   UNL     1      -4.590  -3.034  -3.283  0.00  0.00    +0.260 A 
ATOM      5  O   UNL     1      -5.638  -3.547  -3.636  0.00  0.00    -0.267 OA
ATOM      6  C   UNL     1      -3.810  -2.265  -4.205  0.00  0.00    +0.080 A 
ATOM      7  C   UNL     1      -4.072  -1.963  -5.607  0.00  0.00    +0.004 A 
ATOM      8  C   UNL     1      -3.180  -1.204  -6.288  0.00  0.00    +0.056 A 
ATOM      9  S   UNL     1      -1.926  -0.850  -5.071  0.00  0.00    -0.076 S 
ATOM     10  C   UNL     1      -2.622  -1.720  -3.691  0.00  0.00    +0.116 A 
ATOM     11  N   UNL     1      -2.254  -1.905  -2.426  0.00  0.00    -0.229 NA
ENDROOT
BRANCH   7  12
ATOM     12  C   UNL     1      -5.292  -2.477  -6.275  0.00  0.00    -0.014 A 
ATOM     13  C   UNL     1      -5.184  -3.399  -7.316  0.00  0.00    +0.009 A 
ATOM     14  C   UNL     1      -6.322  -3.874  -7.934  0.00  0.00    +0.004 A 
ATOM     15  C   UNL     1      -7.569  -3.438  -7.523  0.00  0.00    -0.050 A 
ATOM     16  C   UNL     1      -7.682  -2.524  -6.491  0.00  0.00    +0.007 A 
ATOM     17  C   UNL     1      -6.551  -2.045  -5.862  0.00  0.00    -0.042 A 
ATOM     18  C   UNL     1      -6.676  -1.054  -4.734  0.00  0.00    +0.044 C 
ATOM     19  C   UNL     1      -8.809  -3.961  -8.202  0.00  0.00    +0.044 C 
ENDBRANCH   7  12
BRANCH   1  20
ATOM     20  C   UNL     1      -2.529  -2.809  -0.186  0.00  0.00    -0.003 C 
BRANCH  20  21
ATOM     21  N   UNL     1      -1.257  -2.105   0.021  0.00  0.00    +0.386 N 
ATOM     22  H   UNL     1      -0.584  -2.419  -0.661  0.00  0.00    -0.081 HD
BRANCH  21  23
ATOM     23  C   UNL     1      -1.468  -0.659  -0.127  0.00  0.00    -0.078 C 
BRANCH  23  25
ATOM     24  C   UNL     1      -2.707   1.321   0.761  0.00  0.00    +0.002 C 
ATOM     25  C   UNL     1      -2.408  -0.165   0.974  0.00  0.00    -0.022 C 
ENDBRANCH  23  25
ENDBRANCH  21  23
BRANCH  21  26
ATOM     26  C   UNL     1      -0.754  -2.390   1.372  0.00  0.00    -0.047 C 
BRANCH  26  27
ATOM     27  C   UNL     1       0.628  -1.757   1.545  0.00  0.00    +0.098 C 
BRANCH  27  28
ATOM     28  O   UNL     1       1.524  -2.295   0.570  0.00  0.00    -0.394 OA
ATOM     29  H   UNL     1       1.640  -3.253   0.628  0.00  0.00    +0.210 HD
ENDBRANCH  27  28
BRANCH  27  30
ATOM     30  C   UNL     1       1.157  -2.064   2.948  0.00  0.00    +0.033 C 
BRANCH  30  31
ATOM     31  C   UNL     1       2.482  -1.329   3.165  0.00  0.00    +0.029 C 
BRANCH  31  32
ATOM     32  C   UNL     1       3.003  -1.630   4.547  0.00  0.00    -0.034 C 
ATOM     33  C   UNL     1       4.209  -2.117   4.700  0.00  0.00    +0.004 C 
ENDBRANCH  31  32
ENDBRANCH  30  31
ENDBRANCH  27  30
ENDBRANCH  26  27
ENDBRANCH  21  26
ENDBRANCH  20  21
ENDBRANCH   1  20
TORSDOF 11
