REMARK  Name = ZINC54266660
REMARK  10 active torsions:
REMARK  status: ('A' for Active; 'I' for Inactive)
REMARK    1  A    between atoms: C_1  and  C_2
REMARK    2  A    between atoms: C_2  and  C_3
REMARK    3  A    between atoms: C_3  and  N_4
REMARK    4  A    between atoms: N_4  and  C_5
REMARK    5  A    between atoms: C_5  and  C_6
REMARK    6  A    between atoms: C_6  and  N_7
REMARK    7  A    between atoms: N_7  and  S_8
REMARK    8  A    between atoms: S_8  and  C_11
REMARK    9  A    between atoms: C_12  and  C_20
REMARK   10  A    between atoms: C_15  and  C_18
REMARK                            x       y       z     vdW  Elec       q    Type
REMARK                         _______ _______ _______ _____ _____    ______ ____
ROOT
ATOM      1  S   UNL     1       2.033  -6.511   4.317  0.00  0.00    +0.060 S 
ATOM      2  O   UNL     1       2.940  -6.695   5.395  0.00  0.00    -0.153 OA
ATOM      3  O   UNL     1       0.695  -6.989   4.357  0.00  0.00    -0.153 OA
ENDROOT
BRANCH   1   4
ATOM      4  C   UNL     1       2.784  -7.234   2.897  0.00  0.00    +0.128 A 
ATOM      5  C   UNL     1       4.162  -7.270   2.787  0.00  0.00    -0.004 A 
ATOM      6  C   UNL     1       4.752  -7.838   1.672  0.00  0.00    +0.046 A 
ATOM      7  C   UNL     1       3.963  -8.370   0.667  0.00  0.00    +0.025 A 
ATOM      8  C   UNL     1       2.586  -8.335   0.778  0.00  0.00    -0.029 A 
ATOM      9  C   UNL     1       1.996  -7.771   1.895  0.00  0.00    +0.070 A 
ATOM     10 CL   UNL     1       0.266  -7.733   2.037  0.00  0.00    -0.081 Cl
ATOM     11  C   UNL     1       1.727  -8.914  -0.317  0.00  0.00    +0.045 C 
ATOM     12 CL   UNL     1       6.482  -7.883   1.534  0.00  0.00    -0.083 Cl
ATOM     13  C   UNL     1       5.021  -6.690   3.881  0.00  0.00    +0.047 C 
ENDBRANCH   1   4
BRANCH   1  14
ATOM     14  N   UNL     1       1.944  -4.880   4.047  0.00  0.00    -0.192 NA
ATOM     15  H   UNL     1       2.452  -4.268   4.603  0.00  0.00    +0.148 HD
BRANCH  14  16
ATOM     16  C   UNL     1       1.100  -4.361   2.968  0.00  0.00    +0.087 C 
BRANCH  16  17
ATOM     17  C   UNL     1       0.896  -2.856   3.159  0.00  0.00    -0.066 C 
BRANCH  17  18
ATOM     18  N   UNL     1       0.049  -2.336   2.078  0.00  0.00    +0.380 N 
ATOM     19  H   UNL     1      -0.846  -2.801   2.098  0.00  0.00    -0.086 HD
ATOM     20  H   UNL     1       0.496  -2.505   1.189  0.00  0.00    -0.086 HD
BRANCH  18  21
ATOM     21  C   UNL     1      -0.147  -0.891   2.261  0.00  0.00    -0.083 C 
BRANCH  21  23
ATOM     22  C   UNL     1      -1.233   1.155   1.325  0.00  0.00    +0.002 C 
ATOM     23  C   UNL     1      -1.029  -0.349   1.135  0.00  0.00    -0.022 C 
ENDBRANCH  21  23
ENDBRANCH  18  21
ENDBRANCH  17  18
ENDBRANCH  16  17
ENDBRANCH  14  16
ENDBRANCH   1  14
TORSDOF 7
