REMARK  Name = ZINC63131364
REMARK  5 active torsions:
REMARK  status: ('A' for Active; 'I' for Inactive)
REMARK    1  A    between atoms: C_1  and  S_2
REMARK    2  A    between atoms: S_2  and  C_5
REMARK    3  A    between atoms: C_8  and  S_11
REMARK    4  A    between atoms: S_11  and  C_12
REMARK    5  A    between atoms: C_17  and  C_18
REMARK                            x       y       z     vdW  Elec       q    Type
REMARK                         _______ _______ _______ _____ _____    ______ ____
ROOT
ATOM      1  C   UNL     1       4.717  -1.503  -4.853  0.00  0.00    +0.024 A 
ATOM      2  C   UNL     1       5.086  -1.273  -3.533  0.00  0.00    +0.016 A 
ATOM      3  C   UNL     1       6.420  -1.236  -3.184  0.00  0.00    +0.003 A 
ATOM      4  C   UNL     1       7.402  -1.427  -4.143  0.00  0.00    +0.021 A 
ATOM      5  C   UNL     1       7.056  -1.657  -5.459  0.00  0.00    +0.052 A 
ATOM      6  C   UNL     1       5.708  -1.703  -5.827  0.00  0.00    +0.044 A 
ATOM      7 CL   UNL     1       8.292  -1.894  -6.654  0.00  0.00    -0.083 Cl
ENDROOT
BRANCH   6   8
ATOM      8  C   UNL     1       5.330  -1.953  -7.230  0.00  0.00    +0.097 C 
ATOM      9  N   UNL     1       5.610  -3.128  -7.796  0.00  0.00    -0.387 N 
ATOM     10  N   UNL     1       4.708  -1.006  -7.933  0.00  0.00    -0.344 N 
ATOM     11  H   UNL     1       6.062  -3.817  -7.285  0.00  0.00    +0.157 HD
ATOM     12  H   UNL     1       4.504  -0.151  -7.521  0.00  0.00    +0.144 HD
ATOM     13  H   UNL     1       4.459  -1.171  -8.856  0.00  0.00    +0.144 HD
ATOM     14  H   UNL     1       5.361  -3.293  -8.719  0.00  0.00    +0.157 HD
ENDBRANCH   6   8
BRANCH   1  15
ATOM     15  S   UNL     1       3.013  -1.551  -5.301  0.00  0.00    -0.089 S 
BRANCH  15  19
ATOM     16  C   UNL     1       0.848  -0.405  -1.491  0.00  0.00    +0.088 A 
ATOM     17  C   UNL     1       1.037  -1.739  -1.803  0.00  0.00    +0.028 A 
ATOM     18  C   UNL     1       1.697  -2.092  -2.963  0.00  0.00    +0.017 A 
ATOM     19  C   UNL     1       2.170  -1.105  -3.819  0.00  0.00    +0.013 A 
ATOM     20  C   UNL     1       1.978   0.234  -3.503  0.00  0.00    +0.017 A 
ATOM     21  C   UNL     1       1.314   0.580  -2.343  0.00  0.00    +0.028 A 
BRANCH  16  23
ATOM     22  C   UNL     1      -1.744   0.136  -0.478  0.00  0.00    +0.200 C 
ATOM     23  S   UNL     1       0.006   0.041  -0.009  0.00  0.00    -0.006 S 
ATOM     24  O   UNL     1       0.497   1.335   0.312  0.00  0.00    -0.170 OA
ATOM     25  O   UNL     1       0.218  -1.054   0.872  0.00  0.00    -0.170 OA
ENDBRANCH  16  23
ENDBRANCH  15  19
ENDBRANCH   1  15
TORSDOF 4
