REMARK  Name = ZINC12653415
REMARK  13 active torsions:
REMARK  status: ('A' for Active; 'I' for Inactive)
REMARK    1  A    between atoms: C_1  and  C_2
REMARK    2  A    between atoms: C_2  and  C_39
REMARK    3  A    between atoms: C_7  and  C_38
REMARK    4  A    between atoms: C_10  and  C_16
REMARK    5  A    between atoms: C_13  and  O_15
REMARK    6  A    between atoms: C_22  and  C_32
REMARK    7  A    between atoms: C_22  and  C_33
REMARK    8  A    between atoms: C_26  and  C_31
REMARK    9  A    between atoms: C_29  and  C_30
REMARK   10  A    between atoms: C_33  and  O_35
REMARK   11  A    between atoms: O_35  and  C_36
REMARK   12  A    between atoms: C_36  and  C_37
REMARK   13  A    between atoms: C_37  and  N_86
REMARK                            x       y       z     vdW  Elec       q    Type
REMARK                         _______ _______ _______ _____ _____    ______ ____
ROOT
ATOM      1  C   UNL     1       0.074   4.380  -1.119  0.00  0.00    +0.014 C 
ATOM      2  C   UNL     1      -1.248   3.662  -0.883  0.00  0.00    -0.006 C 
ATOM      3  C   UNL     1      -1.654   3.550   0.610  0.00  0.00    +0.004 C 
ATOM      4  C   UNL     1      -3.115   3.310   0.757  0.00  0.00    +0.005 C 
ATOM      5  C   UNL     1      -3.572   3.472   2.201  0.00  0.00    +0.008 C 
ATOM      6  C   UNL     1      -2.830   2.414   3.104  0.00  0.00    -0.016 C 
ATOM      7  C   UNL     1      -1.339   2.277   2.794  0.00  0.00    +0.025 C 
ATOM      8  C   UNL     1      -0.859   2.477   1.370  0.00  0.00    -0.022 C 
ATOM      9  C   UNL     1      -0.751   1.125   0.625  0.00  0.00    +0.010 C 
ATOM     10  C   UNL     1      -0.161   1.330  -0.754  0.00  0.00    +0.032 C 
ATOM     11  C   UNL     1      -1.145   2.225  -1.561  0.00  0.00    +0.120 C 
ATOM     12  C   UNL     1       0.557   3.040   1.561  0.00  0.00    +0.012 C 
ATOM     13  C   UNL     1      -0.820   1.015   3.411  0.00  0.00    -0.022 C 
ATOM     14  C   UNL     1      -1.436   0.125   3.995  0.00  0.00    +0.000 C 
ATOM     15  C   UNL     1      -2.967   0.250   4.176  0.00  0.00    -0.041 C 
ATOM     16  C   UNL     1      -3.522  -0.561   5.016  0.00  0.00    -0.052 C 
ATOM     17  C   UNL     1      -2.723  -1.617   5.858  0.00  0.00    +0.050 C 
ATOM     18  C   UNL     1      -3.284  -2.949   5.569  0.00  0.00    +0.075 C 
ATOM     19  C   UNL     1      -4.734  -3.128   5.962  0.00  0.00    +0.093 C 
ATOM     20  C   UNL     1      -5.541  -2.003   5.253  0.00  0.00    +0.144 C 
ATOM     21  O   UNL     1      -6.561  -2.372   4.649  0.00  0.00    -0.296 OA
ATOM     22  C   UNL     1      -5.030  -0.596   5.199  0.00  0.00    +0.048 C 
ATOM     23  C   UNL     1      -5.758   0.148   4.095  0.00  0.00    +0.019 C 
ATOM     24  C   UNL     1      -5.045   1.504   3.826  0.00  0.00    +0.013 C 
ATOM     25  C   UNL     1      -3.593   1.197   3.302  0.00  0.00    -0.001 C 
ATOM     26  C   UNL     1      -3.866   0.509   1.969  0.00  0.00    +0.016 C 
ATOM     27  C   UNL     1      -5.374  -0.013   6.498  0.00  0.00    +0.024 C 
ATOM     28  C   UNL     1      -2.471  -3.968   6.473  0.00  0.00    +0.023 C 
ATOM     29  C   UNL     1      -2.805   3.158   4.479  0.00  0.00    +0.012 C 
ATOM     30  C   UNL     1      -2.314   4.438  -1.691  0.00  0.00    +0.014 C 
ENDROOT
BRANCH  11  31
ATOM     31  O   UNL     1      -0.704   2.363  -2.928  0.00  0.00    -0.391 OA
ATOM     32  H   UNL     1      -0.639   1.526  -3.408  0.00  0.00    +0.210 HD
ENDBRANCH  11  31
BRANCH  18  33
ATOM     33  C   UNL     1      -3.083  -3.295   4.131  0.00  0.00    +0.314 C 
ATOM     34  O   UNL     1      -2.661  -2.463   3.363  0.00  0.00    -0.250 OA
BRANCH  33  35
ATOM     35  O   UNL     1      -3.371  -4.530   3.691  0.00  0.00    -0.466 OA
BRANCH  35  36
ATOM     36  C   UNL     1      -3.151  -4.795   2.281  0.00  0.00    +0.213 C 
BRANCH  36  37
ATOM     37  C   UNL     1      -3.533  -6.243   1.969  0.00  0.00    -0.045 C 
BRANCH  37  40
ATOM     38  H   UNL     1      -5.252  -7.375   1.978  0.00  0.00    -0.090 HD
ATOM     39  H   UNL     1      -5.241  -6.161   3.115  0.00  0.00    -0.090 HD
ATOM     40  N   UNL     1      -4.984  -6.410   2.161  0.00  0.00    +0.380 N 
ATOM     41  H   UNL     1      -5.484  -5.794   1.508  0.00  0.00    -0.090 HD
ENDBRANCH  37  40
ENDBRANCH  36  37
ENDBRANCH  35  36
ENDBRANCH  33  35
ENDBRANCH  18  33
TORSDOF 6
