REMARK  Name = ZINC53115731
REMARK  7 active torsions:
REMARK  status: ('A' for Active; 'I' for Inactive)
REMARK    1  A    between atoms: C_1  and  C_2
REMARK    2  A    between atoms: C_7  and  C_9
REMARK    3  A    between atoms: C_7  and  N_11
REMARK    4  A    between atoms: C_9  and  O_10
REMARK    5  A    between atoms: N_11  and  C_12
REMARK    6  A    between atoms: C_12  and  C_13
REMARK    7  A    between atoms: C_18  and  O_19
REMARK                            x       y       z     vdW  Elec       q    Type
REMARK                         _______ _______ _______ _____ _____    ______ ____
ROOT
ATOM      1  N   UNL     1       1.420  -2.627   2.293  0.00  0.00    +0.387 N 
ATOM      2  H   UNL     1       1.561  -3.612   2.130  0.00  0.00    -0.085 HD
ATOM      3  H   UNL     1       2.312  -2.181   2.451  0.00  0.00    -0.085 HD
ENDROOT
BRANCH   1   9
ATOM      4  C   UNL     1      -0.121   1.631   0.300  0.00  0.00    +0.007 C 
ATOM      5  C   UNL     1      -0.013   0.118   0.101  0.00  0.00    -0.015 C 
ATOM      6  C   UNL     1       0.820  -0.173  -1.149  0.00  0.00    +0.003 C 
ATOM      7  C   UNL     1       0.928  -1.686  -1.349  0.00  0.00    -0.001 C 
ATOM      8  C   UNL     1       1.604  -2.314  -0.129  0.00  0.00    -0.010 C 
ATOM      9  C   UNL     1       0.771  -2.023   1.122  0.00  0.00    -0.044 C 
ATOM     10  C   UNL     1       0.663  -0.510   1.321  0.00  0.00    -0.007 C 
BRANCH   9  11
ATOM     11  C   UNL     1      -0.628  -2.617   0.952  0.00  0.00    +0.143 C 
BRANCH  11  12
ATOM     12  O   UNL     1      -0.537  -4.042   0.892  0.00  0.00    -0.396 OA
ATOM     13  H   UNL     1      -1.389  -4.486   0.784  0.00  0.00    +0.209 HD
ENDBRANCH  11  12
ENDBRANCH   9  11
ENDBRANCH   1   9
BRANCH   1  14
ATOM     14  C   UNL     1       0.566  -2.443   3.474  0.00  0.00    -0.042 C 
BRANCH  14  15
ATOM     15  C   UNL     1       1.286  -2.948   4.698  0.00  0.00    -0.020 A 
ATOM     16  C   UNL     1       0.995  -4.200   5.205  0.00  0.00    +0.025 A 
ATOM     17  C   UNL     1       1.655  -4.664   6.329  0.00  0.00    +0.043 A 
ATOM     18  C   UNL     1       2.609  -3.875   6.948  0.00  0.00    +0.043 A 
ATOM     19  C   UNL     1       2.904  -2.622   6.444  0.00  0.00    +0.084 A 
ATOM     20  C   UNL     1       2.246  -2.158   5.313  0.00  0.00    +0.136 A 
ATOM     21 CL   UNL     1       4.100  -1.633   7.221  0.00  0.00    -0.080 Cl
ATOM     22 CL   UNL     1       1.286  -6.237   6.964  0.00  0.00    -0.083 Cl
BRANCH  20  23
ATOM     23  O   UNL     1       2.538  -0.928   4.812  0.00  0.00    -0.505 OA
ATOM     24  H   UNL     1       2.000  -0.215   5.181  0.00  0.00    +0.292 HD
ENDBRANCH  20  23
ENDBRANCH  14  15
ENDBRANCH   1  14
TORSDOF 6
