REMARK  Name = ZINC00207998
REMARK  7 active torsions:
REMARK  status: ('A' for Active; 'I' for Inactive)
REMARK    1  A    between atoms: C_1  and  O_2
REMARK    2  A    between atoms: O_2  and  C_3
REMARK    3  A    between atoms: C_5  and  C_10
REMARK    4  A    between atoms: C_8  and  O_9
REMARK    5  A    between atoms: C_15  and  N_24
REMARK    6  A    between atoms: C_19  and  N_23
REMARK    7  A    between atoms: C_20  and  C_21
REMARK                            x       y       z     vdW  Elec       q    Type
REMARK                         _______ _______ _______ _____ _____    ______ ____
ROOT
ATOM      1  C   UNL     1       1.296  -0.768  -0.013  0.00  0.00    +0.098 C 
ATOM      2  C   UNL     1       2.428   0.134  -0.430  0.00  0.00    +0.008 A 
ATOM      3  C   UNL     1       3.625  -0.424  -0.844  0.00  0.00    +0.010 A 
ATOM      4  C   UNL     1       4.674   0.385  -1.230  0.00  0.00    +0.023 A 
ATOM      5  C   UNL     1       4.531   1.767  -1.202  0.00  0.00    +0.028 A 
ATOM      6  C   UNL     1       3.332   2.329  -0.787  0.00  0.00    +0.069 A 
ATOM      7  C   UNL     1       2.279   1.512  -0.400  0.00  0.00    +0.136 A 
ATOM      8  O   UNL     1       1.114   2.076   0.003  0.00  0.00    -0.441 OA
ATOM      9  C   UNL     1      -0.016   1.350   0.009  0.00  0.00    +0.199 C 
ATOM     10  C   UNL     1       0.002  -0.004   0.002  0.00  0.00    +0.098 C 
ENDROOT
BRANCH   1  13
ATOM     11  C   UNL     1       1.943  -3.176   2.825  0.00  0.00    +0.162 A 
ATOM     12  C   UNL     1       1.685  -2.675   1.559  0.00  0.00    +0.054 A 
ATOM     13  C   UNL     1       1.572  -1.311   1.365  0.00  0.00    -0.031 A 
ATOM     14  C   UNL     1       1.705  -0.444   2.434  0.00  0.00    +0.008 A 
ATOM     15  C   UNL     1       1.957  -0.938   3.700  0.00  0.00    +0.049 A 
ATOM     16  C   UNL     1       2.077  -2.304   3.901  0.00  0.00    +0.158 A 
BRANCH  11  18
ATOM     17  C   UNL     1       1.911  -5.352   1.866  0.00  0.00    +0.277 C 
ATOM     18  O   UNL     1       2.060  -4.517   3.016  0.00  0.00    -0.491 OA
ENDBRANCH  11  18
BRANCH  16  19
ATOM     19  O   UNL     1       2.324  -2.791   5.146  0.00  0.00    -0.503 OA
ATOM     20  H   UNL     1       1.527  -2.986   5.658  0.00  0.00    +0.292 HD
ENDBRANCH  16  19
ENDBRANCH   1  13
BRANCH   9  21
ATOM     21  N   UNL     1      -1.226   1.999   0.019  0.00  0.00    -0.328 N 
ATOM     22  H   UNL     1      -2.050   1.489   0.020  0.00  0.00    +0.145 HD
ATOM     23  H   UNL     1      -1.255   2.969   0.024  0.00  0.00    +0.145 HD
ENDBRANCH   9  21
BRANCH   5  24
ATOM     24  N   UNL     1       5.591   2.589  -1.592  0.00  0.00    -0.358 N 
ATOM     25  H   UNL     1       5.489   3.553  -1.573  0.00  0.00    +0.142 HD
ATOM     26  H   UNL     1       6.428   2.195  -1.883  0.00  0.00    +0.142 HD
ENDBRANCH   5  24
BRANCH  10  27
ATOM     27  C   UNL     1      -1.237  -0.723   0.010  0.00  0.00    +0.101 C 
ATOM     28  N   UNL     1      -2.219  -1.292   0.016  0.00  0.00    -0.191 NA
ENDBRANCH  10  27
TORSDOF 6
