REMARK  Name = ZINC15445757
REMARK  10 active torsions:
REMARK  status: ('A' for Active; 'I' for Inactive)
REMARK    1  A    between atoms: C_1  and  C_2
REMARK    2  A    between atoms: C_2  and  C_3
REMARK    3  A    between atoms: C_3  and  C_4
REMARK    4  A    between atoms: C_4  and  N_5
REMARK    5  A    between atoms: C_9  and  C_11
REMARK    6  A    between atoms: C_11  and  N_12
REMARK    7  A    between atoms: N_12  and  C_13
REMARK    8  A    between atoms: N_12  and  C_14
REMARK    9  A    between atoms: C_14  and  C_15
REMARK   10  A    between atoms: N_17  and  C_18
REMARK                            x       y       z     vdW  Elec       q    Type
REMARK                         _______ _______ _______ _____ _____    ______ ____
ROOT
ATOM      1  N   UNL     1      -7.955  -7.715  -2.121  0.00  0.00    +0.389 N 
ATOM      2  C   UNL     1      -8.955  -8.211  -3.076  0.00  0.00    -0.095 C 
ATOM      3  H   UNL     1      -7.040  -8.044  -2.390  0.00  0.00    -0.081 HD
ENDROOT
BRANCH   1   4
ATOM      4  C   UNL     1      -7.967  -6.246  -2.119  0.00  0.00    +0.019 C 
BRANCH   4   9
ATOM      5  N   UNL     1      -6.979  -2.634  -5.134  0.00  0.00    -0.299 N 
ATOM      6  C   UNL     1      -7.048  -3.959  -4.902  0.00  0.00    +0.306 C 
ATOM      7  O   UNL     1      -6.747  -4.746  -5.778  0.00  0.00    -0.252 OA
ATOM      8  N   UNL     1      -7.449  -4.413  -3.698  0.00  0.00    -0.242 N 
ATOM      9  C   UNL     1      -7.518  -5.739  -3.466  0.00  0.00    +0.204 C 
ATOM     10  O   UNL     1      -7.218  -6.524  -4.340  0.00  0.00    -0.277 OA
ATOM     11  H   UNL     1      -7.219  -2.006  -4.435  0.00  0.00    +0.150 HD
ATOM     12  H   UNL     1      -7.689  -3.785  -2.999  0.00  0.00    +0.159 HD
BRANCH   5  13
ATOM     13  C   UNL     1      -6.543  -2.141  -6.443  0.00  0.00    +0.106 C 
BRANCH  13  14
ATOM     14  C   UNL     1      -6.554  -0.611  -6.442  0.00  0.00    +0.018 C 
BRANCH  14  16
ATOM     15  C   UNL     1      -6.110   1.434  -7.807  0.00  0.00    +0.004 C 
ATOM     16  C   UNL     1      -6.098  -0.096  -7.809  0.00  0.00    -0.002 C 
ENDBRANCH  14  16
ENDBRANCH  13  14
ENDBRANCH   5  13
ENDBRANCH   4   9
ENDBRANCH   1   4
BRANCH   1  17
ATOM     17  C   UNL     1      -8.277  -8.208  -0.775  0.00  0.00    +0.019 C 
BRANCH  17  18
ATOM     18  C   UNL     1      -8.146  -9.709  -0.746  0.00  0.00    +0.201 C 
ATOM     19  O   UNL     1      -7.816 -10.309  -1.747  0.00  0.00    -0.278 OA
ATOM     20  N   UNL     1      -8.394 -10.385   0.394  0.00  0.00    -0.285 N 
ATOM     21  H   UNL     1      -8.586  -9.901   1.213  0.00  0.00    +0.155 HD
BRANCH  20  22
ATOM     22  C   UNL     1      -8.375 -11.785   0.396  0.00  0.00    +0.070 A 
ATOM     23  C   UNL     1      -7.198 -12.465   0.685  0.00  0.00    +0.064 A 
ATOM     24  C   UNL     1      -7.183 -13.847   0.686  0.00  0.00    +0.022 A 
ATOM     25  C   UNL     1      -8.337 -14.553   0.398  0.00  0.00    +0.003 A 
ATOM     26  C   UNL     1      -9.510 -13.880   0.110  0.00  0.00    +0.022 A 
ATOM     27  C   UNL     1      -9.534 -12.498   0.113  0.00  0.00    +0.064 A 
ATOM     28 CL   UNL     1     -11.008 -11.653  -0.242  0.00  0.00    -0.082 Cl
ATOM     29 CL   UNL     1      -5.749 -11.580   1.045  0.00  0.00    -0.082 Cl
ENDBRANCH  20  22
ENDBRANCH  17  18
ENDBRANCH   1  17
TORSDOF 8
