REMARK  Name = ZINC08327822
REMARK  3 active torsions:
REMARK  status: ('A' for Active; 'I' for Inactive)
REMARK    1  A    between atoms: C_3  and  C_11
REMARK    2  A    between atoms: N_16  and  S_19
REMARK    3  A    between atoms: S_19  and  C_22
REMARK                            x       y       z     vdW  Elec       q    Type
REMARK                         _______ _______ _______ _____ _____    ______ ____
ROOT
ATOM      1  C   UNL     1      -3.871   3.554  -3.707  0.00  0.00    +0.250 C 
ATOM      2  O   UNL     1      -3.624   4.581  -4.310  0.00  0.00    -0.270 OA
ATOM      3  N   UNL     1      -3.364   3.358  -2.474  0.00  0.00    -0.295 N 
ATOM      4  C   UNL     1      -2.442   4.336  -1.880  0.00  0.00    +0.125 C 
ATOM      5  C   UNL     1      -1.153   3.611  -1.473  0.00  0.00    +0.128 C 
ATOM      6  N   UNL     1      -1.512   2.414  -0.698  0.00  0.00    -0.174 NA
ATOM      7  C   UNL     1      -2.430   1.433  -1.295  0.00  0.00    +0.128 C 
ATOM      8  C   UNL     1      -3.723   2.162  -1.699  0.00  0.00    +0.125 C 
ENDROOT
BRANCH   1  11
ATOM      9  C   UNL     1      -6.615   1.061  -4.273  0.00  0.00    +0.018 A 
ATOM     10  C   UNL     1      -5.845   2.027  -3.649  0.00  0.00    +0.018 A 
ATOM     11  C   UNL     1      -4.725   2.524  -4.326  0.00  0.00    +0.075 A 
ATOM     12  C   UNL     1      -4.433   2.027  -5.608  0.00  0.00    +0.111 A 
ATOM     13  C   UNL     1      -6.261   0.617  -5.535  0.00  0.00    +0.084 A 
ATOM     14  N   UNL     1      -3.335   2.507  -6.298  0.00  0.00    -0.316 N 
ATOM     15  C   UNL     1      -2.071   2.006  -5.700  0.00  0.00    +0.106 C 
ATOM     16  C   UNL     1      -1.044   2.179  -6.847  0.00  0.00    +0.020 C 
ATOM     17  C   UNL     1      -1.867   1.820  -8.105  0.00  0.00    +0.020 C 
ATOM     18  C   UNL     1      -3.337   2.027  -7.697  0.00  0.00    +0.106 C 
ATOM     19  N   UNL     1      -5.183   1.071  -6.229  0.00  0.00    -0.349 N 
ATOM     20  H   UNL     1      -4.948   0.716  -7.163  0.00  0.00    +0.167 HD
ENDBRANCH   1  11
BRANCH   6  21
ATOM     21  S   UNL     1      -0.889   2.173   0.817  0.00  0.00    +0.061 S 
ATOM     22  O   UNL     1      -0.939   0.773   1.058  0.00  0.00    -0.153 OA
ATOM     23  O   UNL     1       0.322   2.914   0.880  0.00  0.00    -0.153 OA
BRANCH  21  24
ATOM     24  C   UNL     1      -1.998   2.922   1.962  0.00  0.00    +0.106 A 
ATOM     25  C   UNL     1      -1.823   4.243   2.330  0.00  0.00    +0.031 A 
ATOM     26  C   UNL     1      -2.695   4.833   3.225  0.00  0.00    +0.040 A 
ATOM     27  C   UNL     1      -3.739   4.098   3.761  0.00  0.00    +0.124 A 
ATOM     28  C   UNL     1      -3.910   2.773   3.396  0.00  0.00    +0.040 A 
ATOM     29  C   UNL     1      -3.040   2.187   2.497  0.00  0.00    +0.031 A 
ATOM     30  F   UNL     1      -4.589   4.672   4.639  0.00  0.00    -0.205 F 
ENDBRANCH  21  24
ENDBRANCH   6  21
TORSDOF 3
