REMARK  Name = ZINC48752141
REMARK  10 active torsions:
REMARK  status: ('A' for Active; 'I' for Inactive)
REMARK    1  A    between atoms: C_1  and  N_2
REMARK    2  A    between atoms: C_3  and  C_5
REMARK    3  A    between atoms: C_5  and  C_6
REMARK    4  A    between atoms: C_11  and  N_12
REMARK    5  A    between atoms: C_13  and  C_15
REMARK    6  A    between atoms: N_17  and  C_18
REMARK    7  A    between atoms: C_18  and  C_19
REMARK    8  A    between atoms: C_19  and  N_24
REMARK    9  A    between atoms: N_24  and  C_25
REMARK   10  A    between atoms: N_24  and  C_26
REMARK                            x       y       z     vdW  Elec       q    Type
REMARK                         _______ _______ _______ _____ _____    ______ ____
ROOT
ATOM      1  N   UNL     1       3.422  -2.372  -1.107  0.00  0.00    -0.277 N 
ATOM      2  C   UNL     1       4.751  -2.593  -1.094  0.00  0.00    +0.303 C 
ATOM      3  O   UNL     1       5.310  -2.990  -2.096  0.00  0.00    -0.265 OA
ATOM      4  H   UNL     1       2.985  -1.996  -0.327  0.00  0.00    +0.155 HD
ENDROOT
BRANCH   1  10
ATOM      5  C   UNL     1       1.373  -3.158  -2.114  0.00  0.00    -0.017 A 
ATOM      6  C   UNL     1       0.634  -3.459  -3.241  0.00  0.00    +0.006 A 
ATOM      7  C   UNL     1       1.187  -3.294  -4.498  0.00  0.00    +0.000 A 
ATOM      8  C   UNL     1       2.482  -2.827  -4.631  0.00  0.00    +0.002 A 
ATOM      9  C   UNL     1       3.227  -2.525  -3.509  0.00  0.00    +0.023 A 
ATOM     10  C   UNL     1       2.672  -2.683  -2.245  0.00  0.00    +0.037 A 
BRANCH   5  11
ATOM     11  C   UNL     1       0.770  -3.338  -0.745  0.00  0.00    +0.132 C 
BRANCH  11  14
ATOM     12  C   UNL     1      -0.982  -0.680   1.381  0.00  0.00    +0.128 C 
ATOM     13  N   UNL     1      -0.413  -1.952   0.927  0.00  0.00    -0.318 N 
ATOM     14  C   UNL     1       0.185  -2.030  -0.278  0.00  0.00    +0.217 C 
ATOM     15  O   UNL     1       0.251  -1.048  -0.987  0.00  0.00    -0.275 OA
ATOM     16  H   UNL     1      -0.466  -2.737   1.495  0.00  0.00    +0.148 HD
ENDBRANCH  11  14
ENDBRANCH   5  11
ENDBRANCH   1  10
BRANCH   2  17
ATOM     17  C   UNL     1       5.537  -2.349   0.152  0.00  0.00    +0.299 C 
ATOM     18  O   UNL     1       4.978  -1.952   1.154  0.00  0.00    -0.265 OA
ATOM     19  N   UNL     1       6.866  -2.571   0.165  0.00  0.00    -0.309 N 
ATOM     20  H   UNL     1       7.313  -2.888  -0.635  0.00  0.00    +0.149 HD
BRANCH  19  21
ATOM     21  C   UNL     1       7.637  -2.332   1.388  0.00  0.00    +0.093 C 
BRANCH  21  22
ATOM     22  C   UNL     1       9.126  -2.536   1.100  0.00  0.00    -0.050 C 
ATOM     23  C   UNL     1       9.408  -4.023   0.802  0.00  0.00    -0.010 C 
ATOM     24  C   UNL     1      10.787  -4.286   1.455  0.00  0.00    -0.001 C 
ATOM     25  C   UNL     1      10.715  -3.449   2.756  0.00  0.00    -0.001 C 
ATOM     26  C   UNL     1       9.957  -2.171   2.342  0.00  0.00    -0.010 C 
BRANCH  22  27
ATOM     27  N   UNL     1       9.536  -1.706  -0.041  0.00  0.00    +0.381 N 
ATOM     28  C   UNL     1       9.388  -0.287   0.307  0.00  0.00    -0.096 C 
ATOM     29  C   UNL     1      10.939  -1.987  -0.371  0.00  0.00    -0.096 C 
ATOM     30  H   UNL     1       8.954  -1.920  -0.838  0.00  0.00    -0.082 HD
ENDBRANCH  22  27
ENDBRANCH  21  22
ENDBRANCH  19  21
ENDBRANCH   2  17
TORSDOF 7
