REMARK  Name = ZINC25040245
REMARK  3 active torsions:
REMARK  status: ('A' for Active; 'I' for Inactive)
REMARK    1  A    between atoms: C_8  and  C_10
REMARK    2  A    between atoms: N_15  and  S_18
REMARK    3  A    between atoms: S_18  and  C_21
REMARK                            x       y       z     vdW  Elec       q    Type
REMARK                         _______ _______ _______ _____ _____    ______ ____
ROOT
ATOM      1  C   UNL     1       4.431  -0.590  -5.616  0.00  0.00    +0.282 C 
ATOM      2  O   UNL     1       4.132  -1.602  -6.220  0.00  0.00    -0.267 OA
ATOM      3  N   UNL     1       4.309  -0.545  -4.275  0.00  0.00    -0.292 N 
ATOM      4  C   UNL     1       4.824   0.603  -3.515  0.00  0.00    +0.125 C 
ATOM      5  C   UNL     1       5.791   0.086  -2.442  0.00  0.00    +0.128 C 
ATOM      6  N   UNL     1       5.141  -1.011  -1.713  0.00  0.00    -0.173 NA
ATOM      7  C   UNL     1       4.630  -2.162  -2.472  0.00  0.00    +0.128 C 
ATOM      8  C   UNL     1       3.658  -1.643  -3.545  0.00  0.00    +0.125 C 
ENDROOT
BRANCH   1  16
ATOM      9  C   UNL     1       6.475   3.945  -9.044  0.00  0.00    +0.001 A 
ATOM     10  C   UNL     1       6.397   4.635  -7.842  0.00  0.00    +0.004 A 
ATOM     11  C   UNL     1       5.962   4.005  -6.696  0.00  0.00    +0.047 A 
ATOM     12  C   UNL     1       5.597   2.665  -6.739  0.00  0.00    +0.136 A 
ATOM     13  C   UNL     1       5.678   1.970  -7.960  0.00  0.00    +0.021 A 
ATOM     14  C   UNL     1       6.121   2.627  -9.111  0.00  0.00    +0.011 A 
ATOM     15  C   UNL     1       5.231   0.608  -7.672  0.00  0.00    +0.063 A 
ATOM     16  C   UNL     1       4.926   0.584  -6.349  0.00  0.00    +0.191 A 
ATOM     17  O   UNL     1       5.140   1.803  -5.810  0.00  0.00    -0.450 OA
ENDBRANCH   1  16
BRANCH   6  18
ATOM     18  S   UNL     1       4.991  -0.956  -0.065  0.00  0.00    +0.067 S 
ATOM     19  O   UNL     1       6.015  -0.091   0.407  0.00  0.00    -0.152 OA
ATOM     20  O   UNL     1       4.867  -2.301   0.377  0.00  0.00    -0.152 OA
BRANCH  18  21
ATOM     21  C   UNL     1       3.458  -0.165   0.293  0.00  0.00    +0.144 A 
ATOM     22  C   UNL     1       2.231  -0.716   0.454  0.00  0.00    +0.037 A 
ATOM     23  C   UNL     1       1.156   0.108   0.733  0.00  0.00    +0.025 A 
ATOM     24  C   UNL     1       1.364   1.445   0.838  0.00  0.00    +0.057 A 
ATOM     25  S   UNL     1       3.119   1.571   0.538  0.00  0.00    -0.062 S 
ATOM     26 BR   UNL     1       0.116   2.819   1.199  0.00  0.00    -0.043 Br
ENDBRANCH  18  21
ENDBRANCH   6  18
TORSDOF 3
