REMARK  Name = ZINC32620577
REMARK  4 active torsions:
REMARK  status: ('A' for Active; 'I' for Inactive)
REMARK    1  A    between atoms: C_2  and  C_8
REMARK    2  A    between atoms: N_9  and  N_10
REMARK    3  A    between atoms: N_13  and  N_14
REMARK    4  A    between atoms: C_15  and  C_16
REMARK                            x       y       z     vdW  Elec       q    Type
REMARK                         _______ _______ _______ _____ _____    ______ ____
ROOT
ATOM      1  N   UNL     1       3.623   3.383   1.668  0.00  0.00    -0.247 N 
ATOM      2  C   UNL     1       4.722   4.091   1.234  0.00  0.00    +0.210 C 
ATOM      3  N   UNL     1       4.595   5.340   0.880  0.00  0.00    -0.369 N 
ATOM      4  N   UNL     1       5.955   3.481   1.175  0.00  0.00    -0.247 N 
ATOM      5  H   UNL     1       3.718   2.455   1.931  0.00  0.00    +0.192 HD
ATOM      6  H   UNL     1       5.369   5.838   0.575  0.00  0.00    +0.159 HD
ATOM      7  H   UNL     1       6.049   2.552   1.439  0.00  0.00    +0.192 HD
ATOM      8  H   UNL     1       3.727   5.770   0.922  0.00  0.00    +0.159 HD
ENDROOT
BRANCH   1  10
ATOM      9  C   UNL     1       1.361   3.381   2.256  0.00  0.00    +0.140 C 
ATOM     10  N   UNL     1       2.369   4.005   1.728  0.00  0.00    -0.179 NA
BRANCH   9  12
ATOM     11  C   UNL     1       2.845   2.251   3.904  0.00  0.00    +0.010 A 
ATOM     12  C   UNL     1       1.586   2.376   3.311  0.00  0.00    -0.005 A 
ATOM     13  C   UNL     1       0.541   1.545   3.723  0.00  0.00    +0.010 A 
ATOM     14  C   UNL     1       0.758   0.607   4.710  0.00  0.00    +0.016 A 
ATOM     15  C   UNL     1       2.008   0.489   5.294  0.00  0.00    +0.018 A 
ATOM     16  C   UNL     1       3.048   1.309   4.890  0.00  0.00    +0.016 A 
ATOM     17 BR   UNL     1       2.296  -0.799   6.649  0.00  0.00    -0.050 Br
ENDBRANCH   9  12
ENDBRANCH   1  10
BRANCH   4  18
ATOM     18  N   UNL     1       7.073   4.201   0.734  0.00  0.00    -0.179 NA
ATOM     19  C   UNL     1       8.206   3.595   0.557  0.00  0.00    +0.140 C 
BRANCH  19  20
ATOM     20  C   UNL     1       8.236   2.138   0.329  0.00  0.00    -0.005 A 
ATOM     21  C   UNL     1       9.419   1.421   0.525  0.00  0.00    +0.010 A 
ATOM     22  C   UNL     1       9.439   0.059   0.309  0.00  0.00    +0.016 A 
ATOM     23  C   UNL     1       8.292  -0.598  -0.101  0.00  0.00    +0.018 A 
ATOM     24  C   UNL     1       7.116   0.107  -0.298  0.00  0.00    +0.016 A 
ATOM     25  C   UNL     1       7.080   1.468  -0.080  0.00  0.00    +0.010 A 
ATOM     26 BR   UNL     1       8.330  -2.465  -0.396  0.00  0.00    -0.050 Br
ENDBRANCH  19  20
ENDBRANCH   4  18
TORSDOF 4
