REMARK  Name = ZINC39533648
REMARK  8 active torsions:
REMARK  status: ('A' for Active; 'I' for Inactive)
REMARK    1  A    between atoms: C_4  and  C_7
REMARK    2  A    between atoms: C_10  and  C_13
REMARK    3  A    between atoms: C_13  and  C_15
REMARK    4  A    between atoms: C_13  and  N_18
REMARK    5  A    between atoms: C_15  and  N_16
REMARK    6  A    between atoms: N_16  and  O_17
REMARK    7  A    between atoms: C_22  and  C_25
REMARK    8  A    between atoms: C_30  and  O_31
REMARK                            x       y       z     vdW  Elec       q    Type
REMARK                         _______ _______ _______ _____ _____    ______ ____
ROOT
ATOM      1  C   UNL     1       7.434  -2.768  -0.085  0.00  0.00    +0.103 C 
ENDROOT
BRANCH   1   2
ATOM      2  N   UNL     1       7.346  -4.001  -0.878  0.00  0.00    -0.297 NA
ATOM      3  C   UNL     1       6.753  -5.092  -0.092  0.00  0.00    +0.066 C 
ATOM      4  C   UNL     1       6.624  -6.338  -0.971  0.00  0.00    -0.066 C 
ATOM      5  N   UNL     1       7.952  -6.731  -1.462  0.00  0.00    +0.385 N 
ATOM      6  C   UNL     1       8.521  -5.641  -2.265  0.00  0.00    -0.023 C 
ATOM      7  C   UNL     1       8.665  -4.389  -1.397  0.00  0.00    +0.074 C 
ATOM      8  H   UNL     1       8.557  -6.922  -0.677  0.00  0.00    -0.085 HD
ATOM      9  H   UNL     1       7.868  -7.560  -2.031  0.00  0.00    -0.085 HD
BRANCH   6  10
ATOM     10  C   UNL     1       9.875  -6.053  -2.783  0.00  0.00    -0.019 A 
ATOM     11  C   UNL     1      10.565  -7.083  -2.173  0.00  0.00    +0.005 A 
ATOM     12  C   UNL     1      11.807  -7.460  -2.647  0.00  0.00    +0.000 A 
ATOM     13  C   UNL     1      12.363  -6.809  -3.732  0.00  0.00    +0.004 A 
ATOM     14  C   UNL     1      11.677  -5.779  -4.346  0.00  0.00    +0.045 A 
ATOM     15  C   UNL     1      10.428  -5.401  -3.876  0.00  0.00    +0.118 A 
BRANCH  15  16
ATOM     16  O   UNL     1       9.749  -4.392  -4.481  0.00  0.00    -0.507 OA
ATOM     17  H   UNL     1       9.936  -3.517  -4.115  0.00  0.00    +0.292 HD
ENDBRANCH  15  16
ENDBRANCH   6  10
ENDBRANCH   1   2
BRANCH   1  21
ATOM     18  C   UNL     1       3.575  -0.941   0.143  0.00  0.00    -0.018 A 
ATOM     19  C   UNL     1       4.701  -0.257   0.596  0.00  0.00    +0.009 A 
ATOM     20  C   UNL     1       5.944  -0.851   0.520  0.00  0.00    +0.006 A 
ATOM     21  C   UNL     1       6.074  -2.124  -0.004  0.00  0.00    -0.029 A 
ATOM     22  C   UNL     1       4.960  -2.809  -0.456  0.00  0.00    +0.006 A 
ATOM     23  C   UNL     1       3.711  -2.226  -0.379  0.00  0.00    +0.009 A 
BRANCH  18  27
ATOM     24  C   UNL     1      -0.263   0.875   0.370  0.00  0.00    +0.000 A 
ATOM     25  C   UNL     1       0.852   1.562   0.816  0.00  0.00    +0.001 A 
ATOM     26  C   UNL     1       2.100   0.977   0.745  0.00  0.00    +0.008 A 
ATOM     27  C   UNL     1       2.236  -0.307   0.223  0.00  0.00    -0.018 A 
ATOM     28  C   UNL     1       1.110  -0.995  -0.225  0.00  0.00    +0.008 A 
ATOM     29  C   UNL     1      -0.134  -0.400  -0.149  0.00  0.00    +0.001 A 
ENDBRANCH  18  27
ENDBRANCH   1  21
BRANCH   1  30
ATOM     30  C   UNL     1       7.924  -3.103   1.325  0.00  0.00    +0.134 C 
BRANCH  30  31
ATOM     31  N   UNL     1       9.234  -3.763   1.244  0.00  0.00    -0.202 NA
ATOM     32  H   UNL     1       9.897  -3.192   0.742  0.00  0.00    +0.154 HD
BRANCH  31  33
ATOM     33  O   UNL     1       9.735  -4.099   2.577  0.00  0.00    -0.315 OA
ATOM     34  H   UNL     1      10.597  -4.537   2.575  0.00  0.00    +0.236 HD
ENDBRANCH  31  33
ENDBRANCH  30  31
ENDBRANCH   1  30
TORSDOF 8
