REMARK  Name = ZINC32755170
REMARK  9 active torsions:
REMARK  status: ('A' for Active; 'I' for Inactive)
REMARK    1  A    between atoms: C_1  and  C_2
REMARK    2  A    between atoms: C_5  and  N_8
REMARK    3  A    between atoms: N_8  and  C_9
REMARK    4  A    between atoms: C_14  and  N_15
REMARK    5  A    between atoms: N_15  and  S_16
REMARK    6  A    between atoms: S_16  and  C_19
REMARK    7  A    between atoms: C_22  and  S_25
REMARK    8  A    between atoms: S_25  and  N_28
REMARK    9  A    between atoms: N_28  and  C_29
REMARK                            x       y       z     vdW  Elec       q    Type
REMARK                         _______ _______ _______ _____ _____    ______ ____
ROOT
ATOM      1  N   UNL     1      -2.298   2.423   5.960  0.00  0.00    -0.214 N 
ATOM      2  H   UNL     1      -2.717   2.006   6.887  0.00  0.00    +0.174 HD
ENDROOT
BRANCH   1   8
ATOM      3  C   UNL     1       0.010   2.111   6.624  0.00  0.00    +0.054 A 
ATOM      4  C   UNL     1       1.336   2.514   6.576  0.00  0.00    +0.025 A 
ATOM      5  C   UNL     1       1.696   3.620   5.828  0.00  0.00    +0.002 A 
ATOM      6  C   UNL     1       0.737   4.326   5.126  0.00  0.00    +0.002 A 
ATOM      7  C   UNL     1      -0.587   3.929   5.164  0.00  0.00    +0.026 A 
ATOM      8  C   UNL     1      -0.958   2.825   5.916  0.00  0.00    +0.069 A 
BRANCH   3   9
ATOM      9  N   UNL     1      -0.357   0.992   7.380  0.00  0.00    -0.313 N 
ATOM     10  H   UNL     1      -1.421   0.751   7.526  0.00  0.00    +0.152 HD
BRANCH   9  15
ATOM     11  C   UNL     1       3.638  -2.301   9.694  0.00  0.00    +0.044 C 
ATOM     12  C   UNL     1       2.576  -1.426   9.079  0.00  0.00    -0.050 A 
ATOM     13  C   UNL     1       1.423  -1.140   9.787  0.00  0.00    +0.005 A 
ATOM     14  C   UNL     1       0.448  -0.339   9.226  0.00  0.00    +0.023 A 
ATOM     15  C   UNL     1       0.627   0.181   7.950  0.00  0.00    +0.031 A 
ATOM     16  C   UNL     1       1.784  -0.113   7.240  0.00  0.00    +0.023 A 
ATOM     17  C   UNL     1       2.758  -0.910   7.809  0.00  0.00    +0.005 A 
ENDBRANCH   9  15
ENDBRANCH   3   9
ENDBRANCH   1   8
BRANCH   1  18
ATOM     18  S   UNL     1      -3.253   2.577   4.615  0.00  0.00    +0.072 S 
ATOM     19  O   UNL     1      -3.172   3.937   4.213  0.00  0.00    -0.150 OA
ATOM     20  O   UNL     1      -4.488   1.944   4.920  0.00  0.00    -0.150 OA
BRANCH  18  21
ATOM     21  C   UNL     1      -2.503   1.628   3.333  0.00  0.00    +0.109 A 
ATOM     22  C   UNL     1      -2.842   0.298   3.170  0.00  0.00    +0.031 A 
ATOM     23  C   UNL     1      -2.255  -0.447   2.164  0.00  0.00    +0.030 A 
ATOM     24  C   UNL     1      -1.330   0.140   1.321  0.00  0.00    +0.105 A 
ATOM     25  C   UNL     1      -0.987   1.468   1.487  0.00  0.00    +0.030 A 
ATOM     26  C   UNL     1      -1.578   2.214   2.490  0.00  0.00    +0.031 A 
BRANCH  24  27
ATOM     27  S   UNL     1      -0.582  -0.809   0.038  0.00  0.00    +0.058 S 
ATOM     28  O   UNL     1      -0.661  -2.170   0.440  0.00  0.00    -0.153 OA
ATOM     29  O   UNL     1       0.653  -0.176  -0.268  0.00  0.00    -0.153 OA
BRANCH  27  30
ATOM     30  N   UNL     1      -1.538  -0.656  -1.306  0.00  0.00    -0.193 NA
ATOM     31  C   UNL     1      -1.688   0.650  -1.953  0.00  0.00    +0.127 C 
ATOM     32  H   UNL     1      -2.182  -1.496  -1.606  0.00  0.00    +0.148 HD
ENDBRANCH  27  30
ENDBRANCH  24  27
ENDBRANCH  18  21
ENDBRANCH   1  18
TORSDOF 7
