REMARK  Name = ZINC54733697
REMARK  9 active torsions:
REMARK  status: ('A' for Active; 'I' for Inactive)
REMARK    1  A    between atoms: C_1  and  C_2
REMARK    2  A    between atoms: C_5  and  C_7
REMARK    3  A    between atoms: C_7  and  C_9
REMARK    4  A    between atoms: C_7  and  N_10
REMARK    5  A    between atoms: N_13  and  C_14
REMARK    6  A    between atoms: C_16  and  C_22
REMARK    7  A    between atoms: C_16  and  C_23
REMARK    8  A    between atoms: C_18  and  C_20
REMARK    9  A    between atoms: C_18  and  C_21
REMARK                            x       y       z     vdW  Elec       q    Type
REMARK                         _______ _______ _______ _____ _____    ______ ____
ROOT
ATOM      1  N   UNL     1       1.923  -4.231   1.034  0.00  0.00    -0.292 N 
ATOM      2  C   UNL     1       2.238  -5.407   1.611  0.00  0.00    +0.300 C 
ATOM      3  O   UNL     1       1.527  -6.378   1.440  0.00  0.00    -0.253 OA
ATOM      4  N   UNL     1       3.343  -5.507   2.377  0.00  0.00    -0.297 N 
ATOM      5  H   UNL     1       2.490  -3.456   1.171  0.00  0.00    +0.151 HD
ATOM      6  H   UNL     1       3.910  -4.733   2.513  0.00  0.00    +0.151 HD
ENDROOT
BRANCH   4   7
ATOM      7  C   UNL     1       3.687  -6.789   3.005  0.00  0.00    +0.072 C 
ATOM      8  C   UNL     1       2.964  -6.900   4.349  0.00  0.00    +0.009 C 
ATOM      9  C   UNL     1       3.322  -8.225   5.022  0.00  0.00    -0.072 C 
ATOM     10  N   UNL     1       4.761  -8.406   5.145  0.00  0.00    +0.386 N 
ATOM     11  C   UNL     1       5.580  -8.127   3.976  0.00  0.00    -0.072 C 
ATOM     12  C   UNL     1       5.192  -6.835   3.265  0.00  0.00    +0.009 C 
ATOM     13  C   UNL     1       5.566  -9.294   2.984  0.00  0.00    -0.010 C 
ATOM     14  C   UNL     1       7.040  -7.964   4.460  0.00  0.00    -0.010 C 
ATOM     15  C   UNL     1       2.657  -9.388   4.287  0.00  0.00    -0.010 C 
ATOM     16  C   UNL     1       2.732  -8.188   6.450  0.00  0.00    -0.010 C 
ATOM     17  H   UNL     1       5.093  -7.822   5.917  0.00  0.00    -0.084 HD
ATOM     18  H   UNL     1       4.939  -9.369   5.442  0.00  0.00    -0.084 HD
ENDBRANCH   4   7
BRANCH   1  19
ATOM     19  C   UNL     1       0.722  -4.122   0.202  0.00  0.00    +0.108 C 
ATOM     20  C   UNL     1       1.050  -4.566  -1.226  0.00  0.00    +0.033 C 
BRANCH  19  25
ATOM     21  C   UNL     1      -0.093   1.483   0.090  0.00  0.00    +0.051 C 
ATOM     22  C   UNL     1      -0.139  -0.023   0.134  0.00  0.00    -0.013 A 
ATOM     23  C   UNL     1      -1.216  -0.843   0.209  0.00  0.00    +0.011 A 
ATOM     24  C   UNL     1      -1.017  -2.210   0.236  0.00  0.00    +0.013 A 
ATOM     25  C   UNL     1       0.249  -2.691   0.186  0.00  0.00    +0.010 A 
ATOM     26  S   UNL     1       1.211  -1.190   0.091  0.00  0.00    -0.097 S 
ENDBRANCH  19  25
ENDBRANCH   1  19
TORSDOF 3
