REMARK  Name = ZINC21323641
REMARK  8 active torsions:
REMARK  status: ('A' for Active; 'I' for Inactive)
REMARK    1  A    between atoms: C_1  and  C_2
REMARK    2  A    between atoms: C_2  and  C_25
REMARK    3  A    between atoms: N_3  and  N_4
REMARK    4  A    between atoms: C_8  and  S_11
REMARK    5  A    between atoms: N_9  and  N_10
REMARK    6  A    between atoms: S_11  and  C_12
REMARK    7  A    between atoms: C_12  and  C_13
REMARK    8  A    between atoms: C_13  and  C_15
REMARK                            x       y       z     vdW  Elec       q    Type
REMARK                         _______ _______ _______ _____ _____    ______ ____
ROOT
ATOM      1  N   UNL     1       1.750  -1.664   0.748  0.00  0.00    -0.204 N 
ATOM      2  C   UNL     1       1.296  -0.356   0.651  0.00  0.00    +0.254 A 
ATOM      3  N   UNL     1       0.049   0.036   0.751  0.00  0.00    -0.109 NA
ATOM      4  N   UNL     1       0.020   1.428   0.596  0.00  0.00    -0.119 NA
ATOM      5  C   UNL     1       1.250   1.841   0.406  0.00  0.00    +0.210 A 
ATOM      6  N   UNL     1       2.071   0.749   0.435  0.00  0.00    -0.211 N 
ATOM      7  H   UNL     1       2.823  -1.883   0.648  0.00  0.00    +0.178 HD
ENDROOT
BRANCH   1  10
ATOM      8  C   UNL     1       2.736  -4.230   0.926  0.00  0.00    +0.068 C 
ATOM      9  C   UNL     1       1.265  -3.930   1.062  0.00  0.00    +0.063 C 
ATOM     10  N   UNL     1       0.840  -2.706   0.972  0.00  0.00    -0.184 NA
BRANCH   9  11
ATOM     11  C   UNL     1       0.309  -5.026   1.298  0.00  0.00    -0.002 A 
ATOM     12  C   UNL     1       0.774  -6.351   1.395  0.00  0.00    +0.010 A 
ATOM     13  C   UNL     1      -0.087  -7.377   1.612  0.00  0.00    +0.009 A 
ATOM     14  C   UNL     1      -1.465  -7.124   1.743  0.00  0.00    -0.018 A 
ATOM     15  C   UNL     1      -2.375  -8.170   1.968  0.00  0.00    +0.008 A 
ATOM     16  C   UNL     1      -3.703  -7.895   2.091  0.00  0.00    +0.001 A 
ATOM     17  C   UNL     1      -4.177  -6.588   1.997  0.00  0.00    +0.001 A 
ATOM     18  C   UNL     1      -3.326  -5.549   1.779  0.00  0.00    +0.008 A 
ATOM     19  C   UNL     1      -1.948  -5.794   1.646  0.00  0.00    -0.017 A 
ATOM     20  C   UNL     1      -1.043  -4.745   1.428  0.00  0.00    +0.018 A 
ENDBRANCH   9  11
ENDBRANCH   1  10
BRANCH   6  21
ATOM     21  N   UNL     1       3.428   0.760   0.277  0.00  0.00    -0.294 N 
ATOM     22  H   UNL     1       3.954   1.711   0.108  0.00  0.00    +0.163 HD
ATOM     23  H   UNL     1       3.994  -0.182   0.318  0.00  0.00    +0.163 HD
ENDBRANCH   6  21
BRANCH   5  24
ATOM     24  S   UNL     1       1.756   3.510   0.158  0.00  0.00    -0.077 S 
BRANCH  24  25
ATOM     25  C   UNL     1       0.209   4.453   0.231  0.00  0.00    +0.152 C 
BRANCH  25  26
ATOM     26  C   UNL     1       0.503   5.918   0.030  0.00  0.00    +0.147 C 
ATOM     27  O   UNL     1       1.639   6.287  -0.144  0.00  0.00    -0.296 OA
BRANCH  26  28
ATOM     28  C   UNL     1      -0.622   6.921   0.047  0.00  0.00    +0.062 C 
ATOM     29  C   UNL     1      -1.421   6.813  -1.254  0.00  0.00    +0.000 C 
ATOM     30  C   UNL     1      -2.562   7.832  -1.236  0.00  0.00    +0.007 C 
ATOM     31  C   UNL     1      -1.985   9.243  -1.109  0.00  0.00    -0.010 C 
ATOM     32  C   UNL     1      -1.065   9.527  -2.298  0.00  0.00    +0.007 C 
ATOM     33  C   UNL     1       0.076   8.508  -2.315  0.00  0.00    -0.010 C 
ATOM     34  C   UNL     1      -0.501   7.097  -2.443  0.00  0.00    +0.007 C 
ATOM     35  C   UNL     1       0.876   8.616  -1.015  0.00  0.00    +0.007 C 
ATOM     36  C   UNL     1      -0.044   8.332   0.174  0.00  0.00    +0.000 C 
ATOM     37  C   UNL     1      -1.185   9.351   0.191  0.00  0.00    +0.007 C 
ENDBRANCH  26  28
ENDBRANCH  25  26
ENDBRANCH  24  25
ENDBRANCH   5  24
TORSDOF 7
