REMARK  Name = ZINC09014204
REMARK  6 active torsions:
REMARK  status: ('A' for Active; 'I' for Inactive)
REMARK    1  A    between atoms: C_4  and  C_7
REMARK    2  A    between atoms: C_7  and  C_8
REMARK    3  A    between atoms: C_8  and  N_9
REMARK    4  A    between atoms: C_12  and  C_18
REMARK    5  A    between atoms: C_13  and  O_17
REMARK    6  A    between atoms: C_15  and  O_16
REMARK                            x       y       z     vdW  Elec       q    Type
REMARK                         _______ _______ _______ _____ _____    ______ ____
ROOT
ATOM      1  N   UNL     1      -0.067   1.120  -2.437  0.00  0.00    -0.262 N 
ATOM      2  C   UNL     1       0.907   1.869  -2.995  0.00  0.00    +0.262 A 
ATOM      3  O   UNL     1       1.224   2.941  -2.505  0.00  0.00    -0.267 OA
ATOM      4  C   UNL     1       1.550   1.393  -4.145  0.00  0.00    +0.070 A 
ATOM      5  C   UNL     1       1.155   0.175  -4.670  0.00  0.00    +0.224 A 
ATOM      6  N   UNL     1       0.179  -0.520  -4.074  0.00  0.00    -0.161 NA
ATOM      7  C   UNL     1      -0.416  -0.069  -2.994  0.00  0.00    +0.302 A 
ENDROOT
BRANCH   4   8
ATOM      8  C   UNL     1       2.647   2.192  -4.800  0.00  0.00    +0.018 C 
ATOM      9  C   UNL     1       2.083   3.492  -5.324  0.00  0.00    +0.011 A 
ATOM     10  C   UNL     1       2.710   4.681  -5.172  0.00  0.00    -0.022 A 
ATOM     11  C   UNL     1       1.878   5.685  -5.796  0.00  0.00    +0.003 A 
ATOM     12  C   UNL     1       2.010   7.069  -5.948  0.00  0.00    +0.010 A 
ATOM     13  C   UNL     1       1.000   7.720  -6.613  0.00  0.00    +0.001 A 
ATOM     14  C   UNL     1      -0.103   7.050  -7.115  0.00  0.00    +0.002 A 
ATOM     15  C   UNL     1      -0.260   5.681  -6.979  0.00  0.00    +0.026 A 
ATOM     16  C   UNL     1       0.749   4.993  -6.308  0.00  0.00    +0.047 A 
ATOM     17  N   UNL     1       0.909   3.671  -6.003  0.00  0.00    -0.359 N 
ATOM     18  H   UNL     1       0.284   2.966  -6.234  0.00  0.00    +0.166 HD
ATOM     19  C   UNL     1       4.034   4.840  -4.468  0.00  0.00    +0.018 C 
ATOM     20  C   UNL     1       4.676   3.451  -4.348  0.00  0.00    -0.076 C 
ATOM     21  N   UNL     1       3.694   2.493  -3.799  0.00  0.00    +0.388 N 
ATOM     22  H   UNL     1       4.176   1.623  -3.543  0.00  0.00    -0.084 HD
ATOM     23  H   UNL     1       3.256   2.899  -2.963  0.00  0.00    -0.084 HD
ENDBRANCH   4   8
BRANCH   7  24
ATOM     24  O   UNL     1      -1.395  -0.802  -2.425  0.00  0.00    -0.479 OA
ATOM     25  H   UNL     1      -1.617  -1.642  -2.849  0.00  0.00    +0.295 HD
ENDBRANCH   7  24
BRANCH   5  26
ATOM     26  O   UNL     1       1.753  -0.311  -5.782  0.00  0.00    -0.492 OA
ATOM     27  H   UNL     1       1.409  -1.167  -6.072  0.00  0.00    +0.294 HD
ENDBRANCH   5  26
BRANCH   1  28
ATOM     28  C   UNL     1      -0.753   1.593  -1.232  0.00  0.00    +0.134 C 
BRANCH  28  29
ATOM     29  C   UNL     1      -0.013   1.086   0.008  0.00  0.00    +0.057 C 
BRANCH  29  33
ATOM     30  C   UNL     1      -2.012   2.463   3.523  0.00  0.00    +0.000 A 
ATOM     31  C   UNL     1      -2.366   1.254   2.955  0.00  0.00    +0.000 A 
ATOM     32  C   UNL     1      -1.719   0.808   1.818  0.00  0.00    +0.004 A 
ATOM     33  C   UNL     1      -0.718   1.572   1.248  0.00  0.00    -0.046 A 
ATOM     34  C   UNL     1      -0.360   2.779   1.819  0.00  0.00    +0.004 A 
ATOM     35  C   UNL     1      -1.010   3.227   2.954  0.00  0.00    +0.000 A 
ENDBRANCH  29  33
ENDBRANCH  28  29
ENDBRANCH   1  28
TORSDOF 6
