REMARK  Name = ZINC27563542
REMARK  11 active torsions:
REMARK  status: ('A' for Active; 'I' for Inactive)
REMARK    1  A    between atoms: C_1  and  C_2
REMARK    2  A    between atoms: C_2  and  N_3
REMARK    3  A    between atoms: N_3  and  C_4
REMARK    4  A    between atoms: N_3  and  C_16
REMARK    5  A    between atoms: C_4  and  C_5
REMARK    6  A    between atoms: N_7  and  C_8
REMARK    7  A    between atoms: C_16  and  C_17
REMARK    8  A    between atoms: N_22  and  C_23
REMARK    9  A    between atoms: C_23  and  C_24
REMARK   10  A    between atoms: C_24  and  C_25
REMARK   11  A    between atoms: C_24  and  C_26
REMARK                            x       y       z     vdW  Elec       q    Type
REMARK                         _______ _______ _______ _____ _____    ______ ____
ROOT
ATOM      1  N   UNL     1       5.871   2.537  -1.025  0.00  0.00    +0.391 N 
ATOM      2  H   UNL     1       5.510   3.103  -1.897  0.00  0.00    -0.080 HD
ENDROOT
BRANCH   1   4
ATOM      3  C   UNL     1       6.784   2.757   1.237  0.00  0.00    -0.017 C 
ATOM      4  C   UNL     1       6.207   3.502   0.031  0.00  0.00    -0.081 C 
ENDBRANCH   1   4
BRANCH   1   5
ATOM      5  C   UNL     1       4.792   1.638  -0.592  0.00  0.00    +0.020 C 
BRANCH   5   6
ATOM      6  C   UNL     1       3.522   2.429  -0.410  0.00  0.00    +0.201 C 
ATOM      7  O   UNL     1       3.516   3.623  -0.620  0.00  0.00    -0.278 OA
ATOM      8  N   UNL     1       2.393   1.808  -0.014  0.00  0.00    -0.285 N 
ATOM      9  H   UNL     1       2.412   0.736   0.232  0.00  0.00    +0.155 HD
BRANCH   8  10
ATOM     10  C   UNL     1       1.196   2.528   0.083  0.00  0.00    +0.070 A 
ATOM     11  C   UNL     1       0.351   2.331   1.168  0.00  0.00    +0.064 A 
ATOM     12  C   UNL     1      -0.830   3.043   1.262  0.00  0.00    +0.022 A 
ATOM     13  C   UNL     1      -1.170   3.951   0.276  0.00  0.00    +0.003 A 
ATOM     14  C   UNL     1      -0.330   4.154  -0.802  0.00  0.00    +0.022 A 
ATOM     15  C   UNL     1       0.850   3.441  -0.905  0.00  0.00    +0.064 A 
ATOM     16 CL   UNL     1       1.902   3.691  -2.264  0.00  0.00    -0.082 Cl
ATOM     17 CL   UNL     1       0.779   1.191   2.406  0.00  0.00    -0.082 Cl
ENDBRANCH   8  10
ENDBRANCH   5   6
ENDBRANCH   1   5
BRANCH   1  18
ATOM     18  C   UNL     1       7.056   1.775  -1.439  0.00  0.00    +0.020 C 
BRANCH  18  19
ATOM     19  C   UNL     1       7.971   2.666  -2.241  0.00  0.00    +0.204 C 
ATOM     20  O   UNL     1       7.704   3.840  -2.380  0.00  0.00    -0.277 OA
ATOM     21  N   UNL     1       9.085   2.157  -2.802  0.00  0.00    -0.242 N 
ATOM     22  C   UNL     1       9.903   2.954  -3.519  0.00  0.00    +0.306 C 
ATOM     23  O   UNL     1       9.635   4.131  -3.659  0.00  0.00    -0.252 OA
ATOM     24  N   UNL     1      11.017   2.445  -4.080  0.00  0.00    -0.299 N 
ATOM     25  H   UNL     1       9.328   1.092  -2.675  0.00  0.00    +0.159 HD
ATOM     26  H   UNL     1      11.260   1.379  -3.953  0.00  0.00    +0.150 HD
BRANCH  24  27
ATOM     27  C   UNL     1      11.906   3.310  -4.859  0.00  0.00    +0.108 C 
BRANCH  27  28
ATOM     28  C   UNL     1      13.088   2.491  -5.381  0.00  0.00    -0.000 C 
ATOM     29  C   UNL     1      12.581   1.437  -6.369  0.00  0.00    +0.009 C 
ATOM     30  C   UNL     1      14.079   3.417  -6.088  0.00  0.00    +0.009 C 
ENDBRANCH  27  28
ENDBRANCH  24  27
ENDBRANCH  18  19
ENDBRANCH   1  18
TORSDOF 8
