REMARK  Name = ZINC23581252
REMARK  6 active torsions:
REMARK  status: ('A' for Active; 'I' for Inactive)
REMARK    1  A    between atoms: C_7  and  C_15
REMARK    2  A    between atoms: C_15  and  N_16
REMARK    3  A    between atoms: C_20  and  C_23
REMARK    4  A    between atoms: C_23  and  N_24
REMARK    5  A    between atoms: C_26  and  C_29
REMARK    6  A    between atoms: C_29  and  N_30
REMARK                            x       y       z     vdW  Elec       q    Type
REMARK                         _______ _______ _______ _____ _____    ______ ____
ROOT
ATOM      1  N   UNL     1      -0.600   4.461  -1.356  0.00  0.00    +0.383 N 
ATOM      2  C   UNL     1      -0.521   3.189  -2.086  0.00  0.00    -0.078 C 
ATOM      3  C   UNL     1      -0.905   3.415  -3.550  0.00  0.00    -0.018 C 
ATOM      4  C   UNL     1      -2.328   3.977  -3.618  0.00  0.00    +0.002 C 
ATOM      5  C   UNL     1      -2.394   5.276  -2.810  0.00  0.00    -0.006 C 
ATOM      6  C   UNL     1      -1.967   4.996  -1.367  0.00  0.00    -0.073 C 
ATOM      7  H   UNL     1       0.048   5.185  -1.872  0.00  0.00    -0.081 HD
ENDROOT
BRANCH   1   8
ATOM      8  C   UNL     1      -0.105   4.310   0.019  0.00  0.00    -0.042 C 
BRANCH   8  15
ATOM      9  C   UNL     1       0.002  -0.004   0.002  0.00  0.00    +0.001 A 
ATOM     10  C   UNL     1       1.209  -0.689  -0.015  0.00  0.00    +0.006 A 
ATOM     11  C   UNL     1       2.406  -0.006  -0.023  0.00  0.00    -0.023 A 
ATOM     12  C   UNL     1       2.416   1.385  -0.011  0.00  0.00    +0.055 A 
ATOM     13  C   UNL     1       1.187   2.074   0.002  0.00  0.00    +0.000 A 
ATOM     14  C   UNL     1      -0.016   1.361   0.009  0.00  0.00    +0.010 A 
ATOM     15  C   UNL     1       1.189   3.538   0.006  0.00  0.00    -0.050 A 
ATOM     16  C   UNL     1       2.381   4.183  -0.003  0.00  0.00    +0.072 A 
ATOM     17  C   UNL     1       3.583   3.447  -0.013  0.00  0.00    +0.252 A 
ATOM     18  O   UNL     1       4.644   4.048  -0.025  0.00  0.00    -0.268 OA
ATOM     19  N   UNL     1       3.596   2.099  -0.011  0.00  0.00    -0.308 N 
ATOM     20  C   UNL     1       4.890   1.409  -0.003  0.00  0.00    +0.126 C 
ATOM     21  C   UNL     1       4.769   0.075  -0.743  0.00  0.00    +0.026 C 
ATOM     22  C   UNL     1       3.702  -0.777  -0.049  0.00  0.00    +0.039 C 
ENDBRANCH   8  15
ENDBRANCH   1   8
BRANCH   5  23
ATOM     23  C   UNL     1      -3.827   5.814  -2.823  0.00  0.00    +0.147 C 
BRANCH  23  24
ATOM     24  N   UNL     1      -4.193   6.194  -4.190  0.00  0.00    -0.251 N 
ATOM     25  C   UNL     1      -5.271   5.746  -4.875  0.00  0.00    +0.131 A 
ATOM     26  C   UNL     1      -5.224   6.348  -6.087  0.00  0.00    +0.066 A 
ATOM     27  N   UNL     1      -4.134   7.124  -6.083  0.00  0.00    -0.136 NA
ATOM     28  N   UNL     1      -3.549   7.014  -4.943  0.00  0.00    -0.066 NA
BRANCH  26  29
ATOM     29  C   UNL     1      -6.206   6.178  -7.217  0.00  0.00    -0.027 C 
BRANCH  29  30
ATOM     30  N   UNL     1      -7.210   7.249  -7.159  0.00  0.00    +0.382 N 
ATOM     31  H   UNL     1      -7.926   7.124  -7.984  0.00  0.00    -0.090 HD
ATOM     32  H   UNL     1      -6.710   8.225  -7.251  0.00  0.00    -0.090 HD
ATOM     33  H   UNL     1      -7.744   7.199  -6.199  0.00  0.00    -0.090 HD
ENDBRANCH  29  30
ENDBRANCH  26  29
ENDBRANCH  23  24
ENDBRANCH   5  23
TORSDOF 6
