REMARK  Name = ZINC13065111
REMARK  12 active torsions:
REMARK  status: ('A' for Active; 'I' for Inactive)
REMARK    1  A    between atoms: C_1  and  C_2
REMARK    2  A    between atoms: C_2  and  C_3
REMARK    3  A    between atoms: C_3  and  C_5
REMARK    4  A    between atoms: C_3  and  N_66
REMARK    5  A    between atoms: N_9  and  C_10
REMARK    6  A    between atoms: C_10  and  C_11
REMARK    7  A    between atoms: C_18  and  C_19
REMARK    8  A    between atoms: C_18  and  N_66
REMARK    9  A    between atoms: C_24  and  C_25
REMARK   10  A    between atoms: C_24  and  N_66
REMARK   11  A    between atoms: C_30  and  C_38
REMARK   12  A    between atoms: C_31  and  C_37
REMARK                            x       y       z     vdW  Elec       q    Type
REMARK                         _______ _______ _______ _____ _____    ______ ____
ROOT
ATOM      1  N   UNL     1      -0.341  -2.029  -0.978  0.00  0.00    +0.392 N 
ATOM      2  H   UNL     1       0.533  -2.567  -0.979  0.00  0.00    -0.080 HD
ENDROOT
BRANCH   1   3
ATOM      3  C   UNL     1      -0.457  -1.302   0.303  0.00  0.00    +0.003 C 
BRANCH   3   4
ATOM      4  C   UNL     1       0.113  -2.165   1.399  0.00  0.00    +0.138 A 
ATOM      5  N   UNL     1      -0.162  -3.426   1.625  0.00  0.00    -0.115 NA
ATOM      6  N   UNL     1       0.524  -3.806   2.647  0.00  0.00    -0.023 NA
ATOM      7  N   UNL     1       1.230  -2.820   3.079  0.00  0.00    -0.044 NA
ATOM      8  N   UNL     1       1.003  -1.790   2.336  0.00  0.00    -0.226 N 
BRANCH   8   9
ATOM      9  C   UNL     1       1.607  -0.463   2.481  0.00  0.00    +0.182 C 
BRANCH   9  10
ATOM     10  C   UNL     1       0.749   0.383   3.386  0.00  0.00    -0.026 A 
ATOM     11  C   UNL     1      -0.261   1.161   2.852  0.00  0.00    +0.008 A 
ATOM     12  C   UNL     1      -1.051   1.934   3.682  0.00  0.00    +0.038 A 
ATOM     13  C   UNL     1      -0.824   1.936   5.048  0.00  0.00    +0.123 A 
ATOM     14  C   UNL     1       0.191   1.161   5.581  0.00  0.00    +0.038 A 
ATOM     15  C   UNL     1       0.977   0.385   4.750  0.00  0.00    +0.008 A 
ATOM     16  F   UNL     1      -1.593   2.695   5.859  0.00  0.00    -0.205 F 
ENDBRANCH   9  10
ENDBRANCH   8   9
ENDBRANCH   3   4
BRANCH   3  18
ATOM     17  C   UNL     1      -2.467  -0.015  -0.436  0.00  0.00    +0.002 C 
ATOM     18  C   UNL     1      -1.923  -0.990   0.610  0.00  0.00    -0.011 C 
ENDBRANCH   3  18
ENDBRANCH   1   3
BRANCH   1  19
ATOM     19  C   UNL     1      -0.316  -1.070  -2.103  0.00  0.00    -0.034 C 
BRANCH  19  20
ATOM     20  C   UNL     1       0.937  -0.238  -2.005  0.00  0.00    -0.027 A 
ATOM     21  C   UNL     1       2.186  -0.520  -2.451  0.00  0.00    +0.009 A 
ATOM     22  C   UNL     1       3.194   0.403  -2.249  0.00  0.00    +0.008 A 
ATOM     23  C   UNL     1       2.905   1.563  -1.611  0.00  0.00    +0.045 A 
ATOM     24  S   UNL     1       1.161   1.377  -1.279  0.00  0.00    -0.103 S 
ENDBRANCH  19  20
ENDBRANCH   1  19
BRANCH   1  25
ATOM     25  C   UNL     1      -1.478  -2.961  -1.135  0.00  0.00    -0.036 C 
BRANCH  25  26
ATOM     26  C   UNL     1      -1.149  -3.946  -2.226  0.00  0.00    +0.001 A 
ATOM     27  C   UNL     1      -0.593  -5.143  -1.911  0.00  0.00    +0.017 A 
ATOM     28  C   UNL     1      -0.289  -6.080  -2.994  0.00  0.00    -0.001 A 
ATOM     29  C   UNL     1       0.279  -7.330  -2.730  0.00  0.00    +0.010 A 
ATOM     30  C   UNL     1       0.556  -8.180  -3.764  0.00  0.00    +0.004 A 
ATOM     31  C   UNL     1       0.277  -7.814  -5.073  0.00  0.00    -0.046 A 
ATOM     32  C   UNL     1      -0.283  -6.587  -5.356  0.00  0.00    -0.024 A 
ATOM     33  C   UNL     1      -0.573  -5.705  -4.320  0.00  0.00    +0.052 A 
ATOM     34  N   UNL     1      -1.134  -4.471  -4.575  0.00  0.00    -0.322 N 
ATOM     35  H   UNL     1      -1.330  -4.215  -5.489  0.00  0.00    +0.169 HD
ATOM     36  C   UNL     1      -1.414  -3.619  -3.573  0.00  0.00    +0.251 A 
ATOM     37  O   UNL     1      -1.910  -2.537  -3.835  0.00  0.00    -0.268 OA
ATOM     38  C   UNL     1      -0.582  -6.202  -6.783  0.00  0.00    +0.046 C 
ATOM     39  C   UNL     1       0.590  -8.768  -6.197  0.00  0.00    +0.044 C 
ENDBRANCH  25  26
ENDBRANCH   1  25
TORSDOF 9
