REMARK  Name = ZINC12896039
REMARK  3 active torsions:
REMARK  status: ('A' for Active; 'I' for Inactive)
REMARK    1  A    between atoms: C_1  and  C_2
REMARK    2  A    between atoms: N_7  and  C_10
REMARK    3  A    between atoms: C_12  and  C_13
REMARK                            x       y       z     vdW  Elec       q    Type
REMARK                         _______ _______ _______ _____ _____    ______ ____
ROOT
ATOM      1  C   UNL     1      -0.014   1.213   0.009  0.00  0.00    +0.257 C 
ATOM      2  O   UNL     1       0.002  -0.004   0.002  0.00  0.00    -0.269 OA
ATOM      3  N   UNL     1      -1.191   1.871   0.018  0.00  0.00    -0.260 N 
ATOM      4  C   UNL     1      -2.384   1.160   0.020  0.00  0.00    +0.165 A 
ATOM      5  N   UNL     1      -2.571  -0.143   0.008  0.00  0.00    -0.229 NA
ATOM      6  C   UNL     1      -3.786  -0.685   0.017  0.00  0.00    +0.054 A 
ATOM      7  C   UNL     1      -4.827   0.187   0.026  0.00  0.00    +0.014 A 
ATOM      8  S   UNL     1      -4.014   1.763   0.031  0.00  0.00    -0.057 S 
ATOM      9  C   UNL     1      -6.285  -0.127   0.030  0.00  0.00    +0.044 C 
ATOM     10  C   UNL     1      -6.459  -1.607  -0.346  0.00  0.00    +0.006 C 
ATOM     11  C   UNL     1      -5.477  -2.443   0.480  0.00  0.00    +0.006 C 
ATOM     12  C   UNL     1      -4.044  -2.188   0.010  0.00  0.00    +0.056 C 
ATOM     13  H   UNL     1      -1.204   2.841   0.023  0.00  0.00    +0.157 HD
ENDROOT
BRANCH   1  25
ATOM     14  C   UNL     1       2.770  -0.004  -0.011  0.00  0.00    +0.046 C 
ATOM     15  C   UNL     1       2.522   1.483  -0.009  0.00  0.00    -0.017 A 
ATOM     16  C   UNL     1       3.599   2.372  -0.019  0.00  0.00    +0.076 A 
ATOM     17  C   UNL     1       3.263   3.745  -0.008  0.00  0.00    +0.116 A 
ATOM     18  N   UNL     1       4.192   4.693  -0.011  0.00  0.00    -0.230 NA
ATOM     19  C   UNL     1       5.465   4.404  -0.025  0.00  0.00    +0.203 A 
ATOM     20  N   UNL     1       5.909   3.123  -0.036  0.00  0.00    -0.302 N 
ATOM     21  C   UNL     1       5.051   2.083  -0.034  0.00  0.00    +0.262 A 
ATOM     22  O   UNL     1       5.460   0.936  -0.045  0.00  0.00    -0.267 OA
ATOM     23  C   UNL     1       7.350   2.863  -0.051  0.00  0.00    +0.153 C 
ATOM     24  S   UNL     1       1.488   3.731   0.009  0.00  0.00    -0.064 S 
ATOM     25  C   UNL     1       1.245   1.963   0.001  0.00  0.00    +0.080 A 
ENDBRANCH   1  25
TORSDOF 1
