REMARK  Name = ZINC29894553
REMARK  4 active torsions:
REMARK  status: ('A' for Active; 'I' for Inactive)
REMARK    1  A    between atoms: C_1  and  C_2
REMARK    2  A    between atoms: N_6  and  C_16
REMARK    3  A    between atoms: C_16  and  N_17
REMARK    4  A    between atoms: C_21  and  C_24
REMARK                            x       y       z     vdW  Elec       q    Type
REMARK                         _______ _______ _______ _____ _____    ______ ____
ROOT
ATOM      1  C   UNL     1       3.733   3.220  -0.015  0.00  0.00    +0.044 C 
ATOM      2  C   UNL     1       2.407   3.937   0.001  0.00  0.00    -0.038 A 
ATOM      3  C   UNL     1       2.362   5.285   0.008  0.00  0.00    +0.052 A 
ATOM      4  C   UNL     1       1.068   5.971   0.024  0.00  0.00    +0.160 A 
ATOM      5  N   UNL     1       0.764   7.247   0.035  0.00  0.00    -0.150 NA
ATOM      6  N   UNL     1      -0.632   7.360   0.049  0.00  0.00    -0.225 N 
ATOM      7  C   UNL     1      -1.141   6.112   0.047  0.00  0.00    +0.184 A 
ATOM      8  S   UNL     1      -2.803   5.700   0.060  0.00  0.00    -0.011 S 
ATOM      9  N   UNL     1      -0.108   5.244   0.032  0.00  0.00    -0.271 N 
ATOM     10  C   UNL     1      -0.076   3.854   0.024  0.00  0.00    +0.058 A 
ATOM     11  C   UNL     1       1.153   3.175   0.008  0.00  0.00    +0.002 A 
ATOM     12  C   UNL     1       1.173   1.777   0.000  0.00  0.00    +0.010 A 
ATOM     13  C   UNL     1      -0.013   1.076   0.008  0.00  0.00    +0.001 A 
ATOM     14  C   UNL     1      -1.224   1.749   0.017  0.00  0.00    +0.002 A 
ATOM     15  C   UNL     1      -1.260   3.128   0.031  0.00  0.00    +0.027 A 
ENDROOT
BRANCH   6  16
ATOM     16  C   UNL     1      -1.400   8.607   0.063  0.00  0.00    +0.233 C 
BRANCH  16  17
ATOM     17  N   UNL     1      -1.643   9.017   1.453  0.00  0.00    -0.279 NA
ATOM     18  C   UNL     1      -2.527   8.061   2.136  0.00  0.00    +0.114 C 
ATOM     19  C   UNL     1      -2.706   8.492   3.595  0.00  0.00    +0.176 C 
ATOM     20  O   UNL     1      -3.218   9.827   3.633  0.00  0.00    -0.369 OA
ATOM     21  C   UNL     1      -2.381  10.784   2.977  0.00  0.00    +0.162 C 
ATOM     22  C   UNL     1      -2.199  10.376   1.512  0.00  0.00    +0.122 C 
BRANCH  21  23
ATOM     23  C   UNL     1      -3.024  12.145   3.044  0.00  0.00    -0.018 A 
ATOM     24  C   UNL     1      -4.400  12.263   2.974  0.00  0.00    +0.009 A 
ATOM     25  C   UNL     1      -4.991  13.510   3.041  0.00  0.00    +0.039 A 
ATOM     26  C   UNL     1      -4.205  14.643   3.168  0.00  0.00    +0.123 A 
ATOM     27  C   UNL     1      -2.827  14.524   3.233  0.00  0.00    +0.039 A 
ATOM     28  C   UNL     1      -2.238  13.275   3.171  0.00  0.00    +0.009 A 
ATOM     29  F   UNL     1      -4.782  15.863   3.228  0.00  0.00    -0.205 F 
ENDBRANCH  21  23
ENDBRANCH  16  17
ENDBRANCH   6  16
TORSDOF 3
