REMARK  Name = ZINC24781665
REMARK  13 active torsions:
REMARK  status: ('A' for Active; 'I' for Inactive)
REMARK    1  A    between atoms: C_1  and  C_2
REMARK    2  A    between atoms: C_2  and  C_3
REMARK    3  A    between atoms: C_2  and  C_4
REMARK    4  A    between atoms: C_4  and  N_5
REMARK    5  A    between atoms: C_6  and  C_8
REMARK    6  A    between atoms: C_8  and  N_9
REMARK    7  A    between atoms: N_12  and  C_15
REMARK    8  A    between atoms: C_15  and  C_16
REMARK    9  A    between atoms: N_18  and  N_19
REMARK   10  A    between atoms: C_22  and  C_26
REMARK   11  A    between atoms: C_22  and  C_27
REMARK   12  A    between atoms: C_30  and  O_33
REMARK   13  A    between atoms: O_33  and  C_34
REMARK                            x       y       z     vdW  Elec       q    Type
REMARK                         _______ _______ _______ _____ _____    ______ ____
ROOT
ATOM      1  C   UNL     1      -0.474  -2.601  -0.934  0.00  0.00    +0.244 C 
ATOM      2  O   UNL     1       0.683  -2.945  -1.051  0.00  0.00    -0.273 OA
ATOM      3  N   UNL     1      -1.466  -3.485  -1.158  0.00  0.00    -0.223 N 
ATOM      4  H   UNL     1      -2.515  -3.172  -1.052  0.00  0.00    +0.174 HD
ENDROOT
BRANCH   3   5
ATOM      5  N   UNL     1      -1.161  -4.802  -1.525  0.00  0.00    -0.137 N 
ATOM      6  C   UNL     1      -1.258  -5.861  -0.697  0.00  0.00    +0.267 C 
ATOM      7  O   UNL     1      -1.611  -5.853   0.463  0.00  0.00    -0.271 OA
ATOM      8  C   UNL     1      -0.833  -7.063  -1.517  0.00  0.00    +0.137 C 
ATOM      9  N   UNL     1      -0.517  -6.488  -2.836  0.00  0.00    -0.280 N 
ATOM     10  C   UNL     1      -0.744  -5.165  -2.743  0.00  0.00    +0.327 C 
ATOM     11  O   UNL     1      -0.584  -4.386  -3.663  0.00  0.00    -0.251 OA
ATOM     12  C   UNL     1       0.405  -7.721  -0.906  0.00  0.00    +0.047 C 
ATOM     13  H   UNL     1      -0.170  -7.140  -3.651  0.00  0.00    +0.152 HD
BRANCH   8  14
ATOM     14  C   UNL     1      -1.963  -8.054  -1.628  0.00  0.00    -0.015 A 
ATOM     15  C   UNL     1      -2.889  -8.163  -0.607  0.00  0.00    +0.010 A 
ATOM     16  C   UNL     1      -3.928  -9.067  -0.709  0.00  0.00    +0.046 A 
ATOM     17  C   UNL     1      -4.035  -9.875  -1.832  0.00  0.00    +0.120 A 
ATOM     18  C   UNL     1      -3.102  -9.768  -2.852  0.00  0.00    +0.046 A 
ATOM     19  C   UNL     1      -2.067  -8.858  -2.748  0.00  0.00    +0.010 A 
BRANCH  17  20
ATOM     20  O   UNL     1      -5.053 -10.770  -1.932  0.00  0.00    -0.495 OA
ATOM     21  C   UNL     1      -5.978 -10.825  -0.843  0.00  0.00    +0.277 C 
ENDBRANCH  17  20
ENDBRANCH   8  14
ENDBRANCH   3   5
BRANCH   1  22
ATOM     22  C   UNL     1      -0.801  -1.184  -0.539  0.00  0.00    +0.182 C 
BRANCH  22  26
ATOM     23  N   UNL     1       2.256   1.259   1.053  0.00  0.00    +0.387 N 
ATOM     24  C   UNL     1       1.492   1.770  -0.094  0.00  0.00    -0.063 C 
ATOM     25  C   UNL     1       0.169   1.009  -0.203  0.00  0.00    +0.066 C 
ATOM     26  N   UNL     1       0.444  -0.426  -0.355  0.00  0.00    -0.298 NA
ATOM     27  C   UNL     1       1.207  -0.938   0.791  0.00  0.00    +0.066 C 
ATOM     28  C   UNL     1       2.530  -0.177   0.901  0.00  0.00    -0.063 C 
ATOM     29  H   UNL     1       1.643   1.394   1.956  0.00  0.00    -0.081 HD
BRANCH  23  30
ATOM     30  C   UNL     1       3.501   2.017   1.237  0.00  0.00    +0.019 C 
BRANCH  30  32
ATOM     31  N   UNL     1       5.347   2.114   2.879  0.00  0.00    -0.317 N 
ATOM     32  C   UNL     1       4.130   1.637   2.553  0.00  0.00    +0.196 C 
ATOM     33  O   UNL     1       3.540   0.903   3.317  0.00  0.00    -0.278 OA
ATOM     34  H   UNL     1       5.882   2.780   2.186  0.00  0.00    +0.149 HD
BRANCH  31  35
ATOM     35  C   UNL     1       5.959   1.745   4.159  0.00  0.00    +0.107 C 
BRANCH  35  37
ATOM     36  C   UNL     1       7.913   2.132   5.666  0.00  0.00    +0.009 C 
ATOM     37  C   UNL     1       7.329   2.415   4.281  0.00  0.00    -0.000 C 
ATOM     38  C   UNL     1       8.267   1.858   3.208  0.00  0.00    +0.009 C 
ENDBRANCH  35  37
ENDBRANCH  31  35
ENDBRANCH  30  32
ENDBRANCH  23  30
ENDBRANCH  22  26
ENDBRANCH   1  22
TORSDOF 9
