REMARK  Name = ZINC19971993
REMARK  6 active torsions:
REMARK  status: ('A' for Active; 'I' for Inactive)
REMARK    1  A    between atoms: C_1  and  O_2
REMARK    2  A    between atoms: O_2  and  C_3
REMARK    3  A    between atoms: C_6  and  N_19
REMARK    4  A    between atoms: C_8  and  C_9
REMARK    5  A    between atoms: C_9  and  C_11
REMARK    6  A    between atoms: C_9  and  N_18
REMARK                            x       y       z     vdW  Elec       q    Type
REMARK                         _______ _______ _______ _____ _____    ______ ____
ROOT
ATOM      1  C   UNL     1      -2.518   0.977   0.019  0.00  0.00    -0.009 C 
ENDROOT
BRANCH   1   2
ATOM      2  C   UNL     1      -1.590  -0.167   0.335  0.00  0.00    -0.044 A 
ATOM      3  C   UNL     1      -2.093  -1.340   0.866  0.00  0.00    +0.003 A 
ATOM      4  C   UNL     1      -1.242  -2.391   1.151  0.00  0.00    +0.000 A 
ATOM      5  C   UNL     1       0.113  -2.268   0.909  0.00  0.00    +0.001 A 
ATOM      6  C   UNL     1       0.618  -1.094   0.385  0.00  0.00    +0.014 A 
ATOM      7  C   UNL     1      -0.233  -0.041   0.100  0.00  0.00    +0.015 A 
ATOM      8  I   UNL     1       0.532   1.739  -0.696  0.00  0.00    -0.044 I 
ENDBRANCH   1   2
BRANCH   1  14
ATOM      9  C   UNL     1      -3.470   2.026  -2.051  0.00  0.00    +0.122 A 
ATOM     10  C   UNL     1      -3.836   1.963  -3.388  0.00  0.00    +0.048 A 
ATOM     11  C   UNL     1      -3.651   0.794  -4.099  0.00  0.00    +0.036 A 
ATOM     12  C   UNL     1      -3.101  -0.313  -3.481  0.00  0.00    +0.127 A 
ATOM     13  C   UNL     1      -2.730  -0.252  -2.151  0.00  0.00    +0.038 A 
ATOM     14  C   UNL     1      -2.918   0.913  -1.433  0.00  0.00    -0.014 A 
BRANCH  12  15
ATOM     15  N   UNL     1      -2.903  -1.565  -4.247  0.00  0.00    +0.056 N 
ATOM     16  O   UNL     1      -3.225  -1.618  -5.420  0.00  0.00    -0.126 OA
ATOM     17  O   UNL     1      -2.419  -2.541  -3.703  0.00  0.00    -0.126 OA
ENDBRANCH  12  15
BRANCH   9  19
ATOM     18  C   UNL     1      -4.326   4.243  -2.014  0.00  0.00    +0.277 C 
ATOM     19  O   UNL     1      -3.651   3.175  -1.348  0.00  0.00    -0.495 OA
ENDBRANCH   9  19
ENDBRANCH   1  14
BRANCH   1  20
ATOM     20  N   UNL     1      -3.718   0.882   0.862  0.00  0.00    +0.385 N 
ATOM     21  H   UNL     1      -3.426   0.928   1.921  0.00  0.00    -0.089 HD
ATOM     22  H   UNL     1      -4.230  -0.072   0.664  0.00  0.00    -0.089 HD
ATOM     23  H   UNL     1      -4.396   1.716   0.631  0.00  0.00    -0.089 HD
ENDBRANCH   1  20
TORSDOF 5
