REMARK  Name = ZINC61409426
REMARK  2 active torsions:
REMARK  status: ('A' for Active; 'I' for Inactive)
REMARK    1  A    between atoms: C_5  and  C_6
REMARK    2  A    between atoms: C_6  and  N_7
REMARK                            x       y       z     vdW  Elec       q    Type
REMARK                         _______ _______ _______ _____ _____    ______ ____
ROOT
ATOM      1  N   UNL     1      -1.544  -1.274  -1.371  0.00  0.00    -0.219 N 
ATOM      2  C   UNL     1      -2.456  -0.571  -2.076  0.00  0.00    +0.247 C 
ATOM      3  O   UNL     1      -3.085   0.396  -1.703  0.00  0.00    -0.273 OA
ATOM      4  C   UNL     1      -2.526  -1.243  -3.427  0.00  0.00    +0.109 C 
ATOM      5  C   UNL     1      -3.930  -1.779  -3.685  0.00  0.00    +0.016 C 
ATOM      6  C   UNL     1      -3.982  -2.412  -5.079  0.00  0.00    -0.080 C 
ATOM      7  N   UNL     1      -3.626  -1.407  -6.088  0.00  0.00    +0.379 N 
ATOM      8  C   UNL     1      -2.241  -0.965  -5.888  0.00  0.00    -0.080 C 
ATOM      9  C   UNL     1      -2.116  -0.271  -4.529  0.00  0.00    +0.016 C 
ATOM     10  N   UNL     1      -1.563  -2.347  -3.329  0.00  0.00    -0.285 N 
ATOM     11  C   UNL     1      -1.034  -2.281  -2.091  0.00  0.00    +0.310 C 
ATOM     12  O   UNL     1      -0.192  -3.051  -1.674  0.00  0.00    -0.252 OA
ATOM     13  H   UNL     1      -3.720  -1.810  -7.009  0.00  0.00    -0.086 HD
ATOM     14  H   UNL     1      -1.347  -2.993  -4.019  0.00  0.00    +0.151 HD
ATOM     15  H   UNL     1      -4.246  -0.616  -6.005  0.00  0.00    -0.086 HD
ENDROOT
BRANCH   1  16
ATOM     16  C   UNL     1      -1.156  -0.969   0.008  0.00  0.00    +0.160 C 
BRANCH  16  21
ATOM     17  C   UNL     1      -0.016   1.351   0.009  0.00  0.00    +0.014 A 
ATOM     18  C   UNL     1       1.184   2.038   0.002  0.00  0.00    +0.028 A 
ATOM     19  C   UNL     1       2.343   1.335  -0.013  0.00  0.00    +0.078 A 
ATOM     20  S   UNL     1       1.753  -0.350  -0.017  0.00  0.00    -0.080 S 
ATOM     21  C   UNL     1       0.002  -0.004   0.002  0.00  0.00    +0.009 A 
ATOM     22 CL   UNL     1       3.977   1.921  -0.026  0.00  0.00    -0.076 Cl
ENDBRANCH  16  21
ENDBRANCH   1  16
TORSDOF 2
