REMARK  Name = ZINC64481034
REMARK  3 active torsions:
REMARK  status: ('A' for Active; 'I' for Inactive)
REMARK    1  A    between atoms: C_3  and  O_24
REMARK    2  A    between atoms: C_4  and  O_23
REMARK    3  A    between atoms: C_6  and  C_7
REMARK                            x       y       z     vdW  Elec       q    Type
REMARK                         _______ _______ _______ _____ _____    ______ ____
ROOT
ATOM      1  C   UNL     1      -1.294  -0.774   0.010  0.00  0.00    +0.111 C 
ATOM      2  C   UNL     1      -1.794  -0.925   1.448  0.00  0.00    +0.128 C 
ATOM      3  C   UNL     1      -2.145   0.479   1.927  0.00  0.00    -0.035 C 
ATOM      4  C   UNL     1      -1.476   0.669   3.055  0.00  0.00    +0.001 A 
ATOM      5  C   UNL     1      -1.470   1.782   4.018  0.00  0.00    +0.030 A 
ATOM      6  C   UNL     1      -0.633   1.651   5.082  0.00  0.00    +0.042 A 
ATOM      7  C   UNL     1       0.188   0.536   5.282  0.00  0.00    +0.022 A 
ATOM      8  C   UNL     1       0.243  -0.535   4.451  0.00  0.00    +0.027 A 
ATOM      9  C   UNL     1      -0.597  -0.516   3.299  0.00  0.00    +0.043 A 
ATOM     10  N   UNL     1      -0.761  -1.422   2.355  0.00  0.00    -0.376 N 
ATOM     11 CL   UNL     1      -0.582   2.933   6.253  0.00  0.00    -0.084 Cl
ATOM     12  C   UNL     1      -3.022   1.398   1.111  0.00  0.00    +0.048 C 
ATOM     13  C   UNL     1      -2.473   1.351  -0.326  0.00  0.00    +0.086 C 
ATOM     14  N   UNL     1      -2.311  -0.040  -0.760  0.00  0.00    -0.307 NA
ATOM     15  H   UNL     1      -2.122  -0.092  -1.750  0.00  0.00    +0.123 HD
ATOM     16  H   UNL     1      -0.285  -2.263   2.267  0.00  0.00    +0.160 HD
ENDROOT
BRANCH   1  22
ATOM     17  C   UNL     1       1.115  -0.534  -0.624  0.00  0.00    +0.009 A 
ATOM     18  C   UNL     1       2.306   0.168  -0.634  0.00  0.00    +0.049 A 
ATOM     19  C   UNL     1       2.386   1.406  -0.016  0.00  0.00    +0.158 A 
ATOM     20  C   UNL     1       1.265   1.939   0.614  0.00  0.00    +0.159 A 
ATOM     21  C   UNL     1       0.075   1.230   0.621  0.00  0.00    +0.054 A 
ATOM     22  C   UNL     1       0.002  -0.004   0.002  0.00  0.00    -0.025 A 
BRANCH  20  23
ATOM     23  O   UNL     1       1.339   3.153   1.222  0.00  0.00    -0.503 OA
ATOM     24  H   UNL     1       1.123   3.897   0.644  0.00  0.00    +0.292 HD
ENDBRANCH  20  23
BRANCH  19  25
ATOM     25  O   UNL     1       3.557   2.097  -0.025  0.00  0.00    -0.503 OA
ATOM     26  H   UNL     1       3.658   2.690  -0.782  0.00  0.00    +0.292 HD
ENDBRANCH  19  25
ENDBRANCH   1  22
TORSDOF 3
