REMARK  Name = ZINC03282820
REMARK  10 active torsions:
REMARK  status: ('A' for Active; 'I' for Inactive)
REMARK    1  A    between atoms: C_1  and  O_2
REMARK    2  A    between atoms: O_2  and  C_3
REMARK    3  A    between atoms: C_5  and  C_13
REMARK    4  A    between atoms: C_7  and  O_11
REMARK    5  A    between atoms: C_8  and  O_9
REMARK    6  A    between atoms: O_9  and  C_10
REMARK    7  A    between atoms: O_11  and  C_12
REMARK    8  A    between atoms: C_13  and  O_15
REMARK    9  A    between atoms: O_15  and  C_16
REMARK   10  A    between atoms: C_19  and  C_22
REMARK                            x       y       z     vdW  Elec       q    Type
REMARK                         _______ _______ _______ _____ _____    ______ ____
ROOT
ATOM      1  C   UNL     1       2.539   5.063  -4.293  0.00  0.00    +0.132 A 
ATOM      2  C   UNL     1       3.520   5.325  -3.347  0.00  0.00    +0.047 A 
ATOM      3  C   UNL     1       3.277   5.065  -2.012  0.00  0.00    +0.011 A 
ATOM      4  C   UNL     1       2.058   4.545  -1.619  0.00  0.00    -0.007 A 
ATOM      5  C   UNL     1       1.081   4.279  -2.560  0.00  0.00    +0.011 A 
ATOM      6  C   UNL     1       1.317   4.542  -3.896  0.00  0.00    +0.047 A 
ENDROOT
BRANCH   4   7
ATOM      7  C   UNL     1       1.795   4.262  -0.162  0.00  0.00    +0.209 C 
ATOM      8  N   UNL     1       0.402   4.611   0.172  0.00  0.00    -0.294 N 
ATOM      9  C   UNL     1      -0.591   3.698  -0.151  0.00  0.00    +0.159 C 
ATOM     10  N   UNL     1      -0.396   2.388   0.289  0.00  0.00    -0.259 N 
ATOM     11  C   UNL     1       0.928   1.959   0.305  0.00  0.00    +0.205 A 
ATOM     12  N   UNL     1       1.976   2.830   0.106  0.00  0.00    -0.288 N 
ATOM     13  C   UNL     1       3.128   2.104   0.201  0.00  0.00    +0.072 A 
ATOM     14  C   UNL     1       4.471   2.444   0.096  0.00  0.00    +0.028 A 
ATOM     15  C   UNL     1       5.395   1.423   0.249  0.00  0.00    +0.002 A 
ATOM     16  C   UNL     1       5.010   0.116   0.496  0.00  0.00    +0.002 A 
ATOM     17  C   UNL     1       3.680  -0.248   0.605  0.00  0.00    +0.030 A 
ATOM     18  C   UNL     1       2.729   0.767   0.455  0.00  0.00    +0.091 A 
ATOM     19  N   UNL     1       1.382   0.752   0.504  0.00  0.00    -0.214 NA
ATOM     20  H   UNL     1       0.187   5.453   0.603  0.00  0.00    +0.151 HD
ATOM     21  H   UNL     1      -2.381   3.457  -1.090  0.00  0.00    +0.158 HD
ATOM     22  H   UNL     1      -1.131   1.818   0.565  0.00  0.00    +0.158 HD
ATOM     23  N   UNL     1      -1.641   4.113  -0.843  0.00  0.00    -0.375 N 
ATOM     24  H   UNL     1      -1.710   5.096  -1.131  0.00  0.00    +0.158 HD
ENDBRANCH   4   7
BRANCH   1  25
ATOM     25  O   UNL     1       2.776   5.317  -5.607  0.00  0.00    -0.422 OA
BRANCH  25  26
ATOM     26  C   UNL     1       3.678   4.532  -6.229  0.00  0.00    +0.345 C 
ATOM     27  O   UNL     1       4.159   3.581  -5.647  0.00  0.00    -0.245 OA
BRANCH  26  30
ATOM     28  C   UNL     1       5.390   4.294  -9.564  0.00  0.00    +0.166 A 
ATOM     29  C   UNL     1       5.015   4.015  -8.263  0.00  0.00    +0.064 A 
ATOM     30  C   UNL     1       4.080   4.828  -7.617  0.00  0.00    +0.067 A 
ATOM     31  C   UNL     1       3.523   5.919  -8.290  0.00  0.00    +0.064 A 
ATOM     32  C   UNL     1       3.906   6.197  -9.588  0.00  0.00    +0.166 A 
ATOM     33  C   UNL     1       4.837   5.385 -10.230  0.00  0.00    +0.204 A 
BRANCH  28  35
ATOM     34  C   UNL     1       6.827   2.402  -9.450  0.00  0.00    +0.277 C 
ATOM     35  O   UNL     1       6.300   3.503 -10.193  0.00  0.00    -0.491 OA
ENDBRANCH  28  35
BRANCH  33  36
ATOM     36  O   UNL     1       5.208   5.657 -11.509  0.00  0.00    -0.488 OA
ATOM     37  C   UNL     1       4.443   5.046 -12.550  0.00  0.00    +0.277 C 
ENDBRANCH  33  36
BRANCH  32  38
ATOM     38  O   UNL     1       3.369   7.262 -10.242  0.00  0.00    -0.491 OA
ATOM     39  C   UNL     1       2.419   8.052  -9.524  0.00  0.00    +0.277 C 
ENDBRANCH  32  38
ENDBRANCH  26  30
ENDBRANCH  25  26
ENDBRANCH   1  25
TORSDOF 7
