REMARK  Name = ZINC39695867
REMARK  8 active torsions:
REMARK  status: ('A' for Active; 'I' for Inactive)
REMARK    1  A    between atoms: C_1  and  C_2
REMARK    2  A    between atoms: C_7  and  C_12
REMARK    3  A    between atoms: C_12  and  C_14
REMARK    4  A    between atoms: C_12  and  N_15
REMARK    5  A    between atoms: C_16  and  C_18
REMARK    6  A    between atoms: C_29  and  C_31
REMARK    7  A    between atoms: C_34  and  C_38
REMARK    8  A    between atoms: N_35  and  C_37
REMARK                            x       y       z     vdW  Elec       q    Type
REMARK                         _______ _______ _______ _____ _____    ______ ____
ROOT
ATOM      1  C   UNL     1      -5.585   6.126  -7.263  0.00  0.00    +0.100 C 
ATOM      2  C   UNL     1      -4.507   7.137  -6.810  0.00  0.00    +0.121 C 
ATOM      3  N   UNL     1      -4.873   8.402  -7.489  0.00  0.00    -0.299 N 
ATOM      4  C   UNL     1      -6.353   8.446  -7.415  0.00  0.00    +0.115 C 
ATOM      5  C   UNL     1      -6.795   6.989  -7.658  0.00  0.00    -0.004 C 
ATOM      6  C   UNL     1      -7.996   6.649  -6.780  0.00  0.00    -0.010 C 
ATOM      7  C   UNL     1      -9.202   7.478  -7.230  0.00  0.00    -0.082 C 
ATOM      8  N   UNL     1      -9.501   7.186  -8.637  0.00  0.00    +0.379 N 
ATOM      9  C   UNL     1      -8.377   7.602  -9.485  0.00  0.00    -0.082 C 
ATOM     10  C   UNL     1      -7.136   6.779  -9.130  0.00  0.00    -0.010 C 
ATOM     11  C   UNL     1      -4.047   9.309  -8.047  0.00  0.00    +0.238 C 
ATOM     12  O   UNL     1      -4.503  10.305  -8.569  0.00  0.00    -0.273 OA
ATOM     13  H   UNL     1      -9.655   6.195  -8.749  0.00  0.00    -0.086 HD
ATOM     14  H   UNL     1     -10.332   7.686  -8.914  0.00  0.00    -0.086 HD
ENDROOT
BRANCH  11  15
ATOM     15  C   UNL     1      -2.557   9.086  -8.023  0.00  0.00    +0.183 C 
ATOM     16  C   UNL     1      -2.047   9.070  -6.598  0.00  0.00    +0.022 C 
ATOM     17  C   UNL     1      -1.191  10.066  -6.488  0.00  0.00    +0.017 C 
ATOM     18  N   UNL     1      -1.059  10.759  -7.674  0.00  0.00    -0.274 N 
ATOM     19  N   UNL     1      -1.854  10.223  -8.650  0.00  0.00    -0.225 NA
ATOM     20  C   UNL     1      -0.182  11.917  -7.864  0.00  0.00    +0.149 C 
ATOM     21  C   UNL     1      -0.448  10.406  -5.221  0.00  0.00    +0.061 C 
ATOM     22  H   UNL     1      -1.305   9.918  -9.440  0.00  0.00    +0.146 HD
ENDBRANCH  11  15
BRANCH   1  24
ATOM     23  N   UNL     1      -6.377   3.952  -6.388  0.00  0.00    -0.305 N 
ATOM     24  C   UNL     1      -5.947   5.202  -6.128  0.00  0.00    +0.219 C 
ATOM     25  O   UNL     1      -5.852   5.585  -4.981  0.00  0.00    -0.275 OA
ATOM     26  H   UNL     1      -6.452   3.646  -7.306  0.00  0.00    +0.149 HD
BRANCH  23  27
ATOM     27  C   UNL     1      -6.729   3.054  -5.286  0.00  0.00    +0.136 C 
ATOM     28  C   UNL     1      -8.178   3.306  -4.865  0.00  0.00    +0.036 C 
BRANCH  27  35
ATOM     29  C   UNL     1      -5.809  -4.274  -6.206  0.00  0.00    +0.044 C 
ATOM     30  C   UNL     1      -6.041  -2.811  -6.484  0.00  0.00    -0.048 A 
ATOM     31  C   UNL     1      -6.238  -2.380  -7.788  0.00  0.00    +0.005 A 
ATOM     32  C   UNL     1      -6.450  -1.058  -8.061  0.00  0.00    +0.030 A 
ATOM     33  C   UNL     1      -6.471  -0.127  -7.019  0.00  0.00    +0.089 A 
ATOM     34  N   UNL     1      -6.652   1.218  -6.969  0.00  0.00    -0.231 NA
ATOM     35  C   UNL     1      -6.578   1.623  -5.735  0.00  0.00    +0.128 A 
ATOM     36  H   UNL     1      -6.248   0.602  -3.945  0.00  0.00    +0.167 HD
ATOM     37  N   UNL     1      -6.345   0.567  -4.909  0.00  0.00    -0.340 N 
ATOM     38  C   UNL     1      -6.271  -0.563  -5.699  0.00  0.00    +0.067 A 
ATOM     39  C   UNL     1      -6.062  -1.911  -5.440  0.00  0.00    +0.031 A 
ENDBRANCH  27  35
ENDBRANCH  23  27
ENDBRANCH   1  24
TORSDOF 4
