REMARK  Name = ZINC43222811
REMARK  8 active torsions:
REMARK  status: ('A' for Active; 'I' for Inactive)
REMARK    1  A    between atoms: C_4  and  C_7
REMARK    2  A    between atoms: C_7  and  C_8
REMARK    3  A    between atoms: C_7  and  C_29
REMARK    4  A    between atoms: C_8  and  N_9
REMARK    5  A    between atoms: C_10  and  C_12
REMARK    6  A    between atoms: C_17  and  C_19
REMARK    7  A    between atoms: N_21  and  C_22
REMARK    8  A    between atoms: C_22  and  C_23
REMARK                            x       y       z     vdW  Elec       q    Type
REMARK                         _______ _______ _______ _____ _____    ______ ____
ROOT
ATOM      1  N   UNL     1       4.729  -2.340   1.473  0.00  0.00    -0.314 N 
ATOM      2  C   UNL     1       4.807  -3.131   2.561  0.00  0.00    +0.215 C 
ATOM      3  O   UNL     1       3.899  -3.148   3.365  0.00  0.00    -0.276 OA
ATOM      4  H   UNL     1       5.455  -2.326   0.830  0.00  0.00    +0.149 HD
ENDROOT
BRANCH   2   5
ATOM      5  C   UNL     1       6.022  -3.995   2.779  0.00  0.00    +0.068 C 
ATOM      6  C   UNL     1       7.280  -3.117   2.950  0.00  0.00    -0.069 C 
ATOM      7  N   UNL     1       7.433  -2.964   4.420  0.00  0.00    +0.380 N 
ATOM      8  C   UNL     1       7.087  -4.302   4.964  0.00  0.00    -0.069 C 
ATOM      9  C   UNL     1       5.894  -4.777   4.102  0.00  0.00    +0.068 C 
ATOM     10  H   UNL     1       8.386  -2.725   4.653  0.00  0.00    -0.086 HD
ATOM     11  H   UNL     1       6.796  -2.265   4.770  0.00  0.00    -0.086 HD
BRANCH   9  12
ATOM     12  C   UNL     1       5.987  -6.259   3.845  0.00  0.00    +0.215 C 
ATOM     13  O   UNL     1       6.143  -6.670   2.715  0.00  0.00    -0.276 OA
ATOM     14  N   UNL     1       5.899  -7.128   4.872  0.00  0.00    -0.313 N 
ATOM     15  H   UNL     1       5.774  -6.799   5.776  0.00  0.00    +0.149 HD
BRANCH  14  16
ATOM     16  C   UNL     1       5.990  -8.568   4.623  0.00  0.00    +0.135 C 
BRANCH  16  17
ATOM     17  C   UNL     1       5.860  -9.324   5.947  0.00  0.00    +0.135 C 
ATOM     18  C   UNL     1       5.989 -10.850   5.709  0.00  0.00    +0.035 C 
ATOM     19  C   UNL     1       6.474 -11.326   7.106  0.00  0.00    +0.031 C 
ATOM     20  C   UNL     1       7.350 -10.142   7.569  0.00  0.00    +0.160 C 
ATOM     21  O   UNL     1       6.946  -8.986   6.823  0.00  0.00    -0.375 OA
ENDBRANCH  16  17
ENDBRANCH  14  16
ENDBRANCH   9  12
ENDBRANCH   2   5
BRANCH   1  22
ATOM     22  C   UNL     1       3.547  -1.500   1.261  0.00  0.00    +0.117 C 
BRANCH  22  23
ATOM     23  C   UNL     1       3.711  -0.707  -0.038  0.00  0.00    +0.066 C 
BRANCH  23  27
ATOM     24  C   UNL     1       0.433   1.995  -0.481  0.00  0.00    +0.000 A 
ATOM     25  C   UNL     1       1.730   2.461  -0.579  0.00  0.00    +0.000 A 
ATOM     26  C   UNL     1       2.791   1.587  -0.435  0.00  0.00    +0.004 A 
ATOM     27  C   UNL     1       2.555   0.246  -0.193  0.00  0.00    -0.038 A 
ATOM     28  C   UNL     1       1.257  -0.220  -0.095  0.00  0.00    +0.004 A 
ATOM     29  C   UNL     1       0.196   0.655  -0.240  0.00  0.00    +0.000 A 
ENDBRANCH  23  27
BRANCH  23  30
ATOM     30  C   UNL     1       3.740  -1.658  -1.207  0.00  0.00    -0.038 A 
ATOM     31  C   UNL     1       2.732  -2.591  -1.363  0.00  0.00    +0.004 A 
ATOM     32  C   UNL     1       2.758  -3.463  -2.435  0.00  0.00    +0.000 A 
ATOM     33  C   UNL     1       3.791  -3.401  -3.351  0.00  0.00    +0.000 A 
ATOM     34  C   UNL     1       4.798  -2.467  -3.196  0.00  0.00    +0.000 A 
ATOM     35  C   UNL     1       4.770  -1.592  -2.126  0.00  0.00    +0.004 A 
ENDBRANCH  23  30
ENDBRANCH  22  23
ENDBRANCH   1  22
TORSDOF 8
