REMARK  Name = ZINC04034944
REMARK  2 active torsions:
REMARK  status: ('A' for Active; 'I' for Inactive)
REMARK    1  A    between atoms: C_6  and  N_10
REMARK    2  A    between atoms: C_7  and  C_8
REMARK                            x       y       z     vdW  Elec       q    Type
REMARK                         _______ _______ _______ _____ _____    ______ ____
ROOT
ATOM      1  N   UNL     1       4.817  -1.437   2.299  0.00  0.00    -0.202 N 
ATOM      2  C   UNL     1       5.952  -0.740   2.425  0.00  0.00    +0.231 C 
ATOM      3  O   UNL     1       6.122   0.397   2.042  0.00  0.00    -0.274 OA
ATOM      4  C   UNL     1       6.991  -1.591   3.120  0.00  0.00    +0.095 C 
ATOM      5  C   UNL     1       7.231  -1.003   4.546  0.00  0.00    +0.025 C 
ATOM      6  C   UNL     1       7.500  -2.323   5.358  0.00  0.00    +0.016 C 
ATOM      7  C   UNL     1       6.120  -2.960   4.955  0.00  0.00    +0.025 C 
ATOM      8  C   UNL     1       6.240  -2.931   3.378  0.00  0.00    +0.095 C 
ATOM      9  C   UNL     1       4.866  -2.675   2.803  0.00  0.00    +0.231 C 
ATOM     10  O   UNL     1       3.950  -3.469   2.799  0.00  0.00    -0.274 OA
ATOM     11  C   UNL     1       5.184  -1.793   5.289  0.00  0.00    -0.027 C 
ATOM     12  C   UNL     1       5.826  -0.645   5.045  0.00  0.00    -0.027 C 
ENDROOT
BRANCH   1  18
ATOM     13  C   UNL     1       0.254   1.002  -0.976  0.00  0.00    +0.010 C 
ATOM     14  C   UNL     1       1.247  -0.135  -1.296  0.00  0.00    +0.037 C 
ATOM     15  C   UNL     1       2.057  -0.339  -0.018  0.00  0.00    -0.018 A 
ATOM     16  C   UNL     1       1.397   0.234   1.006  0.00  0.00    -0.004 A 
ATOM     17  S   UNL     1       2.424  -0.067   2.423  0.00  0.00    -0.076 S 
ATOM     18  C   UNL     1       3.676  -0.914   1.697  0.00  0.00    +0.099 A 
ATOM     19  C   UNL     1       3.317  -0.972   0.365  0.00  0.00    +0.084 A 
ATOM     20  C   UNL     1       0.112   0.874   0.557  0.00  0.00    +0.043 C 
BRANCH  19  21
ATOM     21  C   UNL     1       4.145  -1.627  -0.602  0.00  0.00    +0.102 C 
ATOM     22  N   UNL     1       4.802  -2.147  -1.369  0.00  0.00    -0.191 NA
ENDBRANCH  19  21
ENDBRANCH   1  18
TORSDOF 2
