REMARK  Name = ZINC49581025
REMARK  10 active torsions:
REMARK  status: ('A' for Active; 'I' for Inactive)
REMARK    1  A    between atoms: C_1  and  C_2
REMARK    2  A    between atoms: C_2  and  C_4
REMARK    3  A    between atoms: C_2  and  N_20
REMARK    4  A    between atoms: N_6  and  C_7
REMARK    5  A    between atoms: C_7  and  C_8
REMARK    6  A    between atoms: C_7  and  C_14
REMARK    7  A    between atoms: N_20  and  C_21
REMARK    8  A    between atoms: C_21  and  C_22
REMARK    9  A    between atoms: C_22  and  O_23
REMARK   10  A    between atoms: O_23  and  C_24
REMARK                            x       y       z     vdW  Elec       q    Type
REMARK                         _______ _______ _______ _____ _____    ______ ____
ROOT
ATOM      1  C   UNL     1      -1.412  -0.526   0.013  0.00  0.00    +0.199 C 
ATOM      2  O   UNL     1      -1.790  -1.233   0.922  0.00  0.00    -0.278 OA
ATOM      3  N   UNL     1      -2.256  -0.206  -0.988  0.00  0.00    -0.306 N 
ATOM      4  H   UNL     1      -1.953   0.360  -1.716  0.00  0.00    +0.150 HD
ENDROOT
BRANCH   1   6
ATOM      5  C   UNL     1      -0.019   1.526   0.010  0.00  0.00    -0.004 C 
ATOM      6  C   UNL     1       0.002  -0.004   0.002  0.00  0.00    +0.013 C 
BRANCH   6   7
ATOM      7  N   UNL     1       0.713  -0.491   1.192  0.00  0.00    +0.389 N 
ATOM      8  H   UNL     1       0.290  -0.099   2.020  0.00  0.00    -0.085 HD
ATOM      9  H   UNL     1       0.655  -1.497   1.230  0.00  0.00    -0.085 HD
BRANCH   7  10
ATOM     10  C   UNL     1       2.122  -0.083   1.122  0.00  0.00    -0.040 C 
BRANCH  10  11
ATOM     11  C   UNL     1       2.862  -0.589   2.361  0.00  0.00    +0.210 C 
BRANCH  11  12
ATOM     12  O   UNL     1       2.881  -2.018   2.354  0.00  0.00    -0.491 OA
BRANCH  12  13
ATOM     13  C   UNL     1       3.505  -2.633   3.394  0.00  0.00    +0.155 A 
ATOM     14  C   UNL     1       4.082  -1.877   4.403  0.00  0.00    +0.048 A 
ATOM     15  C   UNL     1       4.715  -2.503   5.459  0.00  0.00    +0.004 A 
ATOM     16  C   UNL     1       4.776  -3.883   5.511  0.00  0.00    +0.003 A 
ATOM     17  C   UNL     1       4.203  -4.641   4.506  0.00  0.00    +0.042 A 
ATOM     18  C   UNL     1       3.562  -4.020   3.450  0.00  0.00    +0.165 A 
ATOM     19  F   UNL     1       2.997  -4.760   2.471  0.00  0.00    -0.202 F 
ENDBRANCH  12  13
ENDBRANCH  11  12
ENDBRANCH  10  11
ENDBRANCH   7  10
ENDBRANCH   6   7
ENDBRANCH   1   6
BRANCH   3  20
ATOM     20  C   UNL     1      -3.630  -0.713  -0.978  0.00  0.00    +0.133 C 
BRANCH  20  21
ATOM     21  C   UNL     1      -4.512   0.209  -1.780  0.00  0.00    -0.023 A 
ATOM     22  C   UNL     1      -4.049   0.752  -2.963  0.00  0.00    +0.006 A 
ATOM     23  C   UNL     1      -4.858   1.598  -3.699  0.00  0.00    +0.000 A 
ATOM     24  C   UNL     1      -6.130   1.901  -3.251  0.00  0.00    +0.000 A 
ATOM     25  C   UNL     1      -6.593   1.357  -2.067  0.00  0.00    +0.000 A 
ATOM     26  C   UNL     1      -5.786   0.508  -1.334  0.00  0.00    +0.006 A 
ENDBRANCH  20  21
BRANCH  20  27
ATOM     27  C   UNL     1      -3.661  -2.092  -1.586  0.00  0.00    -0.023 A 
ATOM     28  C   UNL     1      -2.885  -2.377  -2.693  0.00  0.00    +0.006 A 
ATOM     29  C   UNL     1      -2.914  -3.642  -3.251  0.00  0.00    +0.000 A 
ATOM     30  C   UNL     1      -3.719  -4.621  -2.700  0.00  0.00    +0.000 A 
ATOM     31  C   UNL     1      -4.494  -4.337  -1.592  0.00  0.00    +0.000 A 
ATOM     32  C   UNL     1      -4.462  -3.073  -1.032  0.00  0.00    +0.006 A 
ENDBRANCH  20  27
ENDBRANCH   3  20
TORSDOF 9
