REMARK  Name = ZINC43222531
REMARK  9 active torsions:
REMARK  status: ('A' for Active; 'I' for Inactive)
REMARK    1  A    between atoms: C_1  and  C_2
REMARK    2  A    between atoms: C_2  and  C_4
REMARK    3  A    between atoms: C_2  and  N_8
REMARK    4  A    between atoms: C_4  and  C_5
REMARK    5  A    between atoms: C_5  and  C_6
REMARK    6  A    between atoms: C_5  and  C_7
REMARK    7  A    between atoms: C_9  and  C_11
REMARK    8  A    between atoms: C_16  and  C_18
REMARK    9  A    between atoms: N_20  and  C_21
REMARK                            x       y       z     vdW  Elec       q    Type
REMARK                         _______ _______ _______ _____ _____    ______ ____
ROOT
ATOM      1  C   UNL     1       0.712  -1.094  -3.598  0.00  0.00    +0.068 C 
ATOM      2  C   UNL     1       1.236  -2.531  -3.389  0.00  0.00    -0.069 C 
ATOM      3  N   UNL     1       0.174  -3.403  -3.953  0.00  0.00    +0.380 N 
ATOM      4  C   UNL     1      -0.274  -2.688  -5.176  0.00  0.00    -0.069 C 
ATOM      5  C   UNL     1      -0.281  -1.195  -4.775  0.00  0.00    +0.068 C 
ATOM      6  H   UNL     1       0.550  -4.308  -4.192  0.00  0.00    -0.086 HD
ATOM      7  H   UNL     1      -0.590  -3.497  -3.300  0.00  0.00    -0.086 HD
ENDROOT
BRANCH   1   9
ATOM      8  N   UNL     1       0.688  -0.476  -1.203  0.00  0.00    -0.313 N 
ATOM      9  C   UNL     1       0.006  -0.608  -2.358  0.00  0.00    +0.215 C 
ATOM     10  O   UNL     1      -1.175  -0.336  -2.400  0.00  0.00    -0.276 OA
ATOM     11  H   UNL     1       1.632  -0.695  -1.170  0.00  0.00    +0.149 HD
BRANCH   8  13
ATOM     12  C   UNL     1      -0.019   1.526   0.010  0.00  0.00    +0.028 C 
ATOM     13  C   UNL     1       0.002  -0.004   0.002  0.00  0.00    +0.070 C 
BRANCH  13  14
ATOM     14  C   UNL     1       0.742  -0.511   1.242  0.00  0.00    +0.025 C 
BRANCH  14  15
ATOM     15  C   UNL     1       0.655  -2.037   1.299  0.00  0.00    -0.015 C 
ATOM     16  C   UNL     1       1.499  -2.553   2.467  0.00  0.00    +0.007 C 
ATOM     17  C   UNL     1      -0.802  -2.458   1.497  0.00  0.00    +0.007 C 
ENDBRANCH  14  15
ENDBRANCH  13  14
ENDBRANCH   8  13
ENDBRANCH   1   9
BRANCH   5  18
ATOM     18  C   UNL     1       0.183  -0.339  -5.926  0.00  0.00    +0.215 C 
ATOM     19  O   UNL     1       1.210   0.298  -5.832  0.00  0.00    -0.276 OA
ATOM     20  N   UNL     1      -0.544  -0.283  -7.059  0.00  0.00    -0.308 N 
ATOM     21  H   UNL     1      -1.365  -0.794  -7.135  0.00  0.00    +0.149 HD
BRANCH  20  22
ATOM     22  C   UNL     1      -0.093   0.548  -8.178  0.00  0.00    +0.103 C 
ATOM     23  C   UNL     1      -1.299   0.951  -9.024  0.00  0.00    +0.027 C 
ATOM     24  C   UNL     1      -0.789   1.631 -10.300  0.00  0.00    +0.007 C 
ATOM     25  C   UNL     1      -0.123   0.572 -11.177  0.00  0.00    +0.035 C 
ATOM     26  C   UNL     1       0.888  -0.213 -10.382  0.00  0.00    -0.042 A 
ATOM     27  C   UNL     1       0.898  -0.228  -9.006  0.00  0.00    -0.024 A 
ATOM     28  C   UNL     1       1.854  -0.979  -8.334  0.00  0.00    +0.006 A 
ATOM     29  C   UNL     1       2.792  -1.708  -9.035  0.00  0.00    +0.000 A 
ATOM     30  C   UNL     1       2.783  -1.691 -10.417  0.00  0.00    +0.000 A 
ATOM     31  C   UNL     1       1.835  -0.946 -11.085  0.00  0.00    +0.004 A 
ENDBRANCH  20  22
ENDBRANCH   5  18
TORSDOF 6
