REMARK  Name = ZINC61270682
REMARK  5 active torsions:
REMARK  status: ('A' for Active; 'I' for Inactive)
REMARK    1  A    between atoms: C_2  and  N_10
REMARK    2  A    between atoms: N_4  and  C_6
REMARK    3  A    between atoms: C_6  and  C_7
REMARK    4  A    between atoms: C_11  and  C_13
REMARK    5  A    between atoms: C_13  and  N_14
REMARK                            x       y       z     vdW  Elec       q    Type
REMARK                         _______ _______ _______ _____ _____    ______ ____
ROOT
ATOM      1  N   UNL     1       1.720   3.110   0.002  0.00  0.00    -0.285 N 
ATOM      2  C   UNL     1       0.801   4.095   0.017  0.00  0.00    +0.201 C 
ATOM      3  O   UNL     1      -0.381   3.821   0.027  0.00  0.00    -0.278 OA
ATOM      4  H   UNL     1       2.665   3.329  -0.006  0.00  0.00    +0.155 HD
ENDROOT
BRANCH   1   6
ATOM      5  C   UNL     1      -0.016   1.304   0.009  0.00  0.00    +0.157 A 
ATOM      6  C   UNL     1       1.310   1.763  -0.001  0.00  0.00    +0.071 A 
ATOM      7  C   UNL     1       2.126   0.678  -0.015  0.00  0.00    +0.132 A 
ATOM      8  N   UNL     1       1.337  -0.427  -0.013  0.00  0.00    -0.261 N 
ATOM      9  N   UNL     1       0.002  -0.004   0.002  0.00  0.00    -0.177 NA
BRANCH   8  10
ATOM     10  C   UNL     1       1.801  -1.817  -0.026  0.00  0.00    +0.238 C 
BRANCH  10  11
ATOM     11  C   UNL     1       1.199  -2.558   1.140  0.00  0.00    +0.232 C 
ATOM     12  O   UNL     1       0.455  -1.982   1.906  0.00  0.00    -0.274 OA
ATOM     13  N   UNL     1       1.486  -3.861   1.331  0.00  0.00    -0.328 N 
ATOM     14  H   UNL     1       2.081  -4.321   0.719  0.00  0.00    +0.145 HD
ATOM     15  H   UNL     1       1.099  -4.338   2.082  0.00  0.00    +0.145 HD
ENDBRANCH  10  11
ENDBRANCH   8  10
ENDBRANCH   1   6
BRANCH   2  16
ATOM     16  C   UNL     1       1.240   5.536   0.020  0.00  0.00    +0.019 C 
BRANCH  16  17
ATOM     17  N   UNL     1       0.059   6.409   0.037  0.00  0.00    +0.386 N 
ATOM     18  C   UNL     1       0.495   7.808  -0.158  0.00  0.00    -0.077 C 
ATOM     19  C   UNL     1      -0.674   8.615  -0.662  0.00  0.00    -0.003 C 
ATOM     20  C   UNL     1      -1.441   9.296   0.485  0.00  0.00    +0.079 C 
ATOM     21  N   UNL     1      -1.600   8.407   1.659  0.00  0.00    -0.318 NA
ATOM     22  C   UNL     1      -1.926   7.042   1.311  0.00  0.00    +0.062 C 
ATOM     23  C   UNL     1      -0.625   6.220   1.242  0.00  0.00    -0.063 C 
ATOM     24  H   UNL     1      -0.786   8.444   2.253  0.00  0.00    +0.122 HD
ATOM     25  H   UNL     1      -0.548   6.149  -0.726  0.00  0.00    -0.081 HD
ENDBRANCH  16  17
ENDBRANCH   2  16
TORSDOF 5
