REMARK  Name = ZINC39674463
REMARK  10 active torsions:
REMARK  status: ('A' for Active; 'I' for Inactive)
REMARK    1  A    between atoms: C_1  and  C_2
REMARK    2  A    between atoms: C_2  and  N_3
REMARK    3  A    between atoms: C_4  and  C_11
REMARK    4  A    between atoms: C_7  and  C_9
REMARK    5  A    between atoms: C_15  and  C_24
REMARK    6  A    between atoms: N_26  and  C_27
REMARK    7  A    between atoms: C_27  and  C_29
REMARK    8  A    between atoms: C_27  and  C_30
REMARK    9  A    between atoms: C_31  and  C_37
REMARK   10  A    between atoms: C_34  and  C_36
REMARK                            x       y       z     vdW  Elec       q    Type
REMARK                         _______ _______ _______ _____ _____    ______ ____
ROOT
ATOM      1  C   UNL     1       1.989  -3.791   0.620  0.00  0.00    +0.239 C 
ATOM      2  O   UNL     1       3.096  -3.313   0.749  0.00  0.00    -0.273 OA
ATOM      3  N   UNL     1       1.849  -5.050   0.157  0.00  0.00    -0.299 N 
ATOM      4  C   UNL     1       0.592  -5.760  -0.174  0.00  0.00    +0.121 C 
ATOM      5  C   UNL     1       0.922  -6.563  -1.452  0.00  0.00    +0.100 C 
ATOM      6  C   UNL     1       2.449  -6.741  -1.420  0.00  0.00    -0.004 C 
ATOM      7  C   UNL     1       2.918  -6.033  -0.141  0.00  0.00    +0.115 C 
ATOM      8  C   UNL     1       3.084  -6.085  -2.642  0.00  0.00    -0.010 C 
ATOM      9  C   UNL     1       4.596  -6.325  -2.617  0.00  0.00    -0.082 C 
ATOM     10  N   UNL     1       4.864  -7.768  -2.617  0.00  0.00    +0.379 N 
ATOM     11  C   UNL     1       4.331  -8.377  -1.392  0.00  0.00    -0.082 C 
ATOM     12  C   UNL     1       2.807  -8.223  -1.366  0.00  0.00    -0.010 C 
ATOM     13  H   UNL     1       4.424  -8.190  -3.420  0.00  0.00    -0.086 HD
ATOM     14  H   UNL     1       5.860  -7.923  -2.662  0.00  0.00    -0.086 HD
ENDROOT
BRANCH   1  16
ATOM     15  N   UNL     1       0.794  -1.680   0.275  0.00  0.00    -0.213 NA
ATOM     16  C   UNL     1       0.771  -2.979   0.976  0.00  0.00    +0.200 C 
ATOM     17  C   UNL     1       0.787  -2.612   2.444  0.00  0.00    +0.041 C 
ATOM     18  C   UNL     1       0.815  -1.296   2.508  0.00  0.00    +0.028 C 
ATOM     19  N   UNL     1       0.819  -0.723   1.250  0.00  0.00    -0.280 N 
ATOM     20  C   UNL     1       0.838  -0.512   3.795  0.00  0.00    +0.062 C 
ATOM     21 BR   UNL     1       0.770  -3.811   3.906  0.00  0.00    -0.051 Br
ATOM     22  H   UNL     1       0.838   0.232   1.081  0.00  0.00    +0.166 HD
BRANCH  15  24
ATOM     23  C   UNL     1       1.891  -0.275  -1.403  0.00  0.00    +0.022 C 
ATOM     24  C   UNL     1       1.970  -1.573  -0.598  0.00  0.00    +0.103 C 
ENDBRANCH  15  24
ENDBRANCH   1  16
BRANCH   5  25
ATOM     25  C   UNL     1       0.234  -7.903  -1.423  0.00  0.00    +0.219 C 
ATOM     26  O   UNL     1       0.067  -8.476  -0.367  0.00  0.00    -0.275 OA
ATOM     27  N   UNL     1      -0.195  -8.465  -2.570  0.00  0.00    -0.309 N 
ATOM     28  H   UNL     1      -0.062  -8.007  -3.415  0.00  0.00    +0.149 HD
BRANCH  27  29
ATOM     29  C   UNL     1      -0.864  -9.768  -2.542  0.00  0.00    +0.100 C 
ATOM     30  C   UNL     1      -2.369  -9.566  -2.352  0.00  0.00    +0.033 C 
BRANCH  29  31
ATOM     31  C   UNL     1      -0.615 -10.490  -3.841  0.00  0.00    -0.001 C 
ATOM     32  C   UNL     1      -0.035 -11.678  -4.025  0.00  0.00    +0.063 C 
ATOM     33  N   UNL     1       0.009 -11.993  -5.338  0.00  0.00    -0.159 NA
ATOM     34  N   UNL     1      -0.481 -11.143  -6.085  0.00  0.00    -0.180 NA
ATOM     35  C   UNL     1      -0.971 -10.036  -5.246  0.00  0.00    +0.154 C 
ATOM     36  C   UNL     1      -0.246  -8.735  -5.595  0.00  0.00    +0.039 C 
ATOM     37  C   UNL     1       0.497 -12.550  -2.917  0.00  0.00    +0.067 C 
ENDBRANCH  29  31
ENDBRANCH  27  29
ENDBRANCH   5  25
TORSDOF 5
