REMARK  Name = ZINC37164479
REMARK  11 active torsions:
REMARK  status: ('A' for Active; 'I' for Inactive)
REMARK    1  A    between atoms: C_1  and  C_2
REMARK    2  A    between atoms: C_2  and  C_3
REMARK    3  A    between atoms: C_3  and  C_4
REMARK    4  A    between atoms: C_4  and  C_5
REMARK    5  A    between atoms: C_5  and  N_6
REMARK    6  A    between atoms: N_6  and  C_7
REMARK    7  A    between atoms: N_6  and  C_8
REMARK    8  A    between atoms: C_8  and  C_10
REMARK    9  A    between atoms: C_8  and  C_11
REMARK   10  A    between atoms: N_13  and  C_14
REMARK   11  A    between atoms: C_17  and  N_21
REMARK                            x       y       z     vdW  Elec       q    Type
REMARK                         _______ _______ _______ _____ _____    ______ ____
ROOT
ATOM      1  C   UNL     1       1.903  -3.664   4.970  0.00  0.00    +0.203 C 
ATOM      2  O   UNL     1       1.183  -2.689   4.907  0.00  0.00    -0.277 OA
ATOM      3  N   UNL     1       1.975  -4.376   6.111  0.00  0.00    -0.284 N 
ATOM      4  H   UNL     1       2.488  -5.198   6.139  0.00  0.00    +0.155 HD
ENDROOT
BRANCH   3   5
ATOM      5  C   UNL     1       1.307  -3.928   7.261  0.00  0.00    +0.070 A 
ATOM      6  C   UNL     1      -0.044  -3.610   7.199  0.00  0.00    +0.065 A 
ATOM      7  C   UNL     1      -0.701  -3.168   8.332  0.00  0.00    +0.044 A 
ATOM      8  C   UNL     1      -0.012  -3.043   9.531  0.00  0.00    +0.027 A 
ATOM      9  C   UNL     1       1.339  -3.361   9.592  0.00  0.00    +0.044 A 
ATOM     10  C   UNL     1       1.995  -3.808   8.461  0.00  0.00    +0.065 A 
ATOM     11 CL   UNL     1       3.681  -4.213   8.540  0.00  0.00    -0.082 Cl
ATOM     12 CL   UNL     1      -0.905  -3.766   5.700  0.00  0.00    -0.082 Cl
BRANCH   8  13
ATOM     13  N   UNL     1      -0.678  -2.596  10.677  0.00  0.00    -0.358 N 
ATOM     14  H   UNL     1      -1.621  -2.374  10.634  0.00  0.00    +0.142 HD
ATOM     15  H   UNL     1      -0.197  -2.508  11.514  0.00  0.00    +0.142 HD
ENDBRANCH   8  13
ENDBRANCH   3   5
BRANCH   1  16
ATOM     16  C   UNL     1       2.716  -4.078   3.771  0.00  0.00    +0.016 C 
ATOM     17  C   UNL     1       1.927  -5.097   2.946  0.00  0.00    -0.004 C 
BRANCH  16  18
ATOM     18  N   UNL     1       3.006  -2.898   2.944  0.00  0.00    +0.385 N 
ATOM     19  C   UNL     1       3.744  -3.312   1.743  0.00  0.00    -0.095 C 
ATOM     20  H   UNL     1       2.141  -2.457   2.673  0.00  0.00    -0.081 HD
BRANCH  18  21
ATOM     21  C   UNL     1       3.819  -1.948   3.715  0.00  0.00    -0.078 C 
BRANCH  21  22
ATOM     22  C   UNL     1       3.995  -0.658   2.912  0.00  0.00    -0.019 C 
BRANCH  22  23
ATOM     23  C   UNL     1       4.841   0.331   3.715  0.00  0.00    -0.002 C 
BRANCH  23  25
ATOM     24  C   UNL     1       5.863   2.611   3.715  0.00  0.00    +0.004 C 
ATOM     25  C   UNL     1       5.017   1.622   2.912  0.00  0.00    -0.003 C 
ENDBRANCH  23  25
ENDBRANCH  22  23
ENDBRANCH  21  22
ENDBRANCH  18  21
ENDBRANCH  16  18
ENDBRANCH   1  16
TORSDOF 8
