REMARK  Name = ZINC19117122
REMARK  7 active torsions:
REMARK  status: ('A' for Active; 'I' for Inactive)
REMARK    1  A    between atoms: C_1  and  C_2
REMARK    2  A    between atoms: C_2  and  C_3
REMARK    3  A    between atoms: C_2  and  C_4
REMARK    4  A    between atoms: N_5  and  C_6
REMARK    5  A    between atoms: C_6  and  C_8
REMARK    6  A    between atoms: C_6  and  N_12
REMARK    7  A    between atoms: C_13  and  C_15
REMARK                            x       y       z     vdW  Elec       q    Type
REMARK                         _______ _______ _______ _____ _____    ______ ____
ROOT
ATOM      1  C   UNL     1      -3.346  -1.349  -1.128  0.00  0.00    +0.220 C 
ENDROOT
BRANCH   1   3
ATOM      2  C   UNL     1      -1.462  -0.420   0.012  0.00  0.00    +0.069 C 
ATOM      3  N   UNL     1      -2.015  -0.738  -1.113  0.00  0.00    -0.355 N 
ATOM      4  N   UNL     1      -2.166  -0.542   1.180  0.00  0.00    -0.348 N 
ATOM      5  H   UNL     1      -1.778  -0.236   2.015  0.00  0.00    +0.143 HD
ATOM      6  H   UNL     1      -3.054  -0.934   1.173  0.00  0.00    +0.143 HD
ATOM      7  H   UNL     1      -1.548  -0.572  -1.947  0.00  0.00    +0.162 HD
BRANCH   2   9
ATOM      8  C   UNL     1      -0.038   1.607  -0.101  0.00  0.00    +0.015 C 
ATOM      9  C   UNL     1      -0.041   0.083   0.037  0.00  0.00    +0.044 C 
ATOM     10  C   UNL     1       0.615  -0.310   1.362  0.00  0.00    +0.015 C 
ENDBRANCH   2   9
ENDBRANCH   1   3
BRANCH   1  11
ATOM     11  C   UNL     1      -3.361  -2.516  -2.117  0.00  0.00    +0.227 C 
ATOM     12 CL   UNL     1      -2.142  -3.745  -1.614  0.00  0.00    -0.079 Cl
ATOM     13 CL   UNL     1      -5.000  -3.268  -2.135  0.00  0.00    -0.079 Cl
ATOM     14 CL   UNL     1      -2.959  -1.911  -3.767  0.00  0.00    -0.079 Cl
ENDBRANCH   1  11
BRANCH   1  15
ATOM     15  N   UNL     1      -4.337  -0.350  -1.537  0.00  0.00    -0.288 N 
ATOM     16  C   UNL     1      -5.159   0.198  -0.620  0.00  0.00    +0.246 C 
ATOM     17  O   UNL     1      -5.079  -0.136   0.546  0.00  0.00    -0.270 OA
ATOM     18  H   UNL     1      -4.402  -0.083  -2.467  0.00  0.00    +0.151 HD
BRANCH  16  19
ATOM     19  C   UNL     1      -6.159   1.206  -1.032  0.00  0.00    +0.037 A 
ATOM     20  C   UNL     1      -6.258   1.588  -2.372  0.00  0.00    +0.014 A 
ATOM     21  C   UNL     1      -7.192   2.529  -2.750  0.00  0.00    +0.016 A 
ATOM     22  C   UNL     1      -8.032   3.094  -1.805  0.00  0.00    +0.018 A 
ATOM     23  C   UNL     1      -7.938   2.720  -0.475  0.00  0.00    +0.016 A 
ATOM     24  C   UNL     1      -7.012   1.776  -0.085  0.00  0.00    +0.014 A 
ATOM     25 BR   UNL     1      -9.310   4.384  -2.333  0.00  0.00    -0.050 Br
ENDBRANCH  16  19
ENDBRANCH   1  15
TORSDOF 5
