REMARK  Name = ZINC43259481
REMARK  9 active torsions:
REMARK  status: ('A' for Active; 'I' for Inactive)
REMARK    1  A    between atoms: C_1  and  C_2
REMARK    2  A    between atoms: C_2  and  N_3
REMARK    3  A    between atoms: N_3  and  C_4
REMARK    4  A    between atoms: N_3  and  C_11
REMARK    5  A    between atoms: C_4  and  C_5
REMARK    6  A    between atoms: C_11  and  C_13
REMARK    7  A    between atoms: C_11  and  C_19
REMARK    8  A    between atoms: C_19  and  C_21
REMARK    9  A    between atoms: C_19  and  N_22
REMARK                            x       y       z     vdW  Elec       q    Type
REMARK                         _______ _______ _______ _____ _____    ______ ____
ROOT
ATOM      1  C   UNL     1       0.961  -1.485   0.531  0.00  0.00    -0.014 C 
ENDROOT
BRANCH   1   2
ATOM      2  C   UNL     1      -0.062  -2.461   1.053  0.00  0.00    -0.021 A 
ATOM      3  C   UNL     1       0.131  -3.673   1.629  0.00  0.00    +0.011 A 
ATOM      4  C   UNL     1      -0.969  -4.405   2.037  0.00  0.00    +0.023 A 
ATOM      5  C   UNL     1      -2.209  -3.888   1.848  0.00  0.00    +0.055 A 
ATOM      6  S   UNL     1      -1.841  -2.318   1.080  0.00  0.00    -0.088 S 
ATOM      7 BR   UNL     1      -3.889  -4.633   2.289  0.00  0.00    -0.043 Br
ENDBRANCH   1   2
BRANCH   1   8
ATOM      8  N   UNL     1       0.752  -0.174   1.161  0.00  0.00    +0.388 N 
ATOM      9  H   UNL     1       1.464   0.468   0.846  0.00  0.00    -0.080 HD
BRANCH   8  11
ATOM     10  C   UNL     1      -0.713   1.784   1.283  0.00  0.00    -0.017 C 
ATOM     11  C   UNL     1      -0.572   0.342   0.791  0.00  0.00    -0.081 C 
ENDBRANCH   8  11
BRANCH   8  12
ATOM     12  C   UNL     1       0.833  -0.315   2.622  0.00  0.00    -0.042 C 
BRANCH  12  13
ATOM     13  C   UNL     1       2.238  -0.692   3.013  0.00  0.00    -0.064 A 
ATOM     14  C   UNL     1       2.562  -2.019   3.229  0.00  0.00    +0.002 A 
ATOM     15  C   UNL     1       3.852  -2.365   3.588  0.00  0.00    +0.000 A 
ATOM     16  C   UNL     1       4.816  -1.385   3.732  0.00  0.00    +0.000 A 
ATOM     17  C   UNL     1       4.492  -0.059   3.515  0.00  0.00    +0.000 A 
ATOM     18  C   UNL     1       3.204   0.287   3.152  0.00  0.00    +0.002 A 
ENDBRANCH  12  13
ENDBRANCH   8  12
ENDBRANCH   1   8
BRANCH   1  19
ATOM     19  C   UNL     1       0.810  -1.351  -0.985  0.00  0.00    +0.039 C 
ATOM     20  C   UNL     1       1.792  -0.298  -1.504  0.00  0.00    +0.022 C 
BRANCH  19  21
ATOM     21  N   UNL     1       1.097  -2.644  -1.622  0.00  0.00    -0.329 NA
ATOM     22  H   UNL     1       0.505  -3.370  -1.248  0.00  0.00    +0.118 HD
ATOM     23  H   UNL     1       1.005  -2.582  -2.624  0.00  0.00    +0.118 HD
ENDBRANCH  19  21
ENDBRANCH   1  19
TORSDOF 7
