REMARK  Name = ZINC08829718
REMARK  11 active torsions:
REMARK  status: ('A' for Active; 'I' for Inactive)
REMARK    1  A    between atoms: C_1  and  C_2
REMARK    2  A    between atoms: C_3  and  C_14
REMARK    3  A    between atoms: C_4  and  O_13
REMARK    4  A    between atoms: N_5  and  C_7
REMARK    5  A    between atoms: C_14  and  C_15
REMARK    6  A    between atoms: C_14  and  C_24
REMARK    7  A    between atoms: C_19  and  O_22
REMARK    8  A    between atoms: C_20  and  O_21
REMARK    9  A    between atoms: O_22  and  C_23
REMARK   10  A    between atoms: C_25  and  C_36
REMARK   11  A    between atoms: N_27  and  C_30
REMARK                            x       y       z     vdW  Elec       q    Type
REMARK                         _______ _______ _______ _____ _____    ______ ____
ROOT
ATOM      1  C   UNL     1      -0.026  -0.361  -2.436  0.00  0.00    +0.097 C 
ENDROOT
BRANCH   1   2
ATOM      2  C   UNL     1       1.292  -0.681  -3.093  0.00  0.00    +0.051 A 
ATOM      3  C   UNL     1       2.100   0.199  -3.718  0.00  0.00    +0.039 A 
ATOM      4  N   UNL     1       3.195  -0.473  -4.181  0.00  0.00    -0.294 N 
ATOM      5  N   UNL     1       3.061  -1.823  -3.830  0.00  0.00    -0.219 N 
ATOM      6  C   UNL     1       1.899  -1.957  -3.157  0.00  0.00    +0.276 A 
ATOM      7  O   UNL     1       1.452  -2.990  -2.693  0.00  0.00    -0.266 OA
ATOM      8  C   UNL     1       1.839   1.674  -3.878  0.00  0.00    +0.065 C 
ATOM      9  H   UNL     1       3.938  -0.084  -4.669  0.00  0.00    +0.187 HD
BRANCH   5  10
ATOM     10  C   UNL     1       3.970  -2.846  -4.119  0.00  0.00    +0.067 A 
ATOM     11  C   UNL     1       3.705  -4.148  -3.713  0.00  0.00    +0.028 A 
ATOM     12  C   UNL     1       4.604  -5.155  -4.000  0.00  0.00    +0.002 A 
ATOM     13  C   UNL     1       5.768  -4.869  -4.690  0.00  0.00    +0.000 A 
ATOM     14  C   UNL     1       6.035  -3.574  -5.095  0.00  0.00    +0.002 A 
ATOM     15  C   UNL     1       5.136  -2.563  -4.817  0.00  0.00    +0.028 A 
ENDBRANCH   5  10
ENDBRANCH   1   2
BRANCH   1  18
ATOM     16  C   UNL     1       2.471  -0.469  -0.491  0.00  0.00    +0.068 C 
ATOM     17  C   UNL     1       1.077  -0.938  -0.164  0.00  0.00    +0.068 A 
ATOM     18  C   UNL     1      -0.025  -0.890  -1.025  0.00  0.00    +0.049 A 
ATOM     19  C   UNL     1      -1.095  -1.404  -0.362  0.00  0.00    +0.220 A 
ATOM     20  N   UNL     1      -0.673  -1.764   0.879  0.00  0.00    -0.200 N 
ATOM     21  N   UNL     1       0.693  -1.465   0.970  0.00  0.00    -0.168 NA
BRANCH  20  22
ATOM     22  C   UNL     1      -1.462  -2.337   1.886  0.00  0.00    +0.069 A 
ATOM     23  C   UNL     1      -2.794  -1.968   2.021  0.00  0.00    +0.028 A 
ATOM     24  C   UNL     1      -3.569  -2.534   3.014  0.00  0.00    +0.002 A 
ATOM     25  C   UNL     1      -3.020  -3.468   3.873  0.00  0.00    +0.000 A 
ATOM     26  C   UNL     1      -1.694  -3.838   3.741  0.00  0.00    +0.002 A 
ATOM     27  C   UNL     1      -0.915  -3.279   2.747  0.00  0.00    +0.028 A 
ENDBRANCH  20  22
BRANCH  19  28
ATOM     28  O   UNL     1      -2.355  -1.534  -0.851  0.00  0.00    -0.492 OA
ATOM     29  H   UNL     1      -2.546  -2.408  -1.219  0.00  0.00    +0.294 HD
ENDBRANCH  19  28
ENDBRANCH   1  18
BRANCH   1  30
ATOM     30  C   UNL     1      -1.145  -1.004  -3.213  0.00  0.00    +0.010 A 
ATOM     31  C   UNL     1      -1.250  -2.382  -3.260  0.00  0.00    +0.008 A 
ATOM     32  C   UNL     1      -2.276  -2.976  -3.972  0.00  0.00    +0.004 A 
ATOM     33  C   UNL     1      -3.200  -2.195  -4.641  0.00  0.00    +0.049 A 
ATOM     34  C   UNL     1      -3.100  -0.814  -4.598  0.00  0.00    +0.162 A 
ATOM     35  C   UNL     1      -2.071  -0.216  -3.876  0.00  0.00    +0.163 A 
BRANCH  35  36
ATOM     36  O   UNL     1      -1.972   1.140  -3.825  0.00  0.00    -0.503 OA
ATOM     37  H   UNL     1      -1.435   1.521  -4.534  0.00  0.00    +0.292 HD
ENDBRANCH  35  36
BRANCH  34  38
ATOM     38  O   UNL     1      -4.008  -0.044  -5.255  0.00  0.00    -0.491 OA
ATOM     39  C   UNL     1      -5.040  -0.726  -5.970  0.00  0.00    +0.277 C 
ENDBRANCH  34  38
ENDBRANCH   1  30
TORSDOF 8
