REMARK  Name = ZINC67119329
REMARK  11 active torsions:
REMARK  status: ('A' for Active; 'I' for Inactive)
REMARK    1  A    between atoms: C_1  and  C_2
REMARK    2  A    between atoms: C_2  and  C_3
REMARK    3  A    between atoms: C_3  and  C_4
REMARK    4  A    between atoms: C_4  and  N_5
REMARK    5  A    between atoms: N_5  and  C_6
REMARK    6  A    between atoms: N_5  and  C_7
REMARK    7  A    between atoms: C_7  and  C_8
REMARK    8  A    between atoms: N_11  and  C_14
REMARK    9  A    between atoms: C_14  and  C_16
REMARK   10  A    between atoms: C_14  and  C_17
REMARK   11  A    between atoms: C_23  and  C_26
REMARK                            x       y       z     vdW  Elec       q    Type
REMARK                         _______ _______ _______ _____ _____    ______ ____
ROOT
ATOM      1  C   UNL     1       2.549  -4.452   3.417  0.00  0.00    -0.031 C 
ATOM      2  C   UNL     1       3.926  -3.796   3.555  0.00  0.00    -0.017 C 
ATOM      3  C   UNL     1       4.687  -4.458   4.706  0.00  0.00    -0.078 C 
ATOM      4  N   UNL     1       4.852  -5.890   4.429  0.00  0.00    +0.387 N 
ATOM      5  C   UNL     1       3.537  -6.540   4.367  0.00  0.00    -0.078 C 
ATOM      6  C   UNL     1       2.731  -5.958   3.203  0.00  0.00    -0.017 C 
ATOM      7  H   UNL     1       5.327  -6.009   3.547  0.00  0.00    -0.081 HD
ENDROOT
BRANCH   4   8
ATOM      8  C   UNL     1       5.650  -6.506   5.498  0.00  0.00    +0.016 C 
ATOM      9  C   UNL     1       5.765  -8.011   5.246  0.00  0.00    -0.004 C 
BRANCH   8  10
ATOM     10  C   UNL     1       7.026  -5.892   5.514  0.00  0.00    +0.202 C 
ATOM     11  O   UNL     1       7.479  -5.394   4.506  0.00  0.00    -0.277 OA
ATOM     12  N   UNL     1       7.753  -5.898   6.649  0.00  0.00    -0.302 N 
ATOM     13  C   UNL     1       7.182  -6.413   7.901  0.00  0.00    +0.108 C 
ATOM     14  C   UNL     1       8.124  -7.479   8.470  0.00  0.00    +0.020 C 
ATOM     15  C   UNL     1       9.528  -6.887   8.616  0.00  0.00    +0.016 C 
ATOM     16  C   UNL     1      10.051  -6.465   7.241  0.00  0.00    +0.092 C 
ATOM     17  C   UNL     1       9.133  -5.394   6.657  0.00  0.00    +0.120 C 
BRANCH  16  18
ATOM     18  C   UNL     1      11.446  -5.913   7.381  0.00  0.00    +0.215 C 
ATOM     19  O   UNL     1      11.684  -4.772   7.046  0.00  0.00    -0.276 OA
ATOM     20  N   UNL     1      12.430  -6.688   7.880  0.00  0.00    -0.329 N 
ATOM     21  H   UNL     1      12.240  -7.600   8.148  0.00  0.00    +0.145 HD
ATOM     22  H   UNL     1      13.329  -6.333   7.970  0.00  0.00    +0.145 HD
ENDBRANCH  16  18
ENDBRANCH   8  10
ENDBRANCH   4   8
BRANCH   1  23
ATOM     23  C   UNL     1       1.814  -3.850   2.219  0.00  0.00    -0.076 C 
BRANCH  23  24
ATOM     24  N   UNL     1       1.534  -2.432   2.478  0.00  0.00    +0.378 N 
ATOM     25  C   UNL     1       0.600  -2.315   3.606  0.00  0.00    -0.096 C 
ATOM     26  H   UNL     1       2.394  -1.955   2.703  0.00  0.00    -0.082 HD
BRANCH  24  27
ATOM     27  C   UNL     1       0.936  -1.824   1.282  0.00  0.00    -0.079 C 
BRANCH  27  28
ATOM     28  C   UNL     1       0.759  -0.321   1.508  0.00  0.00    -0.019 C 
BRANCH  28  30
ATOM     29  C   UNL     1      -0.040   1.815   0.488  0.00  0.00    +0.004 C 
ATOM     30  C   UNL     1       0.136   0.312   0.262  0.00  0.00    -0.005 C 
ENDBRANCH  28  30
ENDBRANCH  27  28
ENDBRANCH  24  27
ENDBRANCH  23  24
ENDBRANCH   1  23
TORSDOF 8
