REMARK  Name = ZINC36594216
REMARK  16 active torsions:
REMARK  status: ('A' for Active; 'I' for Inactive)
REMARK    1  A    between atoms: C_1  and  C_2
REMARK    2  A    between atoms: C_2  and  C_3
REMARK    3  A    between atoms: N_5  and  C_6
REMARK    4  A    between atoms: N_5  and  C_31
REMARK    5  A    between atoms: C_6  and  C_8
REMARK    6  A    between atoms: C_6  and  C_17
REMARK    7  A    between atoms: C_9  and  O_16
REMARK    8  A    between atoms: C_11  and  O_15
REMARK    9  A    between atoms: C_13  and  O_14
REMARK   10  A    between atoms: N_19  and  C_20
REMARK   11  A    between atoms: C_20  and  S_21
REMARK   12  A    between atoms: S_21  and  C_24
REMARK   13  A    between atoms: C_27  and  C_30
REMARK   14  A    between atoms: C_31  and  C_32
REMARK   15  A    between atoms: C_31  and  C_33
REMARK   16  A    between atoms: C_31  and  C_34
REMARK                            x       y       z     vdW  Elec       q    Type
REMARK                         _______ _______ _______ _____ _____    ______ ____
ROOT
ATOM      1  C   UNL     1       0.598  -3.817  -1.400  0.00  0.00    +0.200 C 
ENDROOT
BRANCH   1   2
ATOM      2  C   UNL     1       0.073  -3.439  -0.039  0.00  0.00    +0.065 A 
ATOM      3  C   UNL     1      -0.970  -2.532   0.075  0.00  0.00    +0.129 A 
ATOM      4  C   UNL     1      -1.453  -2.185   1.328  0.00  0.00    +0.091 A 
ATOM      5  C   UNL     1      -0.893  -2.744   2.467  0.00  0.00    +0.124 A 
ATOM      6  C   UNL     1       0.149  -3.652   2.353  0.00  0.00    +0.091 A 
ATOM      7  C   UNL     1       0.629  -4.003   1.100  0.00  0.00    +0.129 A 
BRANCH   7   8
ATOM      8  O   UNL     1       1.648  -4.896   0.988  0.00  0.00    -0.506 OA
ATOM      9  H   UNL     1       2.527  -4.493   0.997  0.00  0.00    +0.292 HD
ENDBRANCH   7   8
BRANCH   5  10
ATOM     10  O   UNL     1      -1.365  -2.403   3.694  0.00  0.00    -0.507 OA
ATOM     11  H   UNL     1      -2.084  -2.967   4.010  0.00  0.00    +0.292 HD
ENDBRANCH   5  10
BRANCH   3  12
ATOM     12  O   UNL     1      -1.518  -1.984  -1.040  0.00  0.00    -0.506 OA
ATOM     13  H   UNL     1      -2.311  -2.440  -1.354  0.00  0.00    +0.292 HD
ENDBRANCH   3  12
ENDBRANCH   1   2
BRANCH   1  14
ATOM     14  C   UNL     1      -0.535  -4.332  -2.250  0.00  0.00    +0.240 C 
ATOM     15  O   UNL     1      -1.135  -3.575  -2.983  0.00  0.00    -0.273 OA
ATOM     16  N   UNL     1      -0.881  -5.633  -2.195  0.00  0.00    -0.294 N 
ATOM     17  H   UNL     1      -0.402  -6.238  -1.608  0.00  0.00    +0.150 HD
BRANCH  16  18
ATOM     18  C   UNL     1      -1.983  -6.133  -3.021  0.00  0.00    +0.278 C 
BRANCH  18  19
ATOM     19  S   UNL     1      -1.318  -6.822  -4.562  0.00  0.00    +0.013 S 
ATOM     20  O   UNL     1      -2.369  -7.369  -5.347  0.00  0.00    -0.168 OA
ATOM     21  O   UNL     1      -0.379  -5.923  -5.135  0.00  0.00    -0.168 OA
BRANCH  19  22
ATOM     22  C   UNL     1      -0.361  -8.214  -4.060  0.00  0.00    +0.090 A 
ATOM     23  C   UNL     1       0.978  -8.057  -3.755  0.00  0.00    +0.027 A 
ATOM     24  C   UNL     1       1.729  -9.149  -3.361  0.00  0.00    +0.005 A 
ATOM     25  C   UNL     1       1.141 -10.397  -3.272  0.00  0.00    -0.050 A 
ATOM     26  C   UNL     1      -0.198 -10.553  -3.576  0.00  0.00    +0.005 A 
ATOM     27  C   UNL     1      -0.950  -9.461  -3.966  0.00  0.00    +0.027 A 
ATOM     28  C   UNL     1       1.960 -11.587  -2.844  0.00  0.00    +0.044 C 
ENDBRANCH  19  22
ENDBRANCH  18  19
ENDBRANCH  16  18
ENDBRANCH   1  14
BRANCH   1  31
ATOM     29  C   UNL     1       1.589  -1.593  -1.287  0.00  0.00    +0.217 C 
ATOM     30  O   UNL     1       1.935  -0.561  -1.820  0.00  0.00    -0.276 OA
ATOM     31  N   UNL     1       1.192  -2.639  -2.038  0.00  0.00    -0.281 N 
BRANCH  31  32
ATOM     32  C   UNL     1       1.354  -2.599  -3.494  0.00  0.00    +0.030 C 
ATOM     33  C   UNL     1       2.672  -1.904  -3.841  0.00  0.00    +0.031 C 
ATOM     34  C   UNL     1       1.369  -4.026  -4.045  0.00  0.00    +0.031 C 
ATOM     35  C   UNL     1       0.190  -1.824  -4.115  0.00  0.00    +0.031 C 
ENDBRANCH  31  32
BRANCH  29  37
ATOM     36  C   UNL     1       2.519  -0.632   0.801  0.00  0.00    +0.013 C 
ATOM     37  C   UNL     1       1.601  -1.707   0.216  0.00  0.00    +0.092 C 
ENDBRANCH  29  37
ENDBRANCH   1  31
TORSDOF 11
