REMARK  Name = ZINC09835006
REMARK  6 active torsions:
REMARK  status: ('A' for Active; 'I' for Inactive)
REMARK    1  A    between atoms: C_1  and  O_2
REMARK    2  A    between atoms: O_2  and  C_3
REMARK    3  A    between atoms: C_8  and  N_9
REMARK    4  A    between atoms: C_10  and  C_12
REMARK    5  A    between atoms: C_12  and  N_46
REMARK    6  A    between atoms: C_21  and  C_23
REMARK                            x       y       z     vdW  Elec       q    Type
REMARK                         _______ _______ _______ _____ _____    ______ ____
ROOT
ATOM      1  C   UNL     1       0.428   2.794   1.827  0.00  0.00    -0.041 C 
ATOM      2  C   UNL     1      -0.570   3.254   2.857  0.00  0.00    -0.061 A 
ATOM      3  C   UNL     1      -0.727   4.617   3.061  0.00  0.00    +0.002 A 
ATOM      4  C   UNL     1      -1.624   5.084   4.000  0.00  0.00    +0.000 A 
ATOM      5  C   UNL     1      -2.372   4.189   4.742  0.00  0.00    +0.000 A 
ATOM      6  C   UNL     1      -2.218   2.832   4.539  0.00  0.00    +0.004 A 
ATOM      7  C   UNL     1      -1.318   2.362   3.595  0.00  0.00    -0.047 A 
ATOM      8  C   UNL     1      -1.187   0.873   3.404  0.00  0.00    +0.029 C 
ATOM      9  C   UNL     1       0.108   0.554   2.657  0.00  0.00    +0.024 C 
ATOM     10  N   UNL     1       0.151   1.399   1.447  0.00  0.00    +0.396 N 
ATOM     11  H   UNL     1      -0.760   1.355   0.974  0.00  0.00    -0.080 HD
ENDROOT
BRANCH   9  12
ATOM     12  C   UNL     1       0.116  -0.899   2.256  0.00  0.00    +0.197 C 
ATOM     13  O   UNL     1      -0.408  -1.245   1.219  0.00  0.00    -0.278 OA
ATOM     14  N   UNL     1       0.706  -1.814   3.051  0.00  0.00    -0.331 N 
ATOM     15  H   UNL     1       1.126  -1.537   3.881  0.00  0.00    +0.145 HD
ATOM     16  H   UNL     1       0.712  -2.749   2.793  0.00  0.00    +0.145 HD
ENDBRANCH   9  12
BRANCH  10  17
ATOM     17  C   UNL     1       1.198   0.908   0.521  0.00  0.00    +0.020 C 
BRANCH  17  19
ATOM     18  N   UNL     1       1.808   1.225  -1.855  0.00  0.00    -0.284 N 
ATOM     19  C   UNL     1       0.982   1.531  -0.834  0.00  0.00    +0.201 C 
ATOM     20  O   UNL     1       0.066   2.307  -1.006  0.00  0.00    -0.278 OA
ATOM     21  H   UNL     1       2.502   0.558  -1.734  0.00  0.00    +0.155 HD
BRANCH  18  27
ATOM     22  C   UNL     1       2.760   2.010  -3.938  0.00  0.00    +0.141 A 
ATOM     23  C   UNL     1       2.611   2.649  -5.158  0.00  0.00    +0.047 A 
ATOM     24  C   UNL     1       1.377   3.148  -5.531  0.00  0.00    +0.004 A 
ATOM     25  C   UNL     1       0.288   3.011  -4.690  0.00  0.00    +0.002 A 
ATOM     26  C   UNL     1       0.427   2.370  -3.474  0.00  0.00    +0.027 A 
ATOM     27  C   UNL     1       1.663   1.871  -3.090  0.00  0.00    +0.076 A 
BRANCH  22  29
ATOM     28  C   UNL     1       5.051   1.696  -4.490  0.00  0.00    +0.277 C 
ATOM     29  O   UNL     1       3.973   1.518  -3.570  0.00  0.00    -0.493 OA
ENDBRANCH  22  29
ENDBRANCH  18  27
ENDBRANCH  17  19
ENDBRANCH  10  17
TORSDOF 5
