REMARK  Name = ZINC20354781
REMARK  8 active torsions:
REMARK  status: ('A' for Active; 'I' for Inactive)
REMARK    1  A    between atoms: C_1  and  C_2
REMARK    2  A    between atoms: N_5  and  C_8
REMARK    3  A    between atoms: C_8  and  C_9
REMARK    4  A    between atoms: C_9  and  C_10
REMARK    5  A    between atoms: C_10  and  N_11
REMARK    6  A    between atoms: C_12  and  C_14
REMARK    7  A    between atoms: C_14  and  C_15
REMARK    8  A    between atoms: C_18  and  N_21
REMARK                            x       y       z     vdW  Elec       q    Type
REMARK                         _______ _______ _______ _____ _____    ______ ____
ROOT
ATOM      1  C   UNL     1       6.997   8.521   2.340  0.00  0.00    -0.038 A 
ATOM      2  C   UNL     1       7.593   8.669   3.579  0.00  0.00    +0.006 A 
ATOM      3  C   UNL     1       8.851   9.231   3.680  0.00  0.00    +0.028 A 
ATOM      4  C   UNL     1       9.512   9.658   2.536  0.00  0.00    +0.067 A 
ATOM      5  C   UNL     1       8.908   9.514   1.293  0.00  0.00    +0.028 A 
ATOM      6  C   UNL     1       7.653   8.946   1.199  0.00  0.00    +0.006 A 
ENDROOT
BRANCH   4   7
ATOM      7  N   UNL     1      10.783  10.233   2.634  0.00  0.00    -0.226 NA
ATOM      8  C   UNL     1      11.200  11.148   1.693  0.00  0.00    +0.155 C 
ATOM      9  N   UNL     1      10.500  11.643   0.722  0.00  0.00    -0.318 N 
ATOM     10  C   UNL     1      11.043  12.626  -0.196  0.00  0.00    +0.108 C 
ATOM     11  C   UNL     1      10.151  13.889  -0.173  0.00  0.00    +0.189 C 
ATOM     12  S   UNL     1      11.390  15.235  -0.407  0.00  0.00    -0.028 S 
ATOM     13  O   UNL     1      11.001  16.370   0.354  0.00  0.00    -0.174 OA
ATOM     14  O   UNL     1      11.675  15.379  -1.792  0.00  0.00    -0.174 OA
ATOM     15  C   UNL     1      12.809  14.397   0.425  0.00  0.00    +0.182 C 
ATOM     16  C   UNL     1      12.526  12.924   0.074  0.00  0.00    +0.097 C 
ATOM     17  S   UNL     1      12.816  11.888   1.557  0.00  0.00    -0.084 S 
ATOM     18  H   UNL     1       9.463  11.295   0.605  0.00  0.00    +0.148 HD
ENDBRANCH   4   7
BRANCH   1  19
ATOM     19  C   UNL     1       5.627   7.902   2.234  0.00  0.00    +0.130 C 
BRANCH  19  21
ATOM     20  N   UNL     1       4.660   5.644   1.943  0.00  0.00    -0.315 N 
ATOM     21  C   UNL     1       5.762   6.411   2.060  0.00  0.00    +0.217 C 
ATOM     22  O   UNL     1       6.862   5.901   2.026  0.00  0.00    -0.275 OA
ATOM     23  H   UNL     1       3.662   6.106   1.974  0.00  0.00    +0.149 HD
BRANCH  20  24
ATOM     24  C   UNL     1       4.791   4.194   1.774  0.00  0.00    +0.102 C 
BRANCH  24  25
ATOM     25  C   UNL     1       3.401   3.566   1.666  0.00  0.00    +0.000 C 
BRANCH  25  26
ATOM     26  C   UNL     1       3.538   2.052   1.490  0.00  0.00    -0.077 C 
BRANCH  26  31
ATOM     27  C   UNL     1      -1.324  -0.704   0.290  0.00  0.00    +0.007 C 
ATOM     28  C   UNL     1       0.109  -0.171   0.232  0.00  0.00    -0.018 C 
ATOM     29  C   UNL     1       0.084   1.358   0.160  0.00  0.00    -0.016 C 
ATOM     30  C   UNL     1       1.520   1.887   0.163  0.00  0.00    -0.079 C 
ATOM     31  N   UNL     1       2.202   1.448   1.386  0.00  0.00    +0.380 N 
ATOM     32  C   UNL     1       2.280  -0.017   1.454  0.00  0.00    -0.079 C 
ATOM     33  C   UNL     1       0.867  -0.603   1.490  0.00  0.00    -0.016 C 
ATOM     34  H   UNL     1       1.606   1.792   2.244  0.00  0.00    -0.082 HD
ENDBRANCH  26  31
ENDBRANCH  25  26
ENDBRANCH  24  25
ENDBRANCH  20  24
ENDBRANCH  19  21
ENDBRANCH   1  19
TORSDOF 7
