REMARK  Name = ZINC43285822
REMARK  7 active torsions:
REMARK  status: ('A' for Active; 'I' for Inactive)
REMARK    1  A    between atoms: C_1  and  C_2
REMARK    2  A    between atoms: C_2  and  C_3
REMARK    3  A    between atoms: C_3  and  C_5
REMARK    4  A    between atoms: C_3  and  N_21
REMARK    5  A    between atoms: C_5  and  C_7
REMARK    6  A    between atoms: C_5  and  N_13
REMARK    7  A    between atoms: C_17  and  O_20
REMARK                            x       y       z     vdW  Elec       q    Type
REMARK                         _______ _______ _______ _____ _____    ______ ____
ROOT
ATOM      1  C   UNL     1       0.630  -2.023  -1.329  0.00  0.00    -0.014 C 
ENDROOT
BRANCH   1   2
ATOM      2  N   UNL     1      -0.777  -2.437  -1.256  0.00  0.00    +0.387 N 
ATOM      3  C   UNL     1      -0.860  -3.901  -1.315  0.00  0.00    -0.078 C 
ATOM      4  C   UNL     1      -2.317  -4.341  -1.158  0.00  0.00    -0.016 C 
ATOM      5  C   UNL     1      -3.152  -3.734  -2.289  0.00  0.00    +0.027 C 
ATOM      6  C   UNL     1      -3.000  -2.211  -2.263  0.00  0.00    +0.098 C 
ATOM      7  C   UNL     1      -1.517  -1.850  -2.379  0.00  0.00    -0.046 C 
ATOM      8  H   UNL     1      -1.177  -2.115  -0.387  0.00  0.00    -0.081 HD
BRANCH   6   9
ATOM      9  O   UNL     1      -3.718  -1.640  -3.359  0.00  0.00    -0.394 OA
ATOM     10  H   UNL     1      -4.666  -1.832  -3.350  0.00  0.00    +0.210 HD
ENDBRANCH   6   9
ENDBRANCH   1   2
BRANCH   1  11
ATOM     11  C   UNL     1       1.391  -2.625  -0.175  0.00  0.00    -0.021 A 
ATOM     12  C   UNL     1       2.640  -3.151  -0.159  0.00  0.00    +0.025 A 
ATOM     13  C   UNL     1       3.141  -3.652   1.029  0.00  0.00    +0.025 A 
ATOM     14  C   UNL     1       2.367  -3.603   2.141  0.00  0.00    +0.060 A 
ATOM     15  S   UNL     1       0.884  -2.823   1.525  0.00  0.00    -0.102 S 
ATOM     16 BR   UNL     1       4.878  -4.396   1.101  0.00  0.00    -0.050 Br
ENDBRANCH   1  11
BRANCH   1  17
ATOM     17  C   UNL     1       0.718  -0.497  -1.257  0.00  0.00    +0.042 C 
BRANCH  17  18
ATOM     18  N   UNL     1       2.129  -0.090  -1.209  0.00  0.00    -0.328 NA
ATOM     19  H   UNL     1       2.216   0.915  -1.226  0.00  0.00    +0.118 HD
ATOM     20  H   UNL     1       2.591  -0.479  -0.401  0.00  0.00    +0.118 HD
ENDBRANCH  17  18
BRANCH  17  22
ATOM     21  C   UNL     1      -0.019   1.526   0.010  0.00  0.00    +0.005 C 
ATOM     22  C   UNL     1       0.002  -0.004   0.002  0.00  0.00    +0.014 C 
ENDBRANCH  17  22
ENDBRANCH   1  17
TORSDOF 6
