REMARK  Name = ZINC07674981
REMARK  4 active torsions:
REMARK  status: ('A' for Active; 'I' for Inactive)
REMARK    1  A    between atoms: C_4  and  C_7
REMARK    2  A    between atoms: N_9  and  N_13
REMARK    3  A    between atoms: C_14  and  C_15
REMARK    4  A    between atoms: C_20  and  O_21
REMARK                            x       y       z     vdW  Elec       q    Type
REMARK                         _______ _______ _______ _____ _____    ______ ____
ROOT
ATOM      1  C   UNL     1       3.698  -0.688  -0.038  0.00  0.00    +0.067 A 
ATOM      2  C   UNL     1       3.862  -2.035  -0.053  0.00  0.00    +0.142 A 
ATOM      3  N   UNL     1       5.216  -2.273  -0.066  0.00  0.00    -0.209 N 
ATOM      4  C   UNL     1       5.841  -1.059  -0.060  0.00  0.00    +0.192 A 
ATOM      5  N   UNL     1       4.929  -0.117  -0.048  0.00  0.00    -0.326 N 
ATOM      6  N   UNL     1       7.210  -0.857  -0.070  0.00  0.00    -0.329 N 
ATOM      7  H   UNL     1       7.813  -1.617  -0.082  0.00  0.00    +0.145 HD
ATOM      8  H   UNL     1       7.567   0.045  -0.064  0.00  0.00    +0.145 HD
ATOM      9  H   UNL     1       5.106   0.837  -0.045  0.00  0.00    +0.169 HD
ENDROOT
BRANCH   1  13
ATOM     10  C   UNL     1      -0.017   1.379   0.010  0.00  0.00    +0.000 A 
ATOM     11  C   UNL     1       1.169   2.092   0.002  0.00  0.00    +0.001 A 
ATOM     12  C   UNL     1       2.377   1.427  -0.013  0.00  0.00    +0.010 A 
ATOM     13  C   UNL     1       2.402   0.033  -0.021  0.00  0.00    -0.000 A 
ATOM     14  C   UNL     1       1.205  -0.680  -0.013  0.00  0.00    +0.010 A 
ATOM     15  C   UNL     1       0.002  -0.004   0.002  0.00  0.00    +0.001 A 
ENDBRANCH   1  13
BRANCH   3  16
ATOM     16  N   UNL     1       5.838  -3.527  -0.084  0.00  0.00    -0.172 NA
ATOM     17  C   UNL     1       5.120  -4.609  -0.088  0.00  0.00    +0.145 C 
BRANCH  17  18
ATOM     18  C   UNL     1       5.775  -5.928  -0.107  0.00  0.00    +0.039 A 
ATOM     19  C   UNL     1       5.006  -7.094  -0.118  0.00  0.00    +0.033 A 
ATOM     20  C   UNL     1       5.625  -8.327  -0.135  0.00  0.00    +0.043 A 
ATOM     21  C   UNL     1       7.008  -8.414  -0.142  0.00  0.00    +0.043 A 
ATOM     22  C   UNL     1       7.780  -7.267  -0.131  0.00  0.00    +0.084 A 
ATOM     23  C   UNL     1       7.173  -6.021  -0.119  0.00  0.00    +0.144 A 
ATOM     24 CL   UNL     1       9.512  -7.388  -0.138  0.00  0.00    -0.080 Cl
ATOM     25 CL   UNL     1       4.668  -9.775  -0.149  0.00  0.00    -0.083 Cl
BRANCH  23  26
ATOM     26  O   UNL     1       7.931  -4.893  -0.114  0.00  0.00    -0.505 OA
ATOM     27  H   UNL     1       8.158  -4.575   0.771  0.00  0.00    +0.292 HD
ENDBRANCH  23  26
ENDBRANCH  17  18
ENDBRANCH   3  16
TORSDOF 4
