REMARK  Name = ZINC39362034
REMARK  11 active torsions:
REMARK  status: ('A' for Active; 'I' for Inactive)
REMARK    1  A    between atoms: C_1  and  C_2
REMARK    2  A    between atoms: C_5  and  C_36
REMARK    3  A    between atoms: C_6  and  N_8
REMARK    4  A    between atoms: C_9  and  C_11
REMARK    5  A    between atoms: C_11  and  S_12
REMARK    6  A    between atoms: S_12  and  C_13
REMARK    7  A    between atoms: C_16  and  C_27
REMARK    8  A    between atoms: N_18  and  C_19
REMARK    9  A    between atoms: C_23  and  O_25
REMARK   10  A    between atoms: O_25  and  C_26
REMARK   11  A    between atoms: C_27  and  C_28
REMARK                            x       y       z     vdW  Elec       q    Type
REMARK                         _______ _______ _______ _____ _____    ______ ____
ROOT
ATOM      1  C   UNL     1       0.532  -2.770   7.657  0.00  0.00    +0.180 C 
ATOM      2  N   UNL     1       0.554  -4.059   7.612  0.00  0.00    -0.162 NA
ATOM      3  N   UNL     1       0.683  -4.616   8.890  0.00  0.00    -0.246 N 
ATOM      4  C   UNL     1       0.747  -3.482   9.827  0.00  0.00    +0.187 C 
ATOM      5  N   UNL     1       0.649  -2.297   8.957  0.00  0.00    -0.258 N 
ATOM      6  H   UNL     1       0.722  -5.559   9.113  0.00  0.00    +0.170 HD
ENDROOT
BRANCH   5   7
ATOM      7  C   UNL     1       0.668  -0.960   9.361  0.00  0.00    +0.041 A 
ATOM      8  C   UNL     1      -0.237  -0.508  10.314  0.00  0.00    +0.024 A 
ATOM      9  C   UNL     1      -0.218   0.814  10.713  0.00  0.00    +0.005 A 
ATOM     10  C   UNL     1       0.700   1.691  10.166  0.00  0.00    +0.046 A 
ATOM     11  C   UNL     1       1.606   1.245   9.214  0.00  0.00    +0.122 A 
ATOM     12  C   UNL     1       1.594  -0.082   8.815  0.00  0.00    +0.069 A 
BRANCH  11  13
ATOM     13  O   UNL     1       2.507   2.109   8.678  0.00  0.00    -0.495 OA
ATOM     14  C   UNL     1       2.466   3.461   9.140  0.00  0.00    +0.277 C 
ENDBRANCH  11  13
ENDBRANCH   5   7
BRANCH   1  15
ATOM     15  S   UNL     1       0.381  -1.735   6.240  0.00  0.00    -0.079 S 
BRANCH  15  16
ATOM     16  C   UNL     1       0.266  -2.900   4.855  0.00  0.00    +0.173 C 
BRANCH  16  18
ATOM     17  N   UNL     1       0.029  -2.798   2.395  0.00  0.00    -0.285 N 
ATOM     18  C   UNL     1       0.131  -2.135   3.564  0.00  0.00    +0.227 C 
ATOM     19  O   UNL     1       0.113  -0.922   3.577  0.00  0.00    -0.275 OA
ATOM     20  H   UNL     1      -0.038  -3.765   2.390  0.00  0.00    +0.155 HD
BRANCH  17  26
ATOM     21  C   UNL     1       1.231   1.228  -0.160  0.00  0.00    +0.044 C 
ATOM     22  C   UNL     1       0.596  -0.137  -0.079  0.00  0.00    -0.049 A 
ATOM     23  C   UNL     1       0.004  -0.690  -1.199  0.00  0.00    +0.004 A 
ATOM     24  C   UNL     1      -0.580  -1.942  -1.129  0.00  0.00    +0.005 A 
ATOM     25  C   UNL     1      -0.573  -2.643   0.061  0.00  0.00    -0.029 A 
ATOM     26  C   UNL     1       0.021  -2.090   1.188  0.00  0.00    +0.037 A 
ATOM     27  C   UNL     1       0.611  -0.835   1.113  0.00  0.00    +0.027 A 
ATOM     28  C   UNL     1      -1.210  -4.007   0.137  0.00  0.00    +0.045 C 
ENDBRANCH  17  26
ENDBRANCH  16  18
ENDBRANCH  15  16
ENDBRANCH   1  15
BRANCH   4  29
ATOM     29  C   UNL     1       2.079  -3.483  10.581  0.00  0.00    +0.097 C 
BRANCH  29  30
ATOM     30  C   UNL     1       2.200  -4.751  11.386  0.00  0.00    +0.029 A 
ATOM     31  N   UNL     1       1.640  -4.830  12.632  0.00  0.00    -0.311 N 
ATOM     32  C   UNL     1       1.741  -5.958  13.358  0.00  0.00    +0.327 A 
ATOM     33  O   UNL     1       1.236  -6.007  14.463  0.00  0.00    -0.247 OA
ATOM     34  N   UNL     1       2.394  -7.033  12.879  0.00  0.00    -0.275 N 
ATOM     35  C   UNL     1       2.959  -6.995  11.655  0.00  0.00    +0.254 A 
ATOM     36  O   UNL     1       3.550  -7.968  11.221  0.00  0.00    -0.268 OA
ATOM     37  C   UNL     1       2.856  -5.816  10.878  0.00  0.00    +0.091 A 
ATOM     38  H   UNL     1       2.458  -7.838  13.416  0.00  0.00    +0.173 HD
ATOM     39  H   UNL     1       1.165  -4.066  12.995  0.00  0.00    +0.170 HD
ENDBRANCH  29  30
ENDBRANCH   4  29
TORSDOF 8
