REMARK  Name = ZINC67517273
REMARK  3 active torsions:
REMARK  status: ('A' for Active; 'I' for Inactive)
REMARK    1  A    between atoms: C_1  and  C_2
REMARK    2  A    between atoms: C_15  and  C_17
REMARK    3  A    between atoms: C_17  and  N_18
REMARK                            x       y       z     vdW  Elec       q    Type
REMARK                         _______ _______ _______ _____ _____    ______ ____
ROOT
ATOM      1  C   UNL     1       0.133   1.854   0.724  0.00  0.00    +0.007 C 
ATOM      2  C   UNL     1       0.174   0.343   0.485  0.00  0.00    -0.014 C 
ATOM      3  C   UNL     1      -1.250  -0.184   0.294  0.00  0.00    +0.005 C 
ATOM      4  C   UNL     1      -1.199  -1.691   0.040  0.00  0.00    +0.023 C 
ATOM      5  C   UNL     1      -0.548  -2.396   1.226  0.00  0.00    +0.079 C 
ATOM      6  C   UNL     1       0.862  -1.848   1.462  0.00  0.00    +0.010 C 
ATOM      7  C   UNL     1       0.811  -0.347   1.692  0.00  0.00    +0.008 C 
ATOM      8  C   UNL     1       1.450  -2.523   2.707  0.00  0.00    +0.007 C 
ATOM      9  C   UNL     1       0.590  -2.175   3.924  0.00  0.00    +0.019 C 
ATOM     10  C   UNL     1      -0.832  -2.704   3.715  0.00  0.00    +0.108 C 
ATOM     11  N   UNL     1      -1.340  -2.177   2.441  0.00  0.00    -0.297 N 
ATOM     12  C   UNL     1      -2.516  -1.520   2.389  0.00  0.00    +0.236 C 
ATOM     13  O   UNL     1      -2.975  -1.183   1.318  0.00  0.00    -0.274 OA
ENDROOT
BRANCH  12  14
ATOM     14  C   UNL     1      -3.260  -1.205   3.661  0.00  0.00    +0.222 C 
BRANCH  14  15
ATOM     15  N   UNL     1      -4.499  -0.492   3.338  0.00  0.00    -0.290 N 
ATOM     16  C   UNL     1      -4.487   0.863   3.265  0.00  0.00    +0.203 A 
ATOM     17  N   UNL     1      -5.570   1.535   2.980  0.00  0.00    -0.230 NA
ATOM     18  C   UNL     1      -6.722   0.911   2.751  0.00  0.00    +0.115 A 
ATOM     19  C   UNL     1      -6.833  -0.490   2.803  0.00  0.00    +0.072 A 
ATOM     20  C   UNL     1      -5.625  -1.196   3.113  0.00  0.00    +0.263 A 
ATOM     21  O   UNL     1      -5.618  -2.413   3.178  0.00  0.00    -0.267 OA
ATOM     22  C   UNL     1      -8.159  -1.011   2.528  0.00  0.00    +0.023 A 
ATOM     23  C   UNL     1      -9.155  -0.155   2.252  0.00  0.00    +0.048 A 
ATOM     24  S   UNL     1      -8.366   1.441   2.345  0.00  0.00    -0.077 S 
ENDBRANCH  14  15
ENDBRANCH  12  14
TORSDOF 2
