REMARK  Name = ZINC08800326
REMARK  11 active torsions:
REMARK  status: ('A' for Active; 'I' for Inactive)
REMARK    1  A    between atoms: C_1  and  C_2
REMARK    2  A    between atoms: C_2  and  C_3
REMARK    3  A    between atoms: C_6  and  O_32
REMARK    4  A    between atoms: C_7  and  S_9
REMARK    5  A    between atoms: S_9  and  N_12
REMARK    6  A    between atoms: N_12  and  C_13
REMARK    7  A    between atoms: C_13  and  C_14
REMARK    8  A    between atoms: C_14  and  C_16
REMARK    9  A    between atoms: C_14  and  N_70
REMARK   10  A    between atoms: N_25  and  C_26
REMARK   11  A    between atoms: O_32  and  C_33
REMARK                            x       y       z     vdW  Elec       q    Type
REMARK                         _______ _______ _______ _____ _____    ______ ____
ROOT
ATOM      1  C   UNL     1      -0.597   2.434   2.061  0.00  0.00    -0.022 C 
ENDROOT
BRANCH   1   2
ATOM      2  C   UNL     1       0.298   1.682   3.013  0.00  0.00    -0.059 A 
ATOM      3  C   UNL     1       1.561   1.288   2.611  0.00  0.00    +0.004 A 
ATOM      4  C   UNL     1       2.378   0.603   3.484  0.00  0.00    +0.023 A 
ATOM      5  C   UNL     1       1.935   0.293   4.771  0.00  0.00    +0.033 A 
ATOM      6  C   UNL     1       0.670   0.689   5.167  0.00  0.00    -0.026 A 
ATOM      7  C   UNL     1      -0.145   1.381   4.285  0.00  0.00    +0.007 A 
ATOM      8  C   UNL     1       0.136   0.395   6.546  0.00  0.00    +0.038 C 
ATOM      9  C   UNL     1       0.998  -0.679   7.214  0.00  0.00    +0.024 C 
ATOM     10  C   UNL     1       2.469  -0.291   7.021  0.00  0.00    +0.105 C 
ATOM     11  N   UNL     1       2.804  -0.414   5.601  0.00  0.00    -0.333 N 
ATOM     12  C   UNL     1       4.199  -0.029   5.354  0.00  0.00    +0.129 C 
ENDBRANCH   1   2
BRANCH   1  18
ATOM     13  C   UNL     1       1.300   3.736   1.306  0.00  0.00    -0.078 C 
ATOM     14  C   UNL     1       1.767   5.153   0.966  0.00  0.00    -0.019 C 
ATOM     15  C   UNL     1       1.736   6.013   2.232  0.00  0.00    -0.004 C 
ATOM     16  C   UNL     1       0.317   6.010   2.807  0.00  0.00    -0.019 C 
ATOM     17  C   UNL     1      -0.108   4.568   3.094  0.00  0.00    -0.078 C 
ATOM     18  N   UNL     1      -0.081   3.800   1.831  0.00  0.00    +0.385 N 
ATOM     19  H   UNL     1      -0.678   4.270   1.142  0.00  0.00    -0.081 HD
ENDBRANCH   1  18
BRANCH   1  20
ATOM     20  C   UNL     1      -0.652   1.695   0.722  0.00  0.00    +0.095 C 
BRANCH  20  21
ATOM     21  N   UNL     1      -1.424   2.486  -0.240  0.00  0.00    -0.191 NA
ATOM     22  H   UNL     1      -1.981   3.217   0.069  0.00  0.00    +0.148 HD
BRANCH  21  23
ATOM     23  S   UNL     1      -1.345   2.131  -1.856  0.00  0.00    +0.062 S 
ATOM     24  O   UNL     1      -2.212   3.043  -2.515  0.00  0.00    -0.153 OA
ATOM     25  O   UNL     1       0.034   2.021  -2.180  0.00  0.00    -0.153 OA
BRANCH  23  30
ATOM     26  C   UNL     1      -3.755  -0.885  -2.970  0.00  0.00    -0.046 A 
ATOM     27  C   UNL     1      -3.140  -1.991  -2.413  0.00  0.00    +0.007 A 
ATOM     28  C   UNL     1      -1.976  -1.841  -1.684  0.00  0.00    +0.048 A 
ATOM     29  C   UNL     1      -1.421  -0.581  -1.516  0.00  0.00    +0.146 A 
ATOM     30  C   UNL     1      -2.043   0.528  -2.072  0.00  0.00    +0.147 A 
ATOM     31  C   UNL     1      -3.207   0.373  -2.799  0.00  0.00    +0.036 A 
BRANCH  26  33
ATOM     32  C   UNL     1      -4.678  -1.282  -5.237  0.00  0.00    +0.009 C 
ATOM     33  C   UNL     1      -5.024  -1.051  -3.765  0.00  0.00    +0.032 C 
ENDBRANCH  26  33
BRANCH  29  34
ATOM     34  O   UNL     1      -0.273  -0.432  -0.805  0.00  0.00    -0.493 OA
ATOM     35  C   UNL     1       0.312  -1.617  -0.262  0.00  0.00    +0.277 C 
ENDBRANCH  29  34
ENDBRANCH  23  30
ENDBRANCH  21  23
ENDBRANCH  20  21
ENDBRANCH   1  20
TORSDOF 8
