REMARK  Name = ZINC45625889
REMARK  7 active torsions:
REMARK  status: ('A' for Active; 'I' for Inactive)
REMARK    1  A    between atoms: C_4  and  C_8
REMARK    2  A    between atoms: C_6  and  N_7
REMARK    3  A    between atoms: C_8  and  O_10
REMARK    4  A    between atoms: O_10  and  C_11
REMARK    5  A    between atoms: C_11  and  C_12
REMARK    6  A    between atoms: N_14  and  C_15
REMARK    7  A    between atoms: C_15  and  C_16
REMARK                            x       y       z     vdW  Elec       q    Type
REMARK                         _______ _______ _______ _____ _____    ______ ____
ROOT
ATOM      1  C   UNL     1       3.701  -0.677  -0.038  0.00  0.00    +0.341 C 
ATOM      2  O   UNL     1       4.741  -0.049  -0.046  0.00  0.00    -0.245 OA
ENDROOT
BRANCH   1   6
ATOM      3  C   UNL     1      -0.017   1.386   0.010  0.00  0.00    +0.024 A 
ATOM      4  C   UNL     1       1.168   2.098   0.002  0.00  0.00    +0.018 A 
ATOM      5  C   UNL     1       2.378   1.434  -0.013  0.00  0.00    +0.032 A 
ATOM      6  C   UNL     1       2.408   0.037  -0.021  0.00  0.00    +0.075 A 
ATOM      7  C   UNL     1       1.212  -0.681  -0.013  0.00  0.00    +0.038 A 
ATOM      8  C   UNL     1       0.002  -0.004   0.002  0.00  0.00    +0.025 A 
ATOM      9 BR   UNL     1       3.995   2.415  -0.025  0.00  0.00    -0.049 Br
BRANCH   8  10
ATOM     10  N   UNL     1      -1.199  -0.719   0.010  0.00  0.00    -0.358 N 
ATOM     11  H   UNL     1      -2.045  -0.245   0.021  0.00  0.00    +0.142 HD
ATOM     12  H   UNL     1      -1.186  -1.689   0.005  0.00  0.00    +0.142 HD
ENDBRANCH   8  10
ENDBRANCH   1   6
BRANCH   1  13
ATOM     13  O   UNL     1       3.727  -2.024  -0.046  0.00  0.00    -0.452 OA
BRANCH  13  14
ATOM     14  C   UNL     1       5.012  -2.648  -0.062  0.00  0.00    +0.328 C 
BRANCH  14  15
ATOM     15  C   UNL     1       4.843  -4.145  -0.068  0.00  0.00    +0.251 C 
ATOM     16  O   UNL     1       3.731  -4.630  -0.060  0.00  0.00    -0.272 OA
ATOM     17  N   UNL     1       5.927  -4.946  -0.084  0.00  0.00    -0.312 N 
ATOM     18  H   UNL     1       6.816  -4.558  -0.091  0.00  0.00    +0.149 HD
BRANCH  17  19
ATOM     19  C   UNL     1       5.763  -6.402  -0.090  0.00  0.00    +0.107 C 
BRANCH  19  20
ATOM     20  C   UNL     1       7.139  -7.070  -0.108  0.00  0.00    +0.006 C 
ATOM     21  C   UNL     1       7.499  -7.914  -1.332  0.00  0.00    +0.005 C 
ATOM     22  C   UNL     1       7.186  -8.595   0.002  0.00  0.00    +0.005 C 
ENDBRANCH  19  20
ENDBRANCH  17  19
ENDBRANCH  14  15
ENDBRANCH  13  14
ENDBRANCH   1  13
TORSDOF 7
