REMARK  Name = ZINC43303960
REMARK  5 active torsions:
REMARK  status: ('A' for Active; 'I' for Inactive)
REMARK    1  A    between atoms: C_1  and  C_2
REMARK    2  A    between atoms: N_5  and  C_11
REMARK    3  A    between atoms: C_7  and  C_10
REMARK    4  A    between atoms: C_11  and  C_13
REMARK    5  A    between atoms: C_11  and  C_14
REMARK                            x       y       z     vdW  Elec       q    Type
REMARK                         _______ _______ _______ _____ _____    ______ ____
ROOT
ATOM      1  C   UNL     1      -2.762  -2.547   0.044  0.00  0.00    +0.140 C 
ATOM      2  C   UNL     1      -3.155  -2.176  -1.387  0.00  0.00    +0.034 C 
ENDROOT
BRANCH   1   6
ATOM      3  C   UNL     1       0.566   1.076  -0.097  0.00  0.00    +0.039 C 
ATOM      4  C   UNL     1       0.341  -0.415   0.162  0.00  0.00    +0.130 C 
ATOM      5  C   UNL     1      -1.139  -0.752  -0.043  0.00  0.00    +0.116 C 
ATOM      6  N   UNL     1      -1.363  -2.168   0.282  0.00  0.00    -0.287 NA
ATOM      7  C   UNL     1      -0.968  -2.454   1.669  0.00  0.00    +0.116 C 
ATOM      8  C   UNL     1       0.510  -2.100   1.856  0.00  0.00    +0.130 C 
ATOM      9  O   UNL     1       0.716  -0.728   1.506  0.00  0.00    -0.371 OA
ATOM     10  C   UNL     1       0.907  -2.320   3.317  0.00  0.00    +0.039 C 
ENDBRANCH   1   6
BRANCH   1  11
ATOM     11  C   UNL     1      -2.919  -4.034   0.238  0.00  0.00    +0.233 C 
ATOM     12  O   UNL     1      -1.984  -4.776   0.025  0.00  0.00    -0.274 OA
ATOM     13  N   UNL     1      -4.100  -4.538   0.649  0.00  0.00    -0.300 N 
ATOM     14  C   UNL     1      -5.281  -3.751   1.033  0.00  0.00    +0.108 C 
ATOM     15  C   UNL     1      -6.379  -4.749   1.455  0.00  0.00    +0.020 C 
ATOM     16  C   UNL     1      -5.570  -6.020   1.825  0.00  0.00    +0.020 C 
ATOM     17  C   UNL     1      -4.422  -5.970   0.783  0.00  0.00    +0.108 C 
ENDBRANCH   1  11
TORSDOF 2
