REMARK  Name = ZINC63786830
REMARK  4 active torsions:
REMARK  status: ('A' for Active; 'I' for Inactive)
REMARK    1  A    between atoms: C_7  and  C_10
REMARK    2  A    between atoms: C_10  and  C_11
REMARK    3  A    between atoms: N_13  and  C_14
REMARK    4  A    between atoms: C_16  and  C_25
REMARK                            x       y       z     vdW  Elec       q    Type
REMARK                         _______ _______ _______ _____ _____    ______ ____
ROOT
ATOM      1  C   UNL     1       0.460  -3.646  -1.440  0.00  0.00    +0.218 C 
ATOM      2  O   UNL     1       1.006  -3.075  -2.360  0.00  0.00    -0.275 OA
ATOM      3  N   UNL     1      -0.353  -4.693  -1.684  0.00  0.00    -0.302 N 
ATOM      4  H   UNL     1      -0.790  -5.150  -0.948  0.00  0.00    +0.150 HD
ENDROOT
BRANCH   3   5
ATOM      5  C   UNL     1      -0.577  -5.141  -3.061  0.00  0.00    +0.151 C 
ATOM      6  C   UNL     1      -0.604  -6.685  -3.159  0.00  0.00    +0.132 C 
ATOM      7  C   UNL     1      -2.006  -7.226  -3.036  0.00  0.00    -0.046 C 
ATOM      8  C   UNL     1      -3.011  -6.385  -3.249  0.00  0.00    -0.013 C 
ATOM      9  S   UNL     1      -2.300  -4.794  -3.613  0.00  0.00    -0.106 S 
ATOM     10  C   UNL     1      -4.480  -6.698  -3.196  0.00  0.00    +0.042 C 
ATOM     11  C   UNL     1      -4.661  -8.221  -3.216  0.00  0.00    +0.005 C 
ATOM     12  C   UNL     1      -3.705  -8.837  -2.189  0.00  0.00    +0.005 C 
ATOM     13  C   UNL     1      -2.266  -8.688  -2.680  0.00  0.00    +0.032 C 
BRANCH   6  14
ATOM     14  C   UNL     1      -0.033  -7.104  -4.489  0.00  0.00    +0.220 C 
ATOM     15  O   UNL     1      -0.720  -7.716  -5.279  0.00  0.00    -0.275 OA
ATOM     16  N   UNL     1       1.243  -6.799  -4.801  0.00  0.00    -0.329 N 
ATOM     17  H   UNL     1       1.792  -6.309  -4.169  0.00  0.00    +0.145 HD
ATOM     18  H   UNL     1       1.610  -7.068  -5.657  0.00  0.00    +0.145 HD
ENDBRANCH   6  14
ENDBRANCH   3   5
BRANCH   1  19
ATOM     19  C   UNL     1       0.691  -3.186  -0.024  0.00  0.00    +0.129 C 
BRANCH  19  26
ATOM     20  C   UNL     1      -0.016   1.348   0.009  0.00  0.00    +0.001 A 
ATOM     21  C   UNL     1       1.166   2.101   0.002  0.00  0.00    +0.002 A 
ATOM     22  C   UNL     1       2.391   1.535  -0.013  0.00  0.00    +0.026 A 
ATOM     23  C   UNL     1       2.529   0.120  -0.022  0.00  0.00    +0.043 A 
ATOM     24  N   UNL     1       3.587  -0.654  -0.037  0.00  0.00    -0.380 N 
ATOM     25  C   UNL     1       3.143  -2.053  -0.041  0.00  0.00    +0.145 C 
ATOM     26  C   UNL     1       1.631  -2.008  -0.025  0.00  0.00    -0.033 C 
ATOM     27  C   UNL     1       1.295  -0.698  -0.014  0.00  0.00    -0.001 A 
ATOM     28  C   UNL     1       0.002  -0.004   0.002  0.00  0.00    +0.010 A 
ATOM     29  H   UNL     1       4.509  -0.353  -0.045  0.00  0.00    +0.160 HD
ENDBRANCH  19  26
ENDBRANCH   1  19
TORSDOF 4
