REMARK  Name = ZINC08960001
REMARK  7 active torsions:
REMARK  status: ('A' for Active; 'I' for Inactive)
REMARK    1  A    between atoms: C_1  and  C_2
REMARK    2  A    between atoms: C_2  and  N_49
REMARK    3  A    between atoms: C_8  and  N_13
REMARK    4  A    between atoms: C_9  and  C_10
REMARK    5  A    between atoms: C_14  and  C_16
REMARK    6  A    between atoms: C_22  and  O_25
REMARK    7  A    between atoms: O_25  and  C_26
REMARK                            x       y       z     vdW  Elec       q    Type
REMARK                         _______ _______ _______ _____ _____    ______ ____
ROOT
ATOM      1  C   UNL     1       2.017   2.978  -3.634  0.00  0.00    -0.074 C 
ATOM      2  C   UNL     1       1.330   2.047  -2.631  0.00  0.00    +0.018 C 
ATOM      3  C   UNL     1       1.880   2.355  -1.243  0.00  0.00    -0.027 A 
ATOM      4  C   UNL     1       3.038   3.042  -1.109  0.00  0.00    -0.021 A 
ATOM      5  S   UNL     1       3.287   3.171   0.637  0.00  0.00    -0.079 S 
ATOM      6  C   UNL     1       1.873   2.331   1.184  0.00  0.00    +0.085 A 
ATOM      7  C   UNL     1       1.245   1.963   0.001  0.00  0.00    +0.068 A 
ATOM      8  C   UNL     1       3.896   3.562  -2.220  0.00  0.00    -0.035 C 
ATOM      9  N   UNL     1       3.482   2.881  -3.470  0.00  0.00    +0.383 N 
ATOM     10  H   UNL     1       3.746   1.890  -3.414  0.00  0.00    -0.081 HD
ENDROOT
BRANCH   7  11
ATOM     11  C   UNL     1      -0.014   1.213   0.009  0.00  0.00    +0.244 C 
ATOM     12  O   UNL     1       0.002  -0.004   0.002  0.00  0.00    -0.270 OA
ATOM     13  N   UNL     1      -1.191   1.871   0.018  0.00  0.00    -0.325 N 
ATOM     14  H   UNL     1      -2.024   1.375   0.019  0.00  0.00    +0.145 HD
ATOM     15  H   UNL     1      -1.204   2.841   0.023  0.00  0.00    +0.145 HD
ENDBRANCH   7  11
BRANCH   6  16
ATOM     16  N   UNL     1       1.469   2.083   2.486  0.00  0.00    -0.273 N 
ATOM     17  C   UNL     1       2.216   2.523   3.518  0.00  0.00    +0.284 C 
ATOM     18  O   UNL     1       3.245   3.136   3.307  0.00  0.00    -0.266 OA
ATOM     19  H   UNL     1       0.649   1.594   2.654  0.00  0.00    +0.156 HD
BRANCH  17  20
ATOM     20  C   UNL     1       1.787   2.260   4.899  0.00  0.00    +0.191 A 
ATOM     21  C   UNL     1       2.457   2.653   6.013  0.00  0.00    +0.063 A 
ATOM     22  C   UNL     1       1.667   2.178   7.149  0.00  0.00    +0.025 A 
ATOM     23  C   UNL     1       1.812   2.257   8.537  0.00  0.00    +0.012 A 
ATOM     24  C   UNL     1       0.871   1.695   9.352  0.00  0.00    +0.004 A 
ATOM     25  C   UNL     1      -0.229   1.043   8.812  0.00  0.00    +0.049 A 
ATOM     26  C   UNL     1      -0.393   0.952   7.442  0.00  0.00    +0.163 A 
ATOM     27  C   UNL     1       0.556   1.520   6.592  0.00  0.00    +0.177 A 
ATOM     28  O   UNL     1       0.666   1.598   5.251  0.00  0.00    -0.447 OA
BRANCH  26  29
ATOM     29  O   UNL     1      -1.475   0.311   6.925  0.00  0.00    -0.491 OA
ATOM     30  C   UNL     1      -2.405  -0.246   7.856  0.00  0.00    +0.277 C 
ENDBRANCH  26  29
ENDBRANCH  17  20
ENDBRANCH   6  16
BRANCH   9  32
ATOM     31  C   UNL     1       5.655   3.630  -4.323  0.00  0.00    -0.017 C 
ATOM     32  C   UNL     1       4.162   3.495  -4.631  0.00  0.00    -0.082 C 
ENDBRANCH   9  32
TORSDOF 5
