REMARK  Name = ZINC47028897
REMARK  6 active torsions:
REMARK  status: ('A' for Active; 'I' for Inactive)
REMARK    1  A    between atoms: C_1  and  C_2
REMARK    2  A    between atoms: C_2  and  C_4
REMARK    3  A    between atoms: C_2  and  N_10
REMARK    4  A    between atoms: C_4  and  N_5
REMARK    5  A    between atoms: N_13  and  N_14
REMARK    6  A    between atoms: C_15  and  C_17
REMARK                            x       y       z     vdW  Elec       q    Type
REMARK                         _______ _______ _______ _____ _____    ______ ____
ROOT
ATOM      1  N   UNL     1       0.688  -0.476  -1.203  0.00  0.00    -0.294 N 
ATOM      2  C   UNL     1       0.006  -0.608  -2.358  0.00  0.00    +0.316 C 
ATOM      3  O   UNL     1      -1.178  -0.335  -2.400  0.00  0.00    -0.251 OA
ATOM      4  N   UNL     1       0.637  -1.043  -3.467  0.00  0.00    -0.218 N 
ATOM      5  H   UNL     1       1.632  -0.695  -1.170  0.00  0.00    +0.151 HD
ATOM      6  H   UNL     1       0.146  -1.137  -4.299  0.00  0.00    +0.174 HD
ENDROOT
BRANCH   4   7
ATOM      7  N   UNL     1       2.001  -1.358  -3.419  0.00  0.00    -0.229 N 
ATOM      8  C   UNL     1       2.632  -1.792  -4.528  0.00  0.00    +0.267 C 
ATOM      9  O   UNL     1       2.017  -1.911  -5.571  0.00  0.00    -0.268 OA
ATOM     10  H   UNL     1       2.492  -1.263  -2.588  0.00  0.00    +0.173 HD
BRANCH   8  11
ATOM     11  C   UNL     1       4.060  -2.122  -4.478  0.00  0.00    +0.076 A 
ATOM     12  C   UNL     1       4.886  -2.571  -5.484  0.00  0.00    +0.024 A 
ATOM     13  C   UNL     1       6.217  -2.834  -5.143  0.00  0.00    -0.036 A 
ATOM     14  C   UNL     1       6.561  -2.663  -3.853  0.00  0.00    -0.006 A 
ATOM     15  S   UNL     1       5.186  -2.040  -3.102  0.00  0.00    -0.088 S 
ATOM     16  C   UNL     1       7.816  -2.986  -3.082  0.00  0.00    +0.043 C 
ATOM     17  C   UNL     1       8.880  -3.650  -3.956  0.00  0.00    +0.005 C 
ATOM     18  C   UNL     1       9.621  -2.616  -4.788  0.00  0.00    +0.000 C 
ATOM     19  C   UNL     1       8.718  -1.511  -5.297  0.00  0.00    +0.000 C 
ATOM     20  C   UNL     1       8.065  -2.028  -6.583  0.00  0.00    +0.005 C 
ATOM     21  C   UNL     1       7.189  -3.233  -6.244  0.00  0.00    +0.036 C 
ENDBRANCH   8  11
ENDBRANCH   4   7
BRANCH   1  23
ATOM     22  C   UNL     1      -0.019   1.526   0.010  0.00  0.00    +0.029 C 
ATOM     23  C   UNL     1       0.002  -0.004   0.002  0.00  0.00    +0.091 C 
BRANCH  23  24
ATOM     24  C   UNL     1       0.742  -0.511   1.242  0.00  0.00    +0.144 C 
BRANCH  24  25
ATOM     25  N   UNL     1       0.659  -1.972   1.296  0.00  0.00    -0.337 N 
ATOM     26  C   UNL     1      -0.320  -2.708   1.907  0.00  0.00    +0.104 A 
ATOM     27  C   UNL     1      -0.010  -4.005   1.716  0.00  0.00    +0.101 A 
ATOM     28  N   UNL     1       1.127  -4.059   1.008  0.00  0.00    -0.352 N 
ATOM     29  C   UNL     1       1.531  -2.846   0.748  0.00  0.00    +0.173 A 
ATOM     30  H   UNL     1       1.577  -4.872   0.729  0.00  0.00    +0.166 HD
ENDBRANCH  24  25
ENDBRANCH  23  24
ENDBRANCH   1  23
TORSDOF 5
