REMARK  Name = ZINC39658422
REMARK  8 active torsions:
REMARK  status: ('A' for Active; 'I' for Inactive)
REMARK    1  A    between atoms: C_4  and  C_7
REMARK    2  A    between atoms: C_7  and  S_8
REMARK    3  A    between atoms: S_8  and  C_9
REMARK    4  A    between atoms: C_9  and  C_10
REMARK    5  A    between atoms: C_10  and  N_11
REMARK    6  A    between atoms: C_12  and  C_14
REMARK    7  A    between atoms: C_25  and  C_27
REMARK    8  A    between atoms: C_30  and  C_34
REMARK                            x       y       z     vdW  Elec       q    Type
REMARK                         _______ _______ _______ _____ _____    ______ ____
ROOT
ATOM      1  C   UNL     1       9.103  -4.399   3.798  0.00  0.00    +0.100 C 
ATOM      2  C   UNL     1       9.173  -5.733   3.021  0.00  0.00    +0.121 C 
ATOM      3  N   UNL     1      10.206  -6.525   3.730  0.00  0.00    -0.296 N 
ATOM      4  C   UNL     1       9.972  -6.235   5.165  0.00  0.00    +0.115 C 
ATOM      5  C   UNL     1       9.628  -4.732   5.204  0.00  0.00    -0.004 C 
ATOM      6  C   UNL     1      10.878  -3.912   5.510  0.00  0.00    -0.010 C 
ATOM      7  C   UNL     1      11.348  -4.220   6.935  0.00  0.00    -0.082 C 
ATOM      8  N   UNL     1      10.278  -3.893   7.886  0.00  0.00    +0.379 N 
ATOM      9  C   UNL     1       9.113  -4.751   7.643  0.00  0.00    -0.082 C 
ATOM     10  C   UNL     1       8.548  -4.467   6.248  0.00  0.00    -0.010 C 
ATOM     11  C   UNL     1      11.145  -7.328   3.192  0.00  0.00    +0.247 C 
ATOM     12  O   UNL     1      11.294  -7.365   1.986  0.00  0.00    -0.270 OA
ATOM     13  H   UNL     1      10.611  -4.038   8.827  0.00  0.00    -0.086 HD
ATOM     14  H   UNL     1      10.012  -2.926   7.772  0.00  0.00    -0.086 HD
ENDROOT
BRANCH  11  15
ATOM     15  C   UNL     1      11.994  -8.163   4.068  0.00  0.00    +0.040 A 
ATOM     16  C   UNL     1      11.577  -8.467   5.365  0.00  0.00    +0.014 A 
ATOM     17  C   UNL     1      12.372  -9.247   6.178  0.00  0.00    +0.016 A 
ATOM     18  C   UNL     1      13.582  -9.729   5.711  0.00  0.00    +0.090 A 
ATOM     19  C   UNL     1      14.004  -9.431   4.426  0.00  0.00    +0.136 A 
ATOM     20  C   UNL     1      13.213  -8.655   3.599  0.00  0.00    +0.052 A 
ATOM     21  F   UNL     1      15.187  -9.904   3.977  0.00  0.00    -0.205 F 
BRANCH  18  22
ATOM     22  C   UNL     1      14.446 -10.581   6.606  0.00  0.00    +0.420 C 
ATOM     23  F   UNL     1      13.817 -10.743   7.845  0.00  0.00    -0.166 F 
ATOM     24  F   UNL     1      14.638 -11.833   6.013  0.00  0.00    -0.166 F 
ATOM     25  F   UNL     1      15.684  -9.957   6.790  0.00  0.00    -0.166 F 
ENDBRANCH  18  22
ENDBRANCH  11  15
BRANCH   1  27
ATOM     26  N   UNL     1       7.425  -2.586   3.929  0.00  0.00    -0.314 N 
ATOM     27  C   UNL     1       7.680  -3.909   3.871  0.00  0.00    +0.218 C 
ATOM     28  O   UNL     1       6.764  -4.704   3.878  0.00  0.00    -0.275 OA
ATOM     29  H   UNL     1       8.157  -1.950   3.923  0.00  0.00    +0.149 HD
BRANCH  26  30
ATOM     30  C   UNL     1       6.041  -2.110   4.001  0.00  0.00    +0.115 C 
BRANCH  30  31
ATOM     31  C   UNL     1       6.031  -0.581   4.056  0.00  0.00    +0.088 C 
BRANCH  31  32
ATOM     32  S   UNL     1       4.318   0.009   4.145  0.00  0.00    -0.155 S 
BRANCH  32  33
ATOM     33  C   UNL     1       4.478   1.815   4.204  0.00  0.00    +0.104 C 
BRANCH  33  37
ATOM     34  C   UNL     1       0.597   3.585   4.420  0.00  0.00    +0.000 A 
ATOM     35  C   UNL     1       1.271   3.255   5.581  0.00  0.00    +0.000 A 
ATOM     36  C   UNL     1       2.527   2.682   5.511  0.00  0.00    +0.004 A 
ATOM     37  C   UNL     1       3.109   2.439   4.280  0.00  0.00    -0.038 A 
ATOM     38  C   UNL     1       2.434   2.769   3.120  0.00  0.00    +0.004 A 
ATOM     39  C   UNL     1       1.178   3.343   3.190  0.00  0.00    +0.000 A 
ENDBRANCH  33  37
ENDBRANCH  32  33
ENDBRANCH  31  32
ENDBRANCH  30  31
ENDBRANCH  26  30
ENDBRANCH   1  27
TORSDOF 8
