REMARK  Name = ZINC42598024
REMARK  11 active torsions:
REMARK  status: ('A' for Active; 'I' for Inactive)
REMARK    1  A    between atoms: C_1  and  C_2
REMARK    2  A    between atoms: C_2  and  C_4
REMARK    3  A    between atoms: C_2  and  N_8
REMARK    4  A    between atoms: C_4  and  C_5
REMARK    5  A    between atoms: C_5  and  C_6
REMARK    6  A    between atoms: C_5  and  C_7
REMARK    7  A    between atoms: N_8  and  C_9
REMARK    8  A    between atoms: C_10  and  C_12
REMARK    9  A    between atoms: C_15  and  C_19
REMARK   10  A    between atoms: C_20  and  C_21
REMARK   11  A    between atoms: C_21  and  N_22
REMARK                            x       y       z     vdW  Elec       q    Type
REMARK                         _______ _______ _______ _____ _____    ______ ____
ROOT
ATOM      1  C   UNL     1       2.240  -2.391   2.096  0.00  0.00    +0.072 A 
ATOM      2  C   UNL     1       1.518  -3.506   2.533  0.00  0.00    +0.017 A 
ATOM      3  C   UNL     1       2.017  -4.302   3.523  0.00  0.00    +0.018 A 
ATOM      4  C   UNL     1       3.252  -4.007   4.106  0.00  0.00    +0.028 A 
ATOM      5  C   UNL     1       3.981  -2.896   3.678  0.00  0.00    +0.056 A 
ATOM      6  C   UNL     1       3.481  -2.094   2.673  0.00  0.00    +0.137 A 
ATOM      7  F   UNL     1       4.184  -1.020   2.250  0.00  0.00    -0.205 F 
ENDROOT
BRANCH   1  10
ATOM      8  N   UNL     1       0.404  -1.159   1.052  0.00  0.00    -0.298 N 
ATOM      9  C   UNL     1      -0.436  -1.507   2.200  0.00  0.00    +0.132 C 
ATOM     10  C   UNL     1       1.698  -1.533   1.026  0.00  0.00    +0.249 C 
ATOM     11  O   UNL     1       2.420  -1.163   0.120  0.00  0.00    -0.270 OA
BRANCH   8  13
ATOM     12  C   UNL     1      -0.565   0.992   0.408  0.00  0.00    +0.028 C 
ATOM     13  C   UNL     1      -0.164  -0.405  -0.069  0.00  0.00    +0.073 C 
BRANCH  13  14
ATOM     14  C   UNL     1      -1.397  -1.136  -0.603  0.00  0.00    +0.025 C 
BRANCH  14  15
ATOM     15  C   UNL     1      -0.988  -2.518  -1.118  0.00  0.00    -0.015 C 
ATOM     16  C   UNL     1      -2.239  -3.304  -1.516  0.00  0.00    +0.007 C 
ATOM     17  C   UNL     1      -0.076  -2.358  -2.336  0.00  0.00    +0.007 C 
ENDBRANCH  14  15
ENDBRANCH  13  14
ENDBRANCH   8  13
ENDBRANCH   1  10
BRANCH   4  18
ATOM     18  C   UNL     1       3.771  -4.846   5.145  0.00  0.00    -0.068 C 
ATOM     19  C   UNL     1       4.196  -5.533   5.997  0.00  0.00    -0.117 C 
BRANCH  19  20
ATOM     20  C   UNL     1       4.730  -6.394   7.065  0.00  0.00    +0.005 C 
BRANCH  20  21
ATOM     21  N   UNL     1       6.031  -5.876   7.508  0.00  0.00    +0.385 N 
ATOM     22  H   UNL     1       6.673  -5.869   6.730  0.00  0.00    -0.089 HD
ATOM     23  H   UNL     1       5.917  -4.937   7.859  0.00  0.00    -0.089 HD
ATOM     24  H   UNL     1       6.396  -6.467   8.240  0.00  0.00    -0.089 HD
ENDBRANCH  20  21
ENDBRANCH  19  20
ENDBRANCH   4  18
TORSDOF 7
