REMARK  Name = ZINC39967461
REMARK  16 active torsions:
REMARK  status: ('A' for Active; 'I' for Inactive)
REMARK    1  A    between atoms: C_1  and  C_2
REMARK    2  A    between atoms: C_2  and  N_3
REMARK    3  A    between atoms: C_4  and  C_24
REMARK    4  A    between atoms: C_7  and  S_8
REMARK    5  A    between atoms: S_8  and  C_9
REMARK    6  A    between atoms: C_9  and  C_10
REMARK    7  A    between atoms: N_12  and  C_13
REMARK    8  A    between atoms: C_14  and  C_22
REMARK    9  A    between atoms: C_15  and  C_21
REMARK   10  A    between atoms: C_16  and  C_18
REMARK   11  A    between atoms: C_24  and  O_25
REMARK   12  A    between atoms: O_25  and  C_26
REMARK   13  A    between atoms: C_29  and  C_32
REMARK   14  A    between atoms: C_32  and  C_33
REMARK   15  A    between atoms: C_32  and  C_34
REMARK   16  A    between atoms: C_32  and  C_35
REMARK                            x       y       z     vdW  Elec       q    Type
REMARK                         _______ _______ _______ _____ _____    ______ ____
ROOT
ATOM      1  N   UNL     1      -1.372  -0.511   0.012  0.00  0.00    -0.303 N 
ATOM      2  C   UNL     1      -2.139  -0.798   1.108  0.00  0.00    +0.172 A 
ATOM      3  N   UNL     1      -3.292  -1.221   0.675  0.00  0.00    -0.130 NA
ATOM      4  N   UNL     1      -3.308  -1.222  -0.610  0.00  0.00    -0.122 NA
ATOM      5  C   UNL     1      -2.156  -0.790  -1.070  0.00  0.00    +0.192 A 
ENDROOT
BRANCH   1   7
ATOM      6  C   UNL     1      -0.019   1.526   0.010  0.00  0.00    +0.027 C 
ATOM      7  C   UNL     1       0.002  -0.004   0.002  0.00  0.00    +0.122 C 
ENDBRANCH   1   7
BRANCH   5   8
ATOM      8  S   UNL     1      -1.707  -0.609  -2.764  0.00  0.00    -0.077 S 
BRANCH   8   9
ATOM      9  C   UNL     1      -3.184  -1.145  -3.670  0.00  0.00    +0.173 C 
BRANCH   9  10
ATOM     10  C   UNL     1      -2.931  -1.038  -5.152  0.00  0.00    +0.228 C 
ATOM     11  O   UNL     1      -1.859  -0.639  -5.557  0.00  0.00    -0.275 OA
ATOM     12  N   UNL     1      -3.895  -1.386  -6.027  0.00  0.00    -0.278 N 
ATOM     13  H   UNL     1      -4.752  -1.704  -5.703  0.00  0.00    +0.155 HD
BRANCH  12  14
ATOM     14  C   UNL     1      -3.663  -1.288  -7.386  0.00  0.00    +0.090 A 
ATOM     15  C   UNL     1      -4.534  -1.593  -8.432  0.00  0.00    +0.084 A 
ATOM     16  C   UNL     1      -4.073  -1.413  -9.728  0.00  0.00    -0.012 A 
ATOM     17  C   UNL     1      -2.791  -0.946  -9.857  0.00  0.00    +0.080 A 
ATOM     18  S   UNL     1      -2.268  -0.766  -8.164  0.00  0.00    -0.067 S 
ATOM     19  C   UNL     1      -4.935  -1.714 -10.927  0.00  0.00    +0.046 C 
BRANCH  17  20
ATOM     20  C   UNL     1      -2.041  -0.661 -11.081  0.00  0.00    +0.248 C 
ATOM     21  O   UNL     1      -2.560  -0.839 -12.168  0.00  0.00    -0.270 OA
ATOM     22  N   UNL     1      -0.776  -0.203 -11.005  0.00  0.00    -0.325 N 
ATOM     23  H   UNL     1      -0.362  -0.062 -10.139  0.00  0.00    +0.145 HD
ATOM     24  H   UNL     1      -0.279  -0.014 -11.816  0.00  0.00    +0.145 HD
ENDBRANCH  17  20
BRANCH  15  25
ATOM     25  C   UNL     1      -5.857  -2.076  -8.177  0.00  0.00    +0.102 C 
ATOM     26  N   UNL     1      -6.907  -2.460  -7.974  0.00  0.00    -0.191 NA
ENDBRANCH  15  25
ENDBRANCH  12  14
ENDBRANCH   9  10
ENDBRANCH   8   9
ENDBRANCH   5   8
BRANCH   2  27
ATOM     27  C   UNL     1      -1.725  -0.651   2.550  0.00  0.00    +0.305 C 
BRANCH  27  28
ATOM     28  O   UNL     1      -2.059   0.659   3.011  0.00  0.00    -0.484 OA
BRANCH  28  29
ATOM     29  C   UNL     1      -1.751   0.957   4.301  0.00  0.00    +0.121 A 
ATOM     30  C   UNL     1      -1.134   0.010   5.104  0.00  0.00    +0.046 A 
ATOM     31  C   UNL     1      -0.821   0.315   6.415  0.00  0.00    +0.008 A 
ATOM     32  C   UNL     1      -1.123   1.564   6.926  0.00  0.00    -0.042 A 
ATOM     33  C   UNL     1      -1.739   2.510   6.127  0.00  0.00    +0.008 A 
ATOM     34  C   UNL     1      -2.048   2.211   4.814  0.00  0.00    +0.046 A 
BRANCH  32  35
ATOM     35  C   UNL     1      -0.781   1.894   8.356  0.00  0.00    -0.013 C 
ATOM     36  C   UNL     1       0.729   1.765   8.562  0.00  0.00    +0.015 C 
ATOM     37  C   UNL     1      -1.218   3.327   8.666  0.00  0.00    +0.015 C 
ATOM     38  C   UNL     1      -1.508   0.926   9.291  0.00  0.00    +0.015 C 
ENDBRANCH  32  35
ENDBRANCH  28  29
ENDBRANCH  27  28
ENDBRANCH   2  27
TORSDOF 11
