REMARK  Name = ZINC09464965
REMARK  12 active torsions:
REMARK  status: ('A' for Active; 'I' for Inactive)
REMARK    1  A    between atoms: C_1  and  C_2
REMARK    2  A    between atoms: C_2  and  N_63
REMARK    3  A    between atoms: C_3  and  C_4
REMARK    4  A    between atoms: C_3  and  N_63
REMARK    5  A    between atoms: C_5  and  C_6
REMARK    6  A    between atoms: C_5  and  N_63
REMARK    7  A    between atoms: C_6  and  C_7
REMARK    8  A    between atoms: C_7  and  N_8
REMARK    9  A    between atoms: C_9  and  C_28
REMARK   10  A    between atoms: C_11  and  C_16
REMARK   11  A    between atoms: C_12  and  O_15
REMARK   12  A    between atoms: C_16  and  C_18
REMARK                            x       y       z     vdW  Elec       q    Type
REMARK                         _______ _______ _______ _____ _____    ______ ____
ROOT
ATOM      1  N   UNL     1       3.234  -4.507   0.051  0.00  0.00    -0.284 N 
ATOM      2  C   UNL     1       2.625  -3.175  -0.031  0.00  0.00    +0.144 C 
ATOM      3  C   UNL     1       3.770  -2.189  -0.056  0.00  0.00    +0.071 C 
ATOM      4  C   UNL     1       4.910  -2.913   0.016  0.00  0.00    +0.188 C 
ATOM      5  C   UNL     1       4.570  -4.350   0.082  0.00  0.00    +0.282 C 
ATOM      6  O   UNL     1       5.377  -5.255   0.154  0.00  0.00    -0.267 OA
ENDROOT
BRANCH   2   7
ATOM      7  C   UNL     1       1.812  -3.057  -1.295  0.00  0.00    -0.021 A 
ATOM      8  C   UNL     1       0.653  -2.304  -1.303  0.00  0.00    +0.007 A 
ATOM      9  C   UNL     1      -0.093  -2.195  -2.461  0.00  0.00    +0.022 A 
ATOM     10  C   UNL     1       0.320  -2.839  -3.613  0.00  0.00    +0.059 A 
ATOM     11  C   UNL     1       1.481  -3.593  -3.605  0.00  0.00    +0.060 A 
ATOM     12  C   UNL     1       2.230  -3.697  -2.446  0.00  0.00    +0.027 A 
ATOM     13 CL   UNL     1       2.001  -4.403  -5.050  0.00  0.00    -0.082 Cl
ATOM     14 CL   UNL     1      -0.617  -2.703  -5.068  0.00  0.00    -0.082 Cl
ENDBRANCH   2   7
BRANCH   4  15
ATOM     15  O   UNL     1       6.164  -2.404   0.025  0.00  0.00    -0.502 OA
ATOM     16  H   UNL     1       6.827  -3.150   0.084  0.00  0.00    +0.292 HD
ENDBRANCH   4  15
BRANCH   3  17
ATOM     17  C   UNL     1       3.665  -0.729  -0.136  0.00  0.00    +0.195 C 
ATOM     18  O   UNL     1       4.060  -0.143  -1.127  0.00  0.00    -0.287 OA
BRANCH  17  19
ATOM     19  C   UNL     1       3.080   0.032   0.987  0.00  0.00    +0.026 A 
ATOM     20  C   UNL     1       2.553  -0.643   2.092  0.00  0.00    +0.015 A 
ATOM     21  C   UNL     1       2.007   0.069   3.136  0.00  0.00    +0.050 A 
ATOM     22  C   UNL     1       1.977   1.459   3.097  0.00  0.00    +0.162 A 
ATOM     23  C   UNL     1       2.503   2.138   1.999  0.00  0.00    +0.163 A 
ATOM     24  C   UNL     1       3.052   1.429   0.947  0.00  0.00    +0.061 A 
ATOM     25  O   UNL     1       2.489   3.498   1.950  0.00  0.00    -0.485 OA
ATOM     26  C   UNL     1       1.597   4.165   2.850  0.00  0.00    +0.270 C 
ATOM     27  C   UNL     1       1.753   3.531   4.239  0.00  0.00    +0.270 C 
ATOM     28  O   UNL     1       1.425   2.141   4.135  0.00  0.00    -0.485 OA
ENDBRANCH  17  19
ENDBRANCH   3  17
BRANCH   1  29
ATOM     29  C   UNL     1       2.515  -5.783   0.098  0.00  0.00    +0.107 C 
BRANCH  29  30
ATOM     30  C   UNL     1       2.223  -6.151   1.554  0.00  0.00    +0.000 C 
BRANCH  30  31
ATOM     31  C   UNL     1       1.472  -7.483   1.602  0.00  0.00    -0.077 C 
BRANCH  31  32
ATOM     32  N   UNL     1       1.216  -7.835   3.015  0.00  0.00    +0.379 N 
ATOM     33  H   UNL     1       2.099  -7.783   3.536  0.00  0.00    -0.082 HD
BRANCH  32  35
ATOM     34  C   UNL     1      -1.100  -6.978   2.896  0.00  0.00    -0.017 C 
ATOM     35  C   UNL     1       0.252  -6.883   3.606  0.00  0.00    -0.082 C 
ENDBRANCH  32  35
BRANCH  32  36
ATOM     36  C   UNL     1       0.686  -9.212   3.104  0.00  0.00    -0.082 C 
ATOM     37  C   UNL     1       0.760  -9.673   4.561  0.00  0.00    -0.017 C 
ENDBRANCH  32  36
ENDBRANCH  31  32
ENDBRANCH  30  31
ENDBRANCH  29  30
ENDBRANCH   1  29
TORSDOF 10
