REMARK  Name = ZINC21808712
REMARK  10 active torsions:
REMARK  status: ('A' for Active; 'I' for Inactive)
REMARK    1  A    between atoms: C_1  and  C_2
REMARK    2  A    between atoms: C_2  and  C_3
REMARK    3  A    between atoms: N_9  and  C_10
REMARK    4  A    between atoms: C_10  and  C_11
REMARK    5  A    between atoms: C_11  and  C_12
REMARK    6  A    between atoms: C_12  and  N_13
REMARK    7  A    between atoms: C_22  and  C_23
REMARK    8  A    between atoms: C_22  and  C_24
REMARK    9  A    between atoms: N_26  and  C_27
REMARK   10  A    between atoms: C_30  and  C_33
REMARK                            x       y       z     vdW  Elec       q    Type
REMARK                         _______ _______ _______ _____ _____    ______ ____
ROOT
ATOM      1  N   UNL     1      -1.390   0.413   3.640  0.00  0.00    -0.281 N 
ATOM      2  C   UNL     1      -2.427  -0.438   3.821  0.00  0.00    +0.264 C 
ATOM      3  O   UNL     1      -2.534  -1.466   3.178  0.00  0.00    -0.268 OA
ATOM      4  C   UNL     1      -3.416  -0.054   4.837  0.00  0.00    +0.106 A 
ATOM      5  C   UNL     1      -4.456  -0.752   5.373  0.00  0.00    +0.048 A 
ATOM      6  C   UNL     1      -5.073   0.080   6.300  0.00  0.00    +0.038 A 
ATOM      7  C   UNL     1      -4.414   1.318   6.331  0.00  0.00    +0.057 A 
ATOM      8  N   UNL     1      -3.395   1.217   5.402  0.00  0.00    -0.333 N 
ATOM      9  C   UNL     1      -2.411   2.226   5.001  0.00  0.00    +0.157 C 
ATOM     10  C   UNL     1      -1.127   1.518   4.554  0.00  0.00    +0.128 C 
ATOM     11  C   UNL     1      -0.221   2.534   3.855  0.00  0.00    +0.043 C 
ATOM     12  C   UNL     1      -4.934   2.259   7.232  0.00  0.00    +0.034 A 
ATOM     13  C   UNL     1      -6.003   1.950   7.995  0.00  0.00    +0.048 A 
ATOM     14  S   UNL     1      -6.368   0.276   7.497  0.00  0.00    -0.095 S 
ENDROOT
BRANCH  10  15
ATOM     15  C   UNL     1      -0.411   0.986   5.769  0.00  0.00    +0.238 C 
ATOM     16  O   UNL     1       0.431   1.662   6.321  0.00  0.00    -0.273 OA
ATOM     17  N   UNL     1      -0.707  -0.241   6.241  0.00  0.00    -0.311 N 
ATOM     18  H   UNL     1      -1.471  -0.854   5.741  0.00  0.00    +0.149 HD
BRANCH  17  19
ATOM     19  C   UNL     1      -0.011  -0.759   7.422  0.00  0.00    +0.073 C 
ATOM     20  C   UNL     1       1.310  -1.402   6.994  0.00  0.00    +0.022 C 
ATOM     21  C   UNL     1       2.036  -1.943   8.227  0.00  0.00    +0.005 C 
ATOM     22  C   UNL     1       1.160  -2.989   8.918  0.00  0.00    -0.014 C 
ATOM     23  C   UNL     1      -0.161  -2.345   9.346  0.00  0.00    +0.005 C 
ATOM     24  C   UNL     1      -0.888  -1.805   8.113  0.00  0.00    +0.022 C 
ATOM     25  C   UNL     1       1.887  -3.529  10.151  0.00  0.00    +0.007 C 
ENDBRANCH  17  19
ENDBRANCH  10  15
BRANCH   1  26
ATOM     26  C   UNL     1      -0.501   0.214   2.493  0.00  0.00    +0.107 C 
BRANCH  26  27
ATOM     27  C   UNL     1      -1.034   1.000   1.293  0.00  0.00    +0.000 C 
BRANCH  27  28
ATOM     28  C   UNL     1      -0.105   0.793   0.095  0.00  0.00    -0.077 C 
BRANCH  28  34
ATOM     29  C   UNL     1       0.303   1.453  -2.198  0.00  0.00    -0.069 C 
ATOM     30  C   UNL     1      -0.327   2.125  -3.420  0.00  0.00    -0.015 C 
ATOM     31  C   UNL     1      -0.619   3.593  -3.095  0.00  0.00    -0.003 C 
ATOM     32  C   UNL     1      -1.541   3.663  -1.875  0.00  0.00    -0.019 C 
ATOM     33  C   UNL     1      -0.875   2.947  -0.697  0.00  0.00    -0.078 C 
ATOM     34  N   UNL     1      -0.617   1.547  -1.058  0.00  0.00    +0.382 N 
ATOM     35  H   UNL     1      -1.574   1.097  -1.361  0.00  0.00    -0.081 HD
BRANCH  29  37
ATOM     36  C   UNL     1       1.637  -0.117  -3.612  0.00  0.00    +0.002 C 
ATOM     37  C   UNL     1       0.579  -0.019  -2.511  0.00  0.00    -0.019 C 
ENDBRANCH  29  37
ENDBRANCH  28  34
ENDBRANCH  27  28
ENDBRANCH  26  27
ENDBRANCH   1  26
TORSDOF 7
