REMARK  Name = ZINC50053473
REMARK  6 active torsions:
REMARK  status: ('A' for Active; 'I' for Inactive)
REMARK    1  A    between atoms: C_1  and  C_2
REMARK    2  A    between atoms: C_5  and  C_7
REMARK    3  A    between atoms: C_10  and  N_13
REMARK    4  A    between atoms: N_16  and  C_17
REMARK    5  A    between atoms: C_17  and  C_18
REMARK    6  A    between atoms: N_20  and  C_21
REMARK                            x       y       z     vdW  Elec       q    Type
REMARK                         _______ _______ _______ _____ _____    ______ ____
ROOT
ATOM      1  N   UNL     1       4.128  -6.674   0.554  0.00  0.00    -0.269 N 
ATOM      2  C   UNL     1       5.434  -6.508   0.264  0.00  0.00    +0.304 C 
ATOM      3  O   UNL     1       5.891  -5.388   0.138  0.00  0.00    -0.252 OA
ATOM      4  N   UNL     1       6.233  -7.583   0.115  0.00  0.00    -0.291 N 
ATOM      5  H   UNL     1       3.779  -7.562   0.729  0.00  0.00    +0.156 HD
ATOM      6  H   UNL     1       5.868  -8.476   0.215  0.00  0.00    +0.151 HD
ENDROOT
BRANCH   1  10
ATOM      7  C   UNL     1       1.587  -3.370   0.693  0.00  0.00    +0.019 A 
ATOM      8  C   UNL     1       2.649  -3.398  -0.212  0.00  0.00    +0.013 A 
ATOM      9  C   UNL     1       3.487  -4.491  -0.256  0.00  0.00    +0.024 A 
ATOM     10  C   UNL     1       3.276  -5.566   0.600  0.00  0.00    +0.035 A 
ATOM     11  C   UNL     1       2.218  -5.542   1.502  0.00  0.00    +0.024 A 
ATOM     12  C   UNL     1       1.380  -4.449   1.555  0.00  0.00    +0.013 A 
BRANCH   7  17
ATOM     13  C   UNL     1      -2.125  -0.251   1.974  0.00  0.00    +0.107 C 
ATOM     14  C   UNL     1      -0.919  -0.840   1.289  0.00  0.00    +0.172 A 
ATOM     15  N   UNL     1      -0.238  -0.271   0.334  0.00  0.00    -0.333 N 
ATOM     16  C   UNL     1       0.764  -1.085  -0.030  0.00  0.00    +0.132 A 
ATOM     17  C   UNL     1       0.686  -2.200   0.742  0.00  0.00    +0.153 A 
ATOM     18  O   UNL     1      -0.370  -2.030   1.568  0.00  0.00    -0.442 OA
ATOM     19  H   UNL     1      -0.426   0.599  -0.052  0.00  0.00    +0.168 HD
ENDBRANCH   7  17
ENDBRANCH   1  10
BRANCH   4  20
ATOM     20  C   UNL     1       7.652  -7.402  -0.200  0.00  0.00    +0.202 C 
BRANCH  20  21
ATOM     21  C   UNL     1       8.317  -8.750  -0.314  0.00  0.00    +0.234 C 
ATOM     22  O   UNL     1       7.669  -9.762  -0.149  0.00  0.00    -0.274 OA
ATOM     23  N   UNL     1       9.632  -8.831  -0.599  0.00  0.00    -0.284 N 
ATOM     24  H   UNL     1      10.165  -8.023  -0.660  0.00  0.00    +0.155 HD
BRANCH  23  25
ATOM     25  C   UNL     1      10.227 -10.081  -0.808  0.00  0.00    +0.034 A 
ATOM     26  C   UNL     1      11.541 -10.300  -0.415  0.00  0.00    +0.026 A 
ATOM     27  C   UNL     1      12.126 -11.533  -0.622  0.00  0.00    +0.040 A 
ATOM     28  C   UNL     1      11.404 -12.552  -1.220  0.00  0.00    +0.124 A 
ATOM     29  C   UNL     1      10.094 -12.336  -1.613  0.00  0.00    +0.040 A 
ATOM     30  C   UNL     1       9.502 -11.106  -1.402  0.00  0.00    +0.026 A 
ATOM     31  F   UNL     1      11.979 -13.758  -1.422  0.00  0.00    -0.205 F 
ENDBRANCH  23  25
ENDBRANCH  20  21
ENDBRANCH   4  20
TORSDOF 5
