REMARK  Name = ZINC48416897
REMARK  9 active torsions:
REMARK  status: ('A' for Active; 'I' for Inactive)
REMARK    1  A    between atoms: C_1  and  C_2
REMARK    2  A    between atoms: C_2  and  C_3
REMARK    3  A    between atoms: C_3  and  C_5
REMARK    4  A    between atoms: C_3  and  N_10
REMARK    5  A    between atoms: N_10  and  C_11
REMARK    6  A    between atoms: C_11  and  C_12
REMARK    7  A    between atoms: C_14  and  O_20
REMARK    8  A    between atoms: C_15  and  O_19
REMARK    9  A    between atoms: O_20  and  C_21
REMARK                            x       y       z     vdW  Elec       q    Type
REMARK                         _______ _______ _______ _____ _____    ______ ____
ROOT
ATOM      1  C   UNL     1       1.965   1.481  -1.133  0.00  0.00    -0.046 C 
ENDROOT
BRANCH   1   2
ATOM      2  C   UNL     1       3.380   1.991  -1.040  0.00  0.00    -0.060 A 
ATOM      3  C   UNL     1       3.984   2.128   0.197  0.00  0.00    +0.051 A 
ATOM      4  C   UNL     1       5.285   2.597   0.285  0.00  0.00    +0.163 A 
ATOM      5  C   UNL     1       5.982   2.928  -0.873  0.00  0.00    +0.173 A 
ATOM      6  C   UNL     1       5.371   2.788  -2.110  0.00  0.00    +0.063 A 
ATOM      7  C   UNL     1       4.074   2.315  -2.191  0.00  0.00    +0.021 A 
ATOM      8 BR   UNL     1       6.314   3.237  -3.686  0.00  0.00    -0.046 Br
BRANCH   5   9
ATOM      9  O   UNL     1       7.259   3.389  -0.792  0.00  0.00    -0.503 OA
ATOM     10  H   UNL     1       7.930   2.694  -0.824  0.00  0.00    +0.292 HD
ENDBRANCH   5   9
BRANCH   4  11
ATOM     11  O   UNL     1       5.879   2.734   1.500  0.00  0.00    -0.491 OA
ATOM     12  C   UNL     1       5.103   2.375   2.646  0.00  0.00    +0.277 C 
ENDBRANCH   4  11
ENDBRANCH   1   2
BRANCH   1  13
ATOM     13  N   UNL     1       1.979   0.016  -1.244  0.00  0.00    +0.387 N 
ATOM     14  H   UNL     1       2.498  -0.374  -0.471  0.00  0.00    -0.085 HD
ATOM     15  H   UNL     1       2.416  -0.251  -2.113  0.00  0.00    -0.085 HD
BRANCH  13  16
ATOM     16  C   UNL     1       0.600  -0.490  -1.213  0.00  0.00    -0.034 C 
BRANCH  16  17
ATOM     17  C   UNL     1      -0.137  -0.014  -2.438  0.00  0.00    -0.024 A 
ATOM     18  C   UNL     1      -1.413   0.431  -2.547  0.00  0.00    +0.009 A 
ATOM     19  C   UNL     1      -1.883   0.822  -3.787  0.00  0.00    +0.008 A 
ATOM     20  C   UNL     1      -1.054   0.749  -4.857  0.00  0.00    +0.045 A 
ATOM     21  S   UNL     1       0.445   0.118  -4.120  0.00  0.00    -0.103 S 
ENDBRANCH  16  17
BRANCH  16  23
ATOM     22  C   UNL     1       1.252  -2.504   0.115  0.00  0.00    +0.002 C 
ATOM     23  C   UNL     1       0.619  -2.020  -1.191  0.00  0.00    -0.014 C 
ENDBRANCH  16  23
ENDBRANCH  13  16
ENDBRANCH   1  13
TORSDOF 7
