REMARK  Name = ZINC20873178
REMARK  14 active torsions:
REMARK  status: ('A' for Active; 'I' for Inactive)
REMARK    1  A    between atoms: C_1  and  C_2
REMARK    2  A    between atoms: C_2  and  CA_3
REMARK    3  A    between atoms: CA_3  and  C_5
REMARK    4  A    between atoms: CA_3  and  N_7
REMARK    5  A    between atoms: C_5  and  O_6
REMARK    6  A    between atoms: N_7  and  C_8
REMARK    7  A    between atoms: C_8  and  C_9
REMARK    8  A    between atoms: C_14  and  O_15
REMARK    9  A    between atoms: O_15  and  C_16
REMARK   10  A    between atoms: C_16  and  C_17
REMARK   11  A    between atoms: N_19  and  C_20
REMARK   12  A    between atoms: C_20  and  C_21
REMARK   13  A    between atoms: C_20  and  C_22
REMARK   14  A    between atoms: C_20  and  C_23
REMARK                            x       y       z     vdW  Elec       q    Type
REMARK                         _______ _______ _______ _____ _____    ______ ____
ROOT
ATOM      1  C   UNL     1       1.569   3.406   0.583  0.00  0.00    -0.022 A 
ATOM      2  C   UNL     1       0.482   4.195   0.907  0.00  0.00    +0.020 A 
ATOM      3  C   UNL     1      -0.757   3.616   1.111  0.00  0.00    +0.018 A 
ATOM      4  C   UNL     1      -0.913   2.247   0.986  0.00  0.00    +0.019 A 
ATOM      5  C   UNL     1       0.172   1.454   0.667  0.00  0.00    +0.047 A 
ATOM      6  C   UNL     1       1.416   2.032   0.462  0.00  0.00    +0.123 A 
ATOM      7 BR   UNL     1      -2.243   4.699   1.554  0.00  0.00    -0.050 Br
ENDROOT
BRANCH   1   8
ATOM      8  C   UNL     1       2.919   4.036   0.360  0.00  0.00    -0.043 C 
BRANCH   8   9
ATOM      9  N   UNL     1       3.165   4.173  -1.082  0.00  0.00    +0.385 N 
ATOM     10  H1  UNL     1       2.318   4.709  -1.534  0.00  0.00    -0.085 HD
ATOM     11  H2  UNL     1       3.241   3.168  -1.523  0.00  0.00    -0.085 HD
BRANCH   9  12
ATOM     12  CA  UNL     1       4.407   4.915  -1.336  0.00  0.00    -0.046 C 
BRANCH  12  14
ATOM     13  C   UNL     1       5.397   3.030  -2.643  0.00  0.00    +0.002 C 
ATOM     14  C   UNL     1       4.979   4.500  -2.693  0.00  0.00    -0.017 C 
ENDBRANCH  12  14
BRANCH  12  15
ATOM     15  C   UNL     1       4.111   6.416  -1.345  0.00  0.00    +0.140 C 
BRANCH  15  16
ATOM     16  O   UNL     1       3.253   6.727  -2.444  0.00  0.00    -0.397 OA
ATOM     17  H   UNL     1       2.929   7.764  -2.614  0.00  0.00    +0.209 HD
ENDBRANCH  15  16
ENDBRANCH  12  15
ENDBRANCH   9  12
ENDBRANCH   8   9
ENDBRANCH   1   8
BRANCH   6  18
ATOM     18  O   UNL     1       2.484   1.254   0.142  0.00  0.00    -0.483 OA
BRANCH  18  19
ATOM     19  C   UNL     1       2.253  -0.152   0.035  0.00  0.00    +0.324 C 
BRANCH  19  20
ATOM     20  C   UNL     1       3.541  -0.847  -0.324  0.00  0.00    +0.251 C 
ATOM     21  O   UNL     1       4.557  -0.201  -0.472  0.00  0.00    -0.272 OA
ATOM     22  N   UNL     1       3.564  -2.185  -0.479  0.00  0.00    -0.308 N 
ATOM     23  H   UNL     1       2.643  -2.771  -0.344  0.00  0.00    +0.149 HD
BRANCH  22  24
ATOM     24  C   UNL     1       4.817  -2.861  -0.827  0.00  0.00    +0.026 C 
ATOM     25  C   UNL     1       5.859  -2.597   0.262  0.00  0.00    +0.031 C 
ATOM     26  C   UNL     1       4.570  -4.366  -0.943  0.00  0.00    +0.031 C 
ATOM     27  C   UNL     1       5.331  -2.324  -2.165  0.00  0.00    +0.031 C 
ENDBRANCH  22  24
ENDBRANCH  19  20
ENDBRANCH  18  19
ENDBRANCH   6  18
TORSDOF 10
