REMARK  Name = ZINC15524119
REMARK  7 active torsions:
REMARK  status: ('A' for Active; 'I' for Inactive)
REMARK    1  A    between atoms: C_1  and  C_2
REMARK    2  A    between atoms: C_2  and  C_4
REMARK    3  A    between atoms: C_2  and  N_17
REMARK    4  A    between atoms: N_6  and  C_7
REMARK    5  A    between atoms: C_10  and  S_13
REMARK    6  A    between atoms: S_13  and  N_16
REMARK    7  A    between atoms: C_27  and  C_30
REMARK                            x       y       z     vdW  Elec       q    Type
REMARK                         _______ _______ _______ _____ _____    ______ ____
ROOT
ATOM      1  C   UNL     1       0.455  -0.302  -1.327  0.00  0.00    -0.004 C 
ATOM      2  C   UNL     1      -0.124   0.144   0.017  0.00  0.00    +0.016 C 
ENDROOT
BRANCH   2   3
ATOM      3  N   UNL     1      -1.546  -0.218   0.082  0.00  0.00    +0.388 N 
ATOM      4  C   UNL     1      -1.646  -1.670   0.218  0.00  0.00    -0.076 C 
ATOM      5  C   UNL     1      -2.906  -2.014   0.980  0.00  0.00    +0.000 C 
ATOM      6  C   UNL     1      -4.050  -2.282  -0.015  0.00  0.00    +0.104 C 
ATOM      7  N   UNL     1      -4.007  -1.329  -1.143  0.00  0.00    -0.317 N 
ATOM      8  C   UNL     1      -3.721   0.079  -0.958  0.00  0.00    +0.088 C 
ATOM      9  C   UNL     1      -2.196   0.320  -1.050  0.00  0.00    -0.059 C 
ATOM     10  C   UNL     1      -4.249  -1.800  -2.428  0.00  0.00    +0.121 A 
ATOM     11  C   UNL     1      -4.735  -3.091  -2.609  0.00  0.00    +0.044 A 
ATOM     12  C   UNL     1      -4.972  -3.547  -3.893  0.00  0.00    +0.017 A 
ATOM     13  C   UNL     1      -4.714  -2.694  -4.957  0.00  0.00    +0.073 A 
ATOM     14  C   UNL     1      -4.233  -1.425  -4.705  0.00  0.00    +0.125 A 
ATOM     15  N   UNL     1      -4.021  -1.015  -3.469  0.00  0.00    -0.240 NA
ATOM     16  H   UNL     1      -1.943   0.204   0.908  0.00  0.00    -0.081 HD
BRANCH  13  17
ATOM     17  C   UNL     1      -4.957  -3.148  -6.373  0.00  0.00    +0.419 C 
ATOM     18  F   UNL     1      -6.268  -2.833  -6.746  0.00  0.00    -0.166 F 
ATOM     19  F   UNL     1      -4.061  -2.501  -7.231  0.00  0.00    -0.166 F 
ATOM     20  F   UNL     1      -4.768  -4.532  -6.458  0.00  0.00    -0.166 F 
ENDBRANCH  13  17
ENDBRANCH   2   3
BRANCH   2  21
ATOM     21  C   UNL     1       0.020   1.638   0.154  0.00  0.00    +0.203 C 
ATOM     22  O   UNL     1      -0.958   2.326   0.358  0.00  0.00    -0.277 OA
ATOM     23  N   UNL     1       1.237   2.210   0.051  0.00  0.00    -0.287 N 
ATOM     24  H   UNL     1       2.027   1.655  -0.043  0.00  0.00    +0.155 HD
BRANCH  23  25
ATOM     25  C   UNL     1       1.359   3.603   0.080  0.00  0.00    +0.033 A 
ATOM     26  C   UNL     1       2.536   4.189   0.527  0.00  0.00    +0.025 A 
ATOM     27  C   UNL     1       2.654   5.565   0.555  0.00  0.00    +0.030 A 
ATOM     28  C   UNL     1       1.602   6.359   0.138  0.00  0.00    +0.105 A 
ATOM     29  C   UNL     1       0.428   5.779  -0.307  0.00  0.00    +0.030 A 
ATOM     30  C   UNL     1       0.306   4.404  -0.343  0.00  0.00    +0.025 A 
BRANCH  28  31
ATOM     31  S   UNL     1       1.756   8.114   0.175  0.00  0.00    +0.056 S 
ATOM     32  O   UNL     1       0.437   8.636   0.248  0.00  0.00    -0.153 OA
ATOM     33  O   UNL     1       2.750   8.414   1.145  0.00  0.00    -0.153 OA
BRANCH  31  34
ATOM     34  N   UNL     1       2.369   8.582  -1.291  0.00  0.00    -0.204 NA
ATOM     35  H   UNL     1       2.568   7.917  -1.968  0.00  0.00    +0.144 HD
ATOM     36  H   UNL     1       2.530   9.522  -1.472  0.00  0.00    +0.144 HD
ENDBRANCH  31  34
ENDBRANCH  28  31
ENDBRANCH  23  25
ENDBRANCH   2  21
TORSDOF 6
