REMARK  Name = ZINC15016652
REMARK  8 active torsions:
REMARK  status: ('A' for Active; 'I' for Inactive)
REMARK    1  A    between atoms: C_1  and  C_2
REMARK    2  A    between atoms: N_7  and  C_8
REMARK    3  A    between atoms: C_8  and  C_10
REMARK    4  A    between atoms: C_8  and  C_18
REMARK    5  A    between atoms: C_13  and  S_16
REMARK    6  A    between atoms: S_16  and  C_17
REMARK    7  A    between atoms: C_24  and  C_29
REMARK    8  A    between atoms: C_27  and  O_28
REMARK                            x       y       z     vdW  Elec       q    Type
REMARK                         _______ _______ _______ _____ _____    ______ ____
ROOT
ATOM      1  C   UNL     1       1.361  -2.216  -0.036  0.00  0.00    +0.136 C 
ENDROOT
BRANCH   1   2
ATOM      2  C   UNL     1       1.606  -0.744   0.175  0.00  0.00    +0.021 A 
ATOM      3  C   UNL     1       2.905  -0.248   0.106  0.00  0.00    +0.010 A 
ATOM      4  C   UNL     1       3.160   1.076   0.292  0.00  0.00    +0.010 A 
ATOM      5  C   UNL     1       2.100   1.959   0.558  0.00  0.00    +0.004 A 
ATOM      6  C   UNL     1       2.324   3.334   0.755  0.00  0.00    +0.012 A 
ATOM      7  C   UNL     1       1.246   4.133   1.010  0.00  0.00    +0.023 A 
ATOM      8  C   UNL     1      -0.031   3.578   1.068  0.00  0.00    +0.039 A 
ATOM      9  N   UNL     1      -0.236   2.297   0.878  0.00  0.00    -0.248 NA
ATOM     10  C   UNL     1       0.776   1.461   0.630  0.00  0.00    +0.113 A 
ATOM     11  C   UNL     1       0.550   0.083   0.432  0.00  0.00    +0.148 A 
ATOM     12  C   UNL     1      -1.209   4.476   1.350  0.00  0.00    +0.065 C 
BRANCH  11  13
ATOM     13  O   UNL     1      -0.711  -0.419   0.497  0.00  0.00    -0.504 OA
ATOM     14  H   UNL     1      -1.177  -0.423  -0.351  0.00  0.00    +0.292 HD
ENDBRANCH  11  13
ENDBRANCH   1   2
BRANCH   1  21
ATOM     15  C   UNL     1       1.117  -2.877   5.042  0.00  0.00    +0.044 C 
ATOM     16  C   UNL     1       2.062  -3.316   3.953  0.00  0.00    -0.046 A 
ATOM     17  C   UNL     1       3.157  -4.119   4.244  0.00  0.00    +0.021 A 
ATOM     18  C   UNL     1       4.003  -4.504   3.224  0.00  0.00    +0.084 A 
ATOM     19  C   UNL     1       2.752  -3.352   1.664  0.00  0.00    +0.097 A 
ATOM     20  C   UNL     1       1.858  -2.927   2.642  0.00  0.00    +0.045 A 
ATOM     21  N   UNL     1       2.559  -2.970   0.341  0.00  0.00    -0.320 N 
ATOM     22  H   UNL     1       3.218  -3.201  -0.332  0.00  0.00    +0.148 HD
ATOM     23  N   UNL     1       3.830  -4.146   1.924  0.00  0.00    -0.350 N 
ATOM     24  H   UNL     1       4.472  -4.455   1.183  0.00  0.00    +0.166 HD
ENDBRANCH   1  21
BRANCH   1  25
ATOM     25  C   UNL     1       1.044  -2.470  -1.488  0.00  0.00    -0.023 A 
ATOM     26  C   UNL     1       2.057  -2.442  -2.429  0.00  0.00    +0.007 A 
ATOM     27  C   UNL     1       1.772  -2.679  -3.759  0.00  0.00    +0.015 A 
ATOM     28  C   UNL     1       0.463  -2.934  -4.153  0.00  0.00    +0.008 A 
ATOM     29  C   UNL     1      -0.552  -2.956  -3.204  0.00  0.00    +0.015 A 
ATOM     30  C   UNL     1      -0.259  -2.724  -1.875  0.00  0.00    +0.007 A 
BRANCH  28  31
ATOM     31  S   UNL     1       0.093  -3.229  -5.850  0.00  0.00    -0.129 S 
ATOM     32  C   UNL     1       1.702  -3.100  -6.679  0.00  0.00    +0.090 C 
ENDBRANCH  28  31
ENDBRANCH   1  25
TORSDOF 5
