REMARK  Name = ZINC35576972
REMARK  5 active torsions:
REMARK  status: ('A' for Active; 'I' for Inactive)
REMARK    1  A    between atoms: C_1  and  O_2
REMARK    2  A    between atoms: O_2  and  C_3
REMARK    3  A    between atoms: C_6  and  N_9
REMARK    4  A    between atoms: C_10  and  N_31
REMARK    5  A    between atoms: C_12  and  C_24
REMARK                            x       y       z     vdW  Elec       q    Type
REMARK                         _______ _______ _______ _____ _____    ______ ____
ROOT
ATOM      1  N   UNL     1       2.327  -2.378   4.555  0.00  0.00    -0.216 N 
ATOM      2  C   UNL     1       2.125  -3.672   4.871  0.00  0.00    +0.131 A 
ATOM      3  C   UNL     1       3.206  -4.088   5.639  0.00  0.00    +0.086 A 
ATOM      4  C   UNL     1       3.597  -5.291   6.269  0.00  0.00    +0.089 A 
ATOM      5  N   UNL     1       4.742  -5.306   6.940  0.00  0.00    -0.214 NA
ATOM      6  C   UNL     1       5.521  -4.232   7.033  0.00  0.00    +0.220 A 
ATOM      7  N   UNL     1       5.234  -3.073   6.477  0.00  0.00    -0.193 NA
ATOM      8  C   UNL     1       4.100  -2.922   5.767  0.00  0.00    +0.189 A 
ATOM      9  N   UNL     1       3.537  -1.937   5.103  0.00  0.00    -0.144 NA
ATOM     10  N   UNL     1       6.698  -4.339   7.752  0.00  0.00    -0.303 N 
ATOM     11  C   UNL     1       7.081  -5.607   8.392  0.00  0.00    +0.089 C 
ATOM     12  C   UNL     1       8.523  -5.937   7.992  0.00  0.00    -0.063 C 
ATOM     13  N   UNL     1       9.394  -4.803   8.325  0.00  0.00    +0.381 N 
ATOM     14  C   UNL     1       9.019  -3.632   7.522  0.00  0.00    -0.063 C 
ATOM     15  C   UNL     1       7.605  -3.189   7.894  0.00  0.00    +0.089 C 
ATOM     16  H   UNL     1       9.297  -4.582   9.305  0.00  0.00    -0.086 HD
ATOM     17  H   UNL     1      10.353  -5.049   8.131  0.00  0.00    -0.086 HD
ENDROOT
BRANCH   4  18
ATOM     18  C   UNL     1       2.751  -6.502   6.184  0.00  0.00    +0.001 A 
ATOM     19  C   UNL     1       2.222  -6.902   4.956  0.00  0.00    +0.013 A 
ATOM     20  C   UNL     1       1.434  -8.031   4.882  0.00  0.00    +0.039 A 
ATOM     21  C   UNL     1       1.167  -8.768   6.025  0.00  0.00    +0.123 A 
ATOM     22  C   UNL     1       1.690  -8.376   7.247  0.00  0.00    +0.039 A 
ATOM     23  C   UNL     1       2.484  -7.252   7.331  0.00  0.00    +0.013 A 
ATOM     24  F   UNL     1       0.394  -9.874   5.948  0.00  0.00    -0.205 F 
ENDBRANCH   4  18
BRANCH   1  28
ATOM     25  C   UNL     1      -0.261  -0.040   2.268  0.00  0.00    +0.120 A 
ATOM     26  C   UNL     1       0.450   0.532   3.314  0.00  0.00    +0.048 A 
ATOM     27  C   UNL     1       1.306  -0.241   4.071  0.00  0.00    +0.031 A 
ATOM     28  C   UNL     1       1.457  -1.593   3.787  0.00  0.00    +0.068 A 
ATOM     29  C   UNL     1       0.746  -2.164   2.740  0.00  0.00    +0.031 A 
ATOM     30  C   UNL     1      -0.115  -1.391   1.987  0.00  0.00    +0.048 A 
BRANCH  25  32
ATOM     31  C   UNL     1      -1.206   2.105   1.869  0.00  0.00    +0.277 C 
ATOM     32  O   UNL     1      -1.105   0.722   1.523  0.00  0.00    -0.495 OA
ENDBRANCH  25  32
ENDBRANCH   1  28
BRANCH   2  33
ATOM     33  N   UNL     1       1.040  -4.445   4.501  0.00  0.00    -0.342 N 
ATOM     34  H   UNL     1       0.418  -4.118   3.832  0.00  0.00    +0.144 HD
ATOM     35  H   UNL     1       0.901  -5.313   4.910  0.00  0.00    +0.144 HD
ENDBRANCH   2  33
TORSDOF 4
