REMARK  Name = ZINC12603044
REMARK  8 active torsions:
REMARK  status: ('A' for Active; 'I' for Inactive)
REMARK    1  A    between atoms: C_1  and  C_2
REMARK    2  A    between atoms: C_2  and  C_3
REMARK    3  A    between atoms: C_2  and  N_4
REMARK    4  A    between atoms: N_4  and  C_5
REMARK    5  A    between atoms: C_8  and  C_31
REMARK    6  A    between atoms: C_11  and  C_27
REMARK    7  A    between atoms: C_27  and  O_29
REMARK    8  A    between atoms: O_29  and  C_30
REMARK                            x       y       z     vdW  Elec       q    Type
REMARK                         _______ _______ _______ _____ _____    ______ ____
ROOT
ATOM      1  C   UNL     1      -0.931  -2.473   0.560  0.00  0.00    -0.068 C 
ATOM      2  C   UNL     1      -0.134  -2.922  -0.667  0.00  0.00    +0.008 C 
ATOM      3  C   UNL     1      -0.457  -4.386  -0.978  0.00  0.00    +0.087 C 
ATOM      4  N   UNL     1      -1.897  -4.524  -1.222  0.00  0.00    -0.274 NA
ATOM      5  C   UNL     1      -2.242  -5.866  -1.703  0.00  0.00    +0.172 C 
ATOM      6  C   UNL     1      -3.652  -5.844  -2.312  0.00  0.00    +0.068 C 
ATOM      7  C   UNL     1      -4.572  -5.146  -1.342  0.00  0.00    -0.016 A 
ATOM      8  C   UNL     1      -6.017  -5.134  -1.297  0.00  0.00    +0.003 A 
ATOM      9  C   UNL     1      -6.998  -5.733  -2.094  0.00  0.00    +0.010 A 
ATOM     10  C   UNL     1      -8.306  -5.499  -1.749  0.00  0.00    +0.001 A 
ATOM     11  C   UNL     1      -8.652  -4.710  -0.665  0.00  0.00    +0.002 A 
ATOM     12  C   UNL     1      -7.703  -4.105   0.140  0.00  0.00    +0.026 A 
ATOM     13  C   UNL     1      -6.366  -4.324  -0.185  0.00  0.00    +0.047 A 
ATOM     14  N   UNL     1      -5.203  -3.890   0.384  0.00  0.00    -0.356 N 
ATOM     15  H   UNL     1      -5.144  -3.317   1.164  0.00  0.00    +0.166 HD
ATOM     16  C   UNL     1      -4.134  -4.386  -0.311  0.00  0.00    +0.038 A 
ATOM     17  C   UNL     1      -2.670  -4.159  -0.026  0.00  0.00    +0.103 C 
ATOM     18  C   UNL     1      -2.426  -2.685   0.302  0.00  0.00    +0.009 C 
ENDROOT
BRANCH   3  19
ATOM     19  C   UNL     1      -0.059  -5.248   0.193  0.00  0.00    -0.030 A 
ATOM     20  C   UNL     1      -0.337  -6.602   0.180  0.00  0.00    +0.008 A 
ATOM     21  C   UNL     1       0.028  -7.393   1.253  0.00  0.00    +0.038 A 
ATOM     22  C   UNL     1       0.671  -6.829   2.342  0.00  0.00    +0.123 A 
ATOM     23  C   UNL     1       0.948  -5.472   2.354  0.00  0.00    +0.038 A 
ATOM     24  C   UNL     1       0.587  -4.684   1.278  0.00  0.00    +0.008 A 
ATOM     25  F   UNL     1       1.027  -7.601   3.391  0.00  0.00    -0.205 F 
ENDBRANCH   3  19
BRANCH   1  26
ATOM     26  N   UNL     1      -0.675  -1.049   0.817  0.00  0.00    +0.383 N 
ATOM     27  H   UNL     1      -1.278  -0.727   1.558  0.00  0.00    -0.085 HD
ATOM     28  H   UNL     1      -0.859  -0.518  -0.022  0.00  0.00    -0.085 HD
BRANCH  26  30
ATOM     29  C   UNL     1       1.041   0.627   1.310  0.00  0.00    -0.014 C 
ATOM     30  C   UNL     1       0.728  -0.867   1.213  0.00  0.00    -0.078 C 
ATOM     31  C   UNL     1       0.963  -1.527   2.574  0.00  0.00    -0.014 C 
ENDBRANCH  26  30
ENDBRANCH   1  26
BRANCH   5  32
ATOM     32  C   UNL     1      -1.249  -6.294  -2.753  0.00  0.00    +0.325 C 
ATOM     33  O   UNL     1      -0.924  -7.454  -2.840  0.00  0.00    -0.249 OA
BRANCH  32  34
ATOM     34  O   UNL     1      -0.725  -5.386  -3.591  0.00  0.00    -0.467 OA
ATOM     35  C   UNL     1       0.210  -5.862  -4.561  0.00  0.00    +0.280 C 
ENDBRANCH  32  34
ENDBRANCH   5  32
TORSDOF 5
