REMARK  Name = ZINC23038424
REMARK  12 active torsions:
REMARK  status: ('A' for Active; 'I' for Inactive)
REMARK    1  A    between atoms: C_1  and  C_2
REMARK    2  A    between atoms: C_6  and  N_8
REMARK    3  A    between atoms: C_9  and  C_11
REMARK    4  A    between atoms: C_16  and  N_17
REMARK    5  A    between atoms: C_18  and  C_20
REMARK    6  A    between atoms: C_20  and  N_21
REMARK    7  A    between atoms: N_21  and  C_22
REMARK    8  A    between atoms: N_21  and  C_23
REMARK    9  A    between atoms: C_23  and  C_24
REMARK   10  A    between atoms: N_26  and  C_27
REMARK   11  A    between atoms: C_31  and  O_33
REMARK   12  A    between atoms: O_33  and  C_34
REMARK                            x       y       z     vdW  Elec       q    Type
REMARK                         _______ _______ _______ _____ _____    ______ ____
ROOT
ATOM      1  N   UNL     1       3.453   7.418   0.140  0.00  0.00    -0.286 N 
ATOM      2  C   UNL     1       4.568   8.168   0.034  0.00  0.00    +0.201 C 
ATOM      3  O   UNL     1       4.497   9.375   0.120  0.00  0.00    -0.278 OA
ATOM      4  H   UNL     1       3.525   6.320   0.138  0.00  0.00    +0.155 HD
ENDROOT
BRANCH   1  10
ATOM      5  C   UNL     1       1.079   7.453  -0.347  0.00  0.00    +0.058 A 
ATOM      6  C   UNL     1      -0.163   8.083  -0.233  0.00  0.00    +0.015 A 
ATOM      7  C   UNL     1      -0.273   9.262   0.472  0.00  0.00    +0.001 A 
ATOM      8  C   UNL     1       0.844   9.832   1.062  0.00  0.00    +0.002 A 
ATOM      9  C   UNL     1       2.078   9.224   0.953  0.00  0.00    +0.024 A 
ATOM     10  C   UNL     1       2.208   8.033   0.251  0.00  0.00    +0.046 A 
BRANCH   5  12
ATOM     11  N   UNL     1       0.139   5.687  -1.753  0.00  0.00    -0.281 N 
ATOM     12  C   UNL     1       1.203   6.189  -1.096  0.00  0.00    +0.250 C 
ATOM     13  O   UNL     1       2.266   5.599  -1.122  0.00  0.00    -0.270 OA
ATOM     14  H   UNL     1      -0.801   6.258  -1.794  0.00  0.00    +0.155 HD
BRANCH  11  20
ATOM     15  C   UNL     1      -1.980   1.455  -3.080  0.00  0.00    +0.044 C 
ATOM     16  C   UNL     1      -0.783   2.370  -3.040  0.00  0.00    -0.049 A 
ATOM     17  C   UNL     1       0.406   1.978  -3.628  0.00  0.00    +0.003 A 
ATOM     18  C   UNL     1       1.504   2.816  -3.599  0.00  0.00    +0.002 A 
ATOM     19  C   UNL     1       1.419   4.047  -2.978  0.00  0.00    +0.023 A 
ATOM     20  C   UNL     1       0.228   4.442  -2.382  0.00  0.00    +0.034 A 
ATOM     21  C   UNL     1      -0.874   3.596  -2.413  0.00  0.00    +0.026 A 
ENDBRANCH  11  20
ENDBRANCH   5  12
ENDBRANCH   1  10
BRANCH   2  22
ATOM     22  C   UNL     1       5.902   7.505  -0.191  0.00  0.00    +0.019 C 
BRANCH  22  23
ATOM     23  N   UNL     1       6.951   8.531  -0.269  0.00  0.00    +0.389 N 
ATOM     24  C   UNL     1       6.775   9.373  -1.460  0.00  0.00    -0.095 C 
ATOM     25  H   UNL     1       6.861   9.175   0.618  0.00  0.00    -0.081 HD
BRANCH  23  26
ATOM     26  C   UNL     1       8.287   7.920  -0.250  0.00  0.00    +0.019 C 
BRANCH  26  27
ATOM     27  C   UNL     1       9.329   8.996  -0.085  0.00  0.00    +0.201 C 
ATOM     28  O   UNL     1       8.992  10.158   0.008  0.00  0.00    -0.278 OA
ATOM     29  N   UNL     1      10.636   8.668  -0.040  0.00  0.00    -0.287 N 
ATOM     30  H   UNL     1      10.948   7.628  -0.212  0.00  0.00    +0.155 HD
BRANCH  29  31
ATOM     31  C   UNL     1      11.595   9.652   0.226  0.00  0.00    +0.037 A 
ATOM     32  C   UNL     1      12.844   9.587  -0.379  0.00  0.00    +0.023 A 
ATOM     33  C   UNL     1      13.789  10.560  -0.120  0.00  0.00    +0.005 A 
ATOM     34  C   UNL     1      13.499  11.595   0.748  0.00  0.00    +0.046 A 
ATOM     35  C   UNL     1      12.255  11.662   1.360  0.00  0.00    +0.122 A 
ATOM     36  C   UNL     1      11.302  10.690   1.099  0.00  0.00    +0.069 A 
BRANCH  35  37
ATOM     37  O   UNL     1      11.972  12.680   2.215  0.00  0.00    -0.495 OA
ATOM     38  C   UNL     1      13.001  13.646   2.437  0.00  0.00    +0.277 C 
ENDBRANCH  35  37
ENDBRANCH  29  31
ENDBRANCH  26  27
ENDBRANCH  23  26
ENDBRANCH  22  23
ENDBRANCH   2  22
TORSDOF 9
