REMARK  Name = ZINC07696492
REMARK  12 active torsions:
REMARK  status: ('A' for Active; 'I' for Inactive)
REMARK    1  A    between atoms: C_1  and  C_2
REMARK    2  A    between atoms: C_2  and  C_3
REMARK    3  A    between atoms: C_3  and  N_57
REMARK    4  A    between atoms: C_4  and  C_5
REMARK    5  A    between atoms: C_4  and  N_57
REMARK    6  A    between atoms: N_7  and  C_8
REMARK    7  A    between atoms: C_12  and  C_14
REMARK    8  A    between atoms: N_16  and  C_17
REMARK    9  A    between atoms: C_18  and  C_19
REMARK   10  A    between atoms: C_18  and  N_57
REMARK   11  A    between atoms: N_21  and  C_22
REMARK   12  A    between atoms: C_27  and  C_28
REMARK                            x       y       z     vdW  Elec       q    Type
REMARK                         _______ _______ _______ _____ _____    ______ ____
ROOT
ATOM      1  N   UNL     1       1.872   0.949   0.202  0.00  0.00    +0.391 N 
ATOM      2  H   UNL     1       1.729   0.239  -0.526  0.00  0.00    -0.080 HD
ENDROOT
BRANCH   1   3
ATOM      3  C   UNL     1       1.759   0.307   1.528  0.00  0.00    -0.078 C 
BRANCH   3   5
ATOM      4  C   UNL     1       0.272  -1.077   2.983  0.00  0.00    +0.002 C 
ATOM      5  C   UNL     1       0.451  -0.485   1.583  0.00  0.00    -0.022 C 
ENDBRANCH   3   5
ENDBRANCH   1   3
BRANCH   1   6
ATOM      6  C   UNL     1       3.217   1.539   0.039  0.00  0.00    +0.020 C 
BRANCH   6   7
ATOM      7  C   UNL     1       4.231   0.426  -0.031  0.00  0.00    +0.201 C 
ATOM      8  O   UNL     1       3.871  -0.729   0.062  0.00  0.00    -0.278 OA
ATOM      9  N   UNL     1       5.537   0.714  -0.197  0.00  0.00    -0.287 N 
ATOM     10  H   UNL     1       5.835   1.637  -0.190  0.00  0.00    +0.155 HD
BRANCH   9  11
ATOM     11  C   UNL     1       6.463  -0.319  -0.380  0.00  0.00    +0.034 A 
ATOM     12  C   UNL     1       7.749  -0.199   0.135  0.00  0.00    +0.023 A 
ATOM     13  C   UNL     1       8.666  -1.218  -0.037  0.00  0.00    +0.003 A 
ATOM     14  C   UNL     1       8.314  -2.358  -0.732  0.00  0.00    +0.013 A 
ATOM     15  C   UNL     1       7.028  -2.487  -1.257  0.00  0.00    +0.038 A 
ATOM     16  C   UNL     1       6.101  -1.460  -1.078  0.00  0.00    +0.036 A 
BRANCH  15  17
ATOM     17  C   UNL     1       6.649  -3.707  -2.002  0.00  0.00    +0.244 C 
ATOM     18  O   UNL     1       5.528  -3.816  -2.459  0.00  0.00    -0.270 OA
ATOM     19  N   UNL     1       7.546  -4.697  -2.174  0.00  0.00    -0.314 N 
ATOM     20  C   UNL     1       7.171  -5.906  -2.911  0.00  0.00    +0.128 C 
ATOM     21  H   UNL     1       8.441  -4.610  -1.809  0.00  0.00    +0.149 HD
ENDBRANCH  15  17
ENDBRANCH   9  11
ENDBRANCH   6   7
ENDBRANCH   1   6
BRANCH   1  22
ATOM     22  C   UNL     1       0.840   1.997   0.059  0.00  0.00    +0.020 C 
BRANCH  22  23
ATOM     23  C   UNL     1       0.671   2.312  -1.406  0.00  0.00    +0.201 C 
ATOM     24  O   UNL     1       1.406   1.801  -2.224  0.00  0.00    -0.278 OA
ATOM     25  N   UNL     1      -0.293   3.165  -1.805  0.00  0.00    -0.287 N 
ATOM     26  H   UNL     1      -0.846   3.614  -1.147  0.00  0.00    +0.155 HD
BRANCH  25  27
ATOM     27  C   UNL     1      -0.496   3.403  -3.169  0.00  0.00    +0.036 A 
ATOM     28  C   UNL     1       0.548   3.230  -4.068  0.00  0.00    +0.023 A 
ATOM     29  C   UNL     1       0.344   3.461  -5.414  0.00  0.00    +0.002 A 
ATOM     30  C   UNL     1      -0.896   3.875  -5.865  0.00  0.00    +0.000 A 
ATOM     31  C   UNL     1      -1.937   4.053  -4.972  0.00  0.00    +0.005 A 
ATOM     32  C   UNL     1      -1.740   3.818  -3.625  0.00  0.00    -0.029 A 
ATOM     33  C   UNL     1      -2.874   4.014  -2.652  0.00  0.00    +0.045 C 
ENDBRANCH  25  27
ENDBRANCH  22  23
ENDBRANCH   1  22
TORSDOF 9
