REMARK  Name = ZINC08914670
REMARK  8 active torsions:
REMARK  status: ('A' for Active; 'I' for Inactive)
REMARK    1  A    between atoms: C_1  and  C_2
REMARK    2  A    between atoms: C_2  and  C_3
REMARK    3  A    between atoms: C_3  and  C_5
REMARK    4  A    between atoms: C_3  and  C_6
REMARK    5  A    between atoms: C_6  and  C_8
REMARK    6  A    between atoms: C_6  and  N_20
REMARK    7  A    between atoms: N_10  and  C_11
REMARK    8  A    between atoms: C_21  and  C_23
REMARK                            x       y       z     vdW  Elec       q    Type
REMARK                         _______ _______ _______ _____ _____    ______ ____
ROOT
ATOM      1  C   UNL     1      -4.124  -0.795   0.419  0.00  0.00    +0.162 C 
ENDROOT
BRANCH   1   2
ATOM      2  C   UNL     1      -4.583  -1.288   1.768  0.00  0.00    +0.238 C 
ATOM      3  O   UNL     1      -3.974  -0.972   2.768  0.00  0.00    -0.273 OA
ATOM      4  N   UNL     1      -5.670  -2.079   1.862  0.00  0.00    -0.284 N 
ATOM      5  H   UNL     1      -6.116  -2.388   1.058  0.00  0.00    +0.155 HD
BRANCH   4   6
ATOM      6  C   UNL     1      -6.155  -2.456   3.121  0.00  0.00    +0.037 A 
ATOM      7  C   UNL     1      -5.268  -2.719   4.157  0.00  0.00    +0.027 A 
ATOM      8  C   UNL     1      -5.745  -3.086   5.400  0.00  0.00    +0.051 A 
ATOM      9  C   UNL     1      -7.109  -3.203   5.615  0.00  0.00    +0.166 A 
ATOM     10  C   UNL     1      -8.001  -2.945   4.577  0.00  0.00    +0.168 A 
ATOM     11  C   UNL     1      -7.522  -2.572   3.332  0.00  0.00    +0.072 A 
ATOM     12  O   UNL     1      -9.272  -3.127   5.039  0.00  0.00    -0.453 OA
ATOM     13  C   UNL     1      -9.135  -3.894   6.250  0.00  0.00    +0.466 C 
ATOM     14  O   UNL     1      -7.822  -3.547   6.728  0.00  0.00    -0.453 OA
ENDBRANCH   4   6
ENDBRANCH   1   2
BRANCH   1  15
ATOM     15  N   UNL     1      -2.775  -0.236   0.537  0.00  0.00    -0.305 N 
ATOM     16  C   UNL     1      -1.965  -0.198  -0.540  0.00  0.00    +0.200 C 
ATOM     17  O   UNL     1      -2.353  -0.627  -1.605  0.00  0.00    -0.278 OA
ATOM     18  H   UNL     1      -2.465   0.108   1.389  0.00  0.00    +0.149 HD
BRANCH  16  19
ATOM     19  C   UNL     1      -0.578   0.378  -0.419  0.00  0.00    +0.021 C 
ATOM     20  C   UNL     1      -0.649   1.904  -0.469  0.00  0.00    +0.028 C 
ATOM     21  C   UNL     1       0.739   2.480  -0.593  0.00  0.00    -0.047 A 
ATOM     22  C   UNL     1       0.926   3.823  -0.302  0.00  0.00    +0.004 A 
ATOM     23  C   UNL     1       2.180   4.391  -0.407  0.00  0.00    +0.000 A 
ATOM     24  C   UNL     1       3.255   3.617  -0.803  0.00  0.00    +0.000 A 
ATOM     25  C   UNL     1       3.070   2.280  -1.090  0.00  0.00    +0.002 A 
ATOM     26  C   UNL     1       1.810   1.707  -0.985  0.00  0.00    -0.061 A 
ATOM     27  C   UNL     1       1.659   0.243  -1.306  0.00  0.00    -0.045 C 
ATOM     28  N   UNL     1       0.249  -0.091  -1.547  0.00  0.00    +0.389 N 
ATOM     29  H   UNL     1      -0.066   0.364  -2.412  0.00  0.00    -0.084 HD
ATOM     30  H   UNL     1       0.151  -1.109  -1.640  0.00  0.00    -0.084 HD
ENDBRANCH  16  19
ENDBRANCH   1  15
BRANCH   1  31
ATOM     31  C   UNL     1      -5.083   0.286  -0.082  0.00  0.00    +0.015 C 
ATOM     32  C   UNL     1      -4.972   1.522   0.814  0.00  0.00    +0.010 C 
BRANCH  31  34
ATOM     33  C   UNL     1      -4.794  -0.580  -2.408  0.00  0.00    +0.004 C 
ATOM     34  C   UNL     1      -4.720   0.664  -1.519  0.00  0.00    +0.002 C 
ENDBRANCH  31  34
ENDBRANCH   1  31
TORSDOF 6
