REMARK  Name = ZINC39934648
REMARK  10 active torsions:
REMARK  status: ('A' for Active; 'I' for Inactive)
REMARK    1  A    between atoms: C_1  and  C_2
REMARK    2  A    between atoms: C_2  and  C_3
REMARK    3  A    between atoms: C_3  and  O_4
REMARK    4  A    between atoms: O_4  and  C_5
REMARK    5  A    between atoms: C_6  and  O_25
REMARK    6  A    between atoms: C_8  and  C_12
REMARK    7  A    between atoms: C_13  and  C_14
REMARK    8  A    between atoms: C_13  and  C_16
REMARK    9  A    between atoms: O_25  and  C_26
REMARK   10  A    between atoms: C_26  and  C_27
REMARK                            x       y       z     vdW  Elec       q    Type
REMARK                         _______ _______ _______ _____ _____    ______ ____
ROOT
ATOM      1  C   UNL     1       3.330  -4.474   5.522  0.00  0.00    +0.026 C 
ATOM      2  C   UNL     1       2.956  -4.198   6.789  0.00  0.00    +0.072 C 
ENDROOT
BRANCH   2   3
ATOM      3  C   UNL     1       3.718  -4.792   7.946  0.00  0.00    +0.216 C 
ATOM      4  N   UNL     1       2.809  -5.560   8.807  0.00  0.00    -0.359 N 
ATOM      5  C   UNL     1       2.835  -5.013   9.988  0.00  0.00    +0.060 A 
ATOM      6  C   UNL     1       2.149  -5.325  11.249  0.00  0.00    +0.027 A 
ATOM      7  C   UNL     1       2.377  -4.564  12.337  0.00  0.00    +0.002 A 
ATOM      8  C   UNL     1       3.255  -3.465  12.323  0.00  0.00    +0.002 A 
ATOM      9  C   UNL     1       3.934  -3.092  11.220  0.00  0.00    +0.027 A 
ATOM     10  C   UNL     1       3.765  -3.850   9.973  0.00  0.00    +0.060 A 
ATOM     11  N   UNL     1       4.278  -3.724   8.783  0.00  0.00    -0.359 N 
ATOM     12  H   UNL     1       2.285  -6.332   8.544  0.00  0.00    +0.162 HD
ATOM     13  H   UNL     1       4.914  -3.047   8.501  0.00  0.00    +0.162 HD
ENDBRANCH   2   3
BRANCH   1  17
ATOM     14  C   UNL     1       0.919  -3.187   2.273  0.00  0.00    +0.176 A 
ATOM     15  C   UNL     1       2.308  -3.161   2.159  0.00  0.00    +0.164 A 
ATOM     16  C   UNL     1       3.096  -3.579   3.214  0.00  0.00    +0.057 A 
ATOM     17  C   UNL     1       2.496  -4.027   4.396  0.00  0.00    -0.019 A 
ATOM     18  C   UNL     1       1.102  -4.051   4.503  0.00  0.00    +0.027 A 
ATOM     19  C   UNL     1       0.323  -3.627   3.448  0.00  0.00    +0.064 A 
ATOM     20 BR   UNL     1      -1.562  -3.651   3.597  0.00  0.00    -0.046 Br
BRANCH  14  21
ATOM     21  O   UNL     1       0.146  -2.776   1.234  0.00  0.00    -0.487 OA
BRANCH  21  22
ATOM     22  C   UNL     1      -0.202  -1.391   1.193  0.00  0.00    +0.229 C 
BRANCH  22  24
ATOM     23  C   UNL     1      -1.441   0.364  -0.083  0.00  0.00    +0.007 C 
ATOM     24  C   UNL     1      -1.068  -1.119  -0.039  0.00  0.00    +0.038 C 
ENDBRANCH  22  24
ENDBRANCH  21  22
ENDBRANCH  14  21
BRANCH  15  25
ATOM     25  O   UNL     1       2.888  -2.725   1.009  0.00  0.00    -0.489 OA
BRANCH  25  26
ATOM     26  C   UNL     1       4.316  -2.725   0.961  0.00  0.00    +0.226 C 
ATOM     27  C   UNL     1       4.781  -2.206  -0.401  0.00  0.00    +0.048 C 
ENDBRANCH  25  26
ENDBRANCH  15  25
ENDBRANCH   1  17
BRANCH   2  28
ATOM     28  C   UNL     1       1.836  -3.341   7.035  0.00  0.00    +0.099 C 
ATOM     29  N   UNL     1       0.947  -2.661   7.230  0.00  0.00    -0.191 NA
ENDBRANCH   2  28
TORSDOF 8
