REMARK  Name = ZINC07587326
REMARK  5 active torsions:
REMARK  status: ('A' for Active; 'I' for Inactive)
REMARK    1  A    between atoms: C_3  and  S_23
REMARK    2  A    between atoms: C_6  and  N_7
REMARK    3  A    between atoms: C_8  and  C_10
REMARK    4  A    between atoms: C_10  and  N_11
REMARK    5  A    between atoms: S_23  and  N_26
REMARK                            x       y       z     vdW  Elec       q    Type
REMARK                         _______ _______ _______ _____ _____    ______ ____
ROOT
ATOM      1  N   UNL     1      -1.199  -0.722   0.010  0.00  0.00    -0.287 N 
ATOM      2  C   UNL     1      -1.183  -2.065  -0.099  0.00  0.00    +0.201 C 
ATOM      3  O   UNL     1      -0.125  -2.659  -0.113  0.00  0.00    -0.278 OA
ATOM      4  H   UNL     1      -2.044  -0.253   0.098  0.00  0.00    +0.155 HD
ENDROOT
BRANCH   1  10
ATOM      5  C   UNL     1       1.072  -0.453  -0.766  0.00  0.00    +0.025 A 
ATOM      6  C   UNL     1       2.256   0.259  -0.778  0.00  0.00    +0.030 A 
ATOM      7  C   UNL     1       2.376   1.416  -0.032  0.00  0.00    +0.105 A 
ATOM      8  C   UNL     1       1.312   1.866   0.729  0.00  0.00    +0.030 A 
ATOM      9  C   UNL     1       0.126   1.160   0.744  0.00  0.00    +0.025 A 
ATOM     10  C   UNL     1       0.002  -0.004  -0.004  0.00  0.00    +0.033 A 
BRANCH   7  11
ATOM     11  S   UNL     1       3.889   2.320  -0.048  0.00  0.00    +0.056 S 
ATOM     12  O   UNL     1       3.928   3.069   1.159  0.00  0.00    -0.153 OA
ATOM     13  O   UNL     1       4.909   1.398  -0.406  0.00  0.00    -0.153 OA
BRANCH  11  14
ATOM     14  N   UNL     1       3.789   3.419  -1.284  0.00  0.00    -0.204 NA
ATOM     15  H   UNL     1       4.261   4.263  -1.221  0.00  0.00    +0.144 HD
ATOM     16  H   UNL     1       3.258   3.217  -2.070  0.00  0.00    +0.144 HD
ENDBRANCH  11  14
ENDBRANCH   7  11
ENDBRANCH   1  10
BRANCH   2  17
ATOM     17  C   UNL     1      -2.478  -2.828  -0.204  0.00  0.00    +0.019 C 
BRANCH  17  18
ATOM     18  N   UNL     1      -2.191  -4.265  -0.312  0.00  0.00    +0.387 N 
ATOM     19  C   UNL     1      -1.556  -4.730   0.927  0.00  0.00    -0.078 C 
ATOM     20  C   UNL     1      -1.182  -6.208   0.790  0.00  0.00    -0.018 C 
ATOM     21  C   UNL     1      -2.449  -7.027   0.526  0.00  0.00    +0.000 C 
ATOM     22  C   UNL     1      -3.143  -6.484  -0.727  0.00  0.00    -0.025 C 
ATOM     23  C   UNL     1      -3.445  -4.997  -0.534  0.00  0.00    -0.065 C 
ATOM     24  C   UNL     1      -4.141  -4.452  -1.782  0.00  0.00    -0.015 C 
ATOM     25  C   UNL     1      -5.449  -5.212  -2.009  0.00  0.00    -0.002 C 
ATOM     26  C   UNL     1      -5.148  -6.699  -2.202  0.00  0.00    +0.000 C 
ATOM     27  C   UNL     1      -4.449  -7.247  -0.956  0.00  0.00    +0.002 C 
ATOM     28  H   UNL     1      -1.567  -4.426  -1.088  0.00  0.00    -0.081 HD
ENDBRANCH  17  18
ENDBRANCH   2  17
TORSDOF 5
