REMARK  Name = ZINC52907004
REMARK  3 active torsions:
REMARK  status: ('A' for Active; 'I' for Inactive)
REMARK    1  A    between atoms: C_3  and  O_11
REMARK    2  A    between atoms: C_4  and  C_8
REMARK    3  A    between atoms: O_11  and  C_12
REMARK                            x       y       z     vdW  Elec       q    Type
REMARK                         _______ _______ _______ _____ _____    ______ ____
ROOT
ATOM      1  C   UNL     1      -0.017   1.382   0.048  0.00  0.00    +0.005 A 
ATOM      2  C   UNL     1       1.165   2.091  -0.045  0.00  0.00    +0.047 A 
ATOM      3  C   UNL     1       2.381   1.435   0.071  0.00  0.00    +0.140 A 
ATOM      4  C   UNL     1       2.406   0.050   0.283  0.00  0.00    +0.073 A 
ATOM      5  C   UNL     1       1.203  -0.655   0.376  0.00  0.00    +0.055 A 
ATOM      6  C   UNL     1       0.002   0.014   0.258  0.00  0.00    +0.021 A 
ATOM      7 CL   UNL     1       1.220  -2.372   0.639  0.00  0.00    -0.083 Cl
ENDROOT
BRANCH   4   8
ATOM      8  C   UNL     1       3.694  -0.659   0.408  0.00  0.00    +0.099 C 
ATOM      9  N   UNL     1       4.051  -1.559  -0.508  0.00  0.00    -0.387 N 
ATOM     10  N   UNL     1       4.501  -0.399   1.437  0.00  0.00    -0.344 N 
ATOM     11  H   UNL     1       3.464  -1.748  -1.256  0.00  0.00    +0.157 HD
ATOM     12  H   UNL     1       4.242   0.256   2.103  0.00  0.00    +0.144 HD
ATOM     13  H   UNL     1       5.348  -0.865   1.519  0.00  0.00    +0.144 HD
ATOM     14  H   UNL     1       4.898  -2.025  -0.426  0.00  0.00    +0.157 HD
ENDBRANCH   4   8
BRANCH   3  15
ATOM     15  O   UNL     1       3.542   2.131  -0.022  0.00  0.00    -0.454 OA
BRANCH  15  16
ATOM     16  C   UNL     1       3.469   3.485  -0.119  0.00  0.00    +0.143 A 
ATOM     17  C   UNL     1       3.473   4.093  -1.366  0.00  0.00    +0.050 A 
ATOM     18  C   UNL     1       3.399   5.469  -1.463  0.00  0.00    +0.042 A 
ATOM     19  C   UNL     1       3.320   6.242  -0.317  0.00  0.00    +0.125 A 
ATOM     20  C   UNL     1       3.316   5.637   0.929  0.00  0.00    +0.057 A 
ATOM     21  C   UNL     1       3.383   4.260   1.029  0.00  0.00    +0.063 A 
ATOM     22 BR   UNL     1       3.369   3.434   2.730  0.00  0.00    -0.046 Br
ATOM     23  F   UNL     1       3.248   7.587  -0.414  0.00  0.00    -0.205 F 
ENDBRANCH  15  16
ENDBRANCH   3  15
TORSDOF 3
