REMARK  Name = ZINC21754551
REMARK  11 active torsions:
REMARK  status: ('A' for Active; 'I' for Inactive)
REMARK    1  A    between atoms: C_1  and  C_2
REMARK    2  A    between atoms: C_4  and  S_10
REMARK    3  A    between atoms: C_5  and  C_9
REMARK    4  A    between atoms: S_10  and  N_13
REMARK    5  A    between atoms: N_13  and  C_14
REMARK    6  A    between atoms: C_14  and  C_15
REMARK    7  A    between atoms: C_15  and  C_17
REMARK    8  A    between atoms: C_15  and  N_26
REMARK    9  A    between atoms: C_20  and  N_23
REMARK   10  A    between atoms: N_23  and  C_24
REMARK   11  A    between atoms: N_23  and  C_25
REMARK                            x       y       z     vdW  Elec       q    Type
REMARK                         _______ _______ _______ _____ _____    ______ ____
ROOT
ATOM      1  C   UNL     1      -2.774   0.786  -0.163  0.00  0.00    -0.022 C 
ENDROOT
BRANCH   1   2
ATOM      2  C   UNL     1      -1.473   1.535  -0.301  0.00  0.00    -0.060 A 
ATOM      3  C   UNL     1      -1.231   2.647   0.484  0.00  0.00    +0.004 A 
ATOM      4  C   UNL     1      -0.037   3.332   0.365  0.00  0.00    +0.023 A 
ATOM      5  C   UNL     1       0.918   2.906  -0.548  0.00  0.00    +0.029 A 
ATOM      6  C   UNL     1       0.669   1.792  -1.340  0.00  0.00    +0.023 A 
ATOM      7  C   UNL     1      -0.526   1.111  -1.216  0.00  0.00    +0.004 A 
BRANCH   5   8
ATOM      8  N   UNL     1       2.126   3.596  -0.671  0.00  0.00    -0.336 N 
ATOM      9  C   UNL     1       2.387   4.770   0.165  0.00  0.00    +0.129 C 
ATOM     10  C   UNL     1       3.133   3.145  -1.635  0.00  0.00    +0.129 C 
ENDBRANCH   5   8
ENDBRANCH   1   2
BRANCH   1  11
ATOM     11  N   UNL     1      -3.808   1.451  -0.967  0.00  0.00    +0.385 N 
ATOM     12  C   UNL     1      -3.889   2.897  -0.641  0.00  0.00    -0.078 C 
ATOM     13  C   UNL     1      -4.592   3.502  -1.882  0.00  0.00    -0.020 C 
ATOM     14  C   UNL     1      -3.995   2.684  -3.050  0.00  0.00    -0.020 C 
ATOM     15  C   UNL     1      -3.486   1.380  -2.409  0.00  0.00    -0.078 C 
ATOM     16  H   UNL     1      -4.748   0.927  -0.738  0.00  0.00    -0.081 HD
ENDBRANCH   1  11
BRANCH   1  17
ATOM     17  C   UNL     1      -3.200   0.771   1.306  0.00  0.00    +0.095 C 
BRANCH  17  18
ATOM     18  N   UNL     1      -4.521   0.149   1.424  0.00  0.00    -0.191 NA
ATOM     19  H   UNL     1      -5.220   0.175   0.575  0.00  0.00    +0.148 HD
BRANCH  18  20
ATOM     20  S   UNL     1      -5.062  -0.373   2.900  0.00  0.00    +0.059 S 
ATOM     21  O   UNL     1      -6.378  -0.869   2.698  0.00  0.00    -0.153 OA
ATOM     22  O   UNL     1      -4.024  -1.171   3.453  0.00  0.00    -0.153 OA
BRANCH  20  26
ATOM     23  C   UNL     1      -3.657   2.422   7.087  0.00  0.00    +0.045 C 
ATOM     24  C   UNL     1      -4.528   2.285   5.864  0.00  0.00    -0.030 A 
ATOM     25  C   UNL     1      -4.415   1.169   5.057  0.00  0.00    +0.033 A 
ATOM     26  C   UNL     1      -5.210   1.046   3.933  0.00  0.00    +0.108 A 
ATOM     27  C   UNL     1      -6.126   2.035   3.621  0.00  0.00    -0.023 A 
ATOM     28  C   UNL     1      -6.242   3.149   4.431  0.00  0.00    +0.025 A 
ATOM     29  C   UNL     1      -5.443   3.275   5.553  0.00  0.00    +0.044 A 
ATOM     30 CL   UNL     1      -5.590   4.673   6.571  0.00  0.00    -0.083 Cl
ATOM     31  C   UNL     1      -6.996   1.897   2.398  0.00  0.00    +0.046 C 
ENDBRANCH  20  26
ENDBRANCH  18  20
ENDBRANCH  17  18
ENDBRANCH   1  17
TORSDOF 7
