REMARK  Name = ZINC43290614
REMARK  6 active torsions:
REMARK  status: ('A' for Active; 'I' for Inactive)
REMARK    1  A    between atoms: C_1  and  C_2
REMARK    2  A    between atoms: C_2  and  C_4
REMARK    3  A    between atoms: C_2  and  N_18
REMARK    4  A    between atoms: C_4  and  C_6
REMARK    5  A    between atoms: C_4  and  S_12
REMARK    6  A    between atoms: S_12  and  C_13
REMARK                            x       y       z     vdW  Elec       q    Type
REMARK                         _______ _______ _______ _____ _____    ______ ____
ROOT
ATOM      1  C   UNL     1       0.743  -0.479   1.228  0.00  0.00    +0.075 C 
ENDROOT
BRANCH   1   2
ATOM      2  C   UNL     1       2.176  -0.036   1.373  0.00  0.00    +0.003 A 
ATOM      3  C   UNL     1       2.728   0.776   2.307  0.00  0.00    +0.027 A 
ATOM      4  C   UNL     1       4.083   1.048   2.243  0.00  0.00    +0.025 A 
ATOM      5  C   UNL     1       4.818   0.494   1.248  0.00  0.00    +0.060 A 
ATOM      6  S   UNL     1       3.589  -0.452   0.363  0.00  0.00    -0.099 S 
ATOM      7 BR   UNL     1       4.897   2.177   3.524  0.00  0.00    -0.050 Br
ENDBRANCH   1   2
BRANCH   1   9
ATOM      8  C   UNL     1       0.941  -0.778  -1.245  0.00  0.00    -0.013 C 
ATOM      9  C   UNL     1       0.205  -0.029  -0.132  0.00  0.00    -0.060 C 
BRANCH   9  10
ATOM     10  N   UNL     1       0.419   1.415  -0.290  0.00  0.00    +0.381 N 
ATOM     11  H   UNL     1      -0.010   1.728  -1.148  0.00  0.00    -0.090 HD
ATOM     12  H   UNL     1       0.006   1.904   0.490  0.00  0.00    -0.090 HD
ATOM     13  H   UNL     1       1.409   1.607  -0.320  0.00  0.00    -0.090 HD
ENDBRANCH   9  10
ENDBRANCH   1   9
BRANCH   1  14
ATOM     14  S   UNL     1       0.654  -2.287   1.345  0.00  0.00    -0.090 S 
BRANCH  14  15
ATOM     15  C   UNL     1      -1.073  -2.624   1.431  0.00  0.00    +0.159 A 
ATOM     16  N   UNL     1      -2.103  -1.791   1.506  0.00  0.00    -0.135 NA
ATOM     17  N   UNL     1      -3.292  -2.208   1.561  0.00  0.00    -0.149 NA
ATOM     18  C   UNL     1      -3.588  -3.492   1.547  0.00  0.00    +0.182 A 
ATOM     19  S   UNL     1      -1.943  -4.189   1.434  0.00  0.00    -0.048 S 
ENDBRANCH  14  15
ENDBRANCH   1  14
TORSDOF 5
