REMARK  Name = ZINC61986702
REMARK  3 active torsions:
REMARK  status: ('A' for Active; 'I' for Inactive)
REMARK    1  A    between atoms: C_1  and  N_2
REMARK    2  A    between atoms: C_5  and  N_8
REMARK    3  A    between atoms: N_8  and  C_9
REMARK                            x       y       z     vdW  Elec       q    Type
REMARK                         _______ _______ _______ _____ _____    ______ ____
ROOT
ATOM      1  C   UNL     1      -0.167  -3.252   3.610  0.00  0.00    +0.029 A 
ATOM      2  C   UNL     1      -1.377  -2.829   4.144  0.00  0.00    +0.024 A 
ATOM      3  C   UNL     1      -1.941  -3.518   5.202  0.00  0.00    +0.018 A 
ATOM      4  C   UNL     1      -1.298  -4.627   5.726  0.00  0.00    +0.030 A 
ATOM      5  C   UNL     1      -0.081  -5.059   5.199  0.00  0.00    +0.049 A 
ATOM      6  C   UNL     1       0.476  -4.365   4.130  0.00  0.00    +0.047 A 
ATOM      7  N   UNL     1       0.587  -6.165   5.718  0.00  0.00    -0.284 N 
ATOM      8  C   UNL     1       0.044  -7.152   6.426  0.00  0.00    +0.227 C 
ATOM      9  O   UNL     1       0.764  -8.054   6.797  0.00  0.00    -0.275 OA
ATOM     10  C   UNL     1      -1.414  -7.209   6.791  0.00  0.00    +0.170 C 
ATOM     11  S   UNL     1      -2.014  -5.516   7.073  0.00  0.00    -0.114 S 
ATOM     12  H   UNL     1       1.540  -6.222   5.546  0.00  0.00    +0.155 HD
ENDROOT
BRANCH   1  13
ATOM     13  N   UNL     1       0.402  -2.556   2.538  0.00  0.00    -0.343 N 
ATOM     14  H   UNL     1       1.245  -2.852   2.160  0.00  0.00    +0.146 HD
BRANCH  13  19
ATOM     15  C   UNL     1      -0.018   1.465   0.010  0.00  0.00    -0.096 C 
ATOM     16  N   UNL     1       0.002  -0.004   0.002  0.00  0.00    +0.379 N 
ATOM     17  C   UNL     1      -1.383  -0.521   0.034  0.00  0.00    -0.077 C 
ATOM     18  C   UNL     1      -1.309  -1.797   0.908  0.00  0.00    +0.002 C 
ATOM     19  C   UNL     1      -0.274  -1.379   1.986  0.00  0.00    +0.052 C 
ATOM     20  C   UNL     1       0.714  -0.497   1.195  0.00  0.00    -0.057 C 
ATOM     21  H   UNL     1       0.466  -0.334  -0.831  0.00  0.00    -0.082 HD
ENDBRANCH  13  19
ENDBRANCH   1  13
TORSDOF 2
