REMARK  Name = ZINC38054394
REMARK  2 active torsions:
REMARK  status: ('A' for Active; 'I' for Inactive)
REMARK    1  A    between atoms: C_3  and  N_11
REMARK    2  A    between atoms: C_6  and  C_7
REMARK                            x       y       z     vdW  Elec       q    Type
REMARK                         _______ _______ _______ _____ _____    ______ ____
ROOT
ATOM      1  C   UNL     1      -0.017   1.392   0.010  0.00  0.00    +0.013 A 
ATOM      2  C   UNL     1       1.167   2.096   0.002  0.00  0.00    +0.031 A 
ATOM      3  C   UNL     1       2.381   1.420  -0.013  0.00  0.00    +0.100 A 
ATOM      4  C   UNL     1       2.405   0.027  -0.021  0.00  0.00    +0.149 A 
ATOM      5  C   UNL     1       1.222  -0.683  -0.014  0.00  0.00    +0.051 A 
ATOM      6  C   UNL     1       0.002  -0.004   0.002  0.00  0.00    +0.015 A 
ATOM      7  F   UNL     1       3.586  -0.628  -0.036  0.00  0.00    -0.203 F 
ENDROOT
BRANCH   6   8
ATOM      8  C   UNL     1      -1.267  -0.762   0.011  0.00  0.00    +0.094 C 
ATOM      9  N   UNL     1      -1.248  -2.094   0.003  0.00  0.00    -0.387 N 
ATOM     10  N   UNL     1      -2.430  -0.113   0.026  0.00  0.00    -0.345 N 
ATOM     11  H   UNL     1      -0.400  -2.567  -0.008  0.00  0.00    +0.157 HD
ATOM     12  H   UNL     1      -2.445   0.857   0.031  0.00  0.00    +0.144 HD
ATOM     13  H   UNL     1      -3.263  -0.610   0.031  0.00  0.00    +0.144 HD
ATOM     14  H   UNL     1      -2.080  -2.591   0.009  0.00  0.00    +0.157 HD
ENDBRANCH   6   8
BRANCH   3  15
ATOM     15  N   UNL     1       3.581   2.139  -0.021  0.00  0.00    -0.236 N 
ATOM     16  C   UNL     1       4.832   1.608  -0.041  0.00  0.00    +0.129 A 
ATOM     17  C   UNL     1       5.713   2.636  -0.042  0.00  0.00    +0.056 A 
ATOM     18  C   UNL     1       4.982   3.830  -0.022  0.00  0.00    +0.150 A 
ATOM     19  N   UNL     1       3.708   3.534  -0.015  0.00  0.00    -0.174 NA
ATOM     20 BR   UNL     1       7.598   2.485  -0.066  0.00  0.00    -0.047 Br
ENDBRANCH   3  15
TORSDOF 2
