REMARK  Name = ZINC59169559
REMARK  14 active torsions:
REMARK  status: ('A' for Active; 'I' for Inactive)
REMARK    1  A    between atoms: C_1  and  C_2
REMARK    2  A    between atoms: C_2  and  C_3
REMARK    3  A    between atoms: C_6  and  N_9
REMARK    4  A    between atoms: N_9  and  C_10
REMARK    5  A    between atoms: C_10  and  N_12
REMARK    6  A    between atoms: N_12  and  C_13
REMARK    7  A    between atoms: N_12  and  C_22
REMARK    8  A    between atoms: C_13  and  C_14
REMARK    9  A    between atoms: C_17  and  O_20
REMARK   10  A    between atoms: O_20  and  C_21
REMARK   11  A    between atoms: C_24  and  C_30
REMARK   12  A    between atoms: C_24  and  C_31
REMARK   13  A    between atoms: C_26  and  C_28
REMARK   14  A    between atoms: C_26  and  C_29
REMARK                            x       y       z     vdW  Elec       q    Type
REMARK                         _______ _______ _______ _____ _____    ______ ____
ROOT
ATOM      1  N   UNL     1       4.618  -2.364  -5.836  0.00  0.00    -0.305 N 
ENDROOT
BRANCH   1   2
ATOM      2  C   UNL     1       3.856  -2.519  -7.082  0.00  0.00    +0.073 C 
ATOM      3  C   UNL     1       2.838  -3.648  -6.910  0.00  0.00    +0.009 C 
ATOM      4  C   UNL     1       2.028  -3.814  -8.196  0.00  0.00    -0.072 C 
ATOM      5  N   UNL     1       1.411  -2.566  -8.620  0.00  0.00    +0.386 N 
ATOM      6  C   UNL     1       2.239  -1.370  -8.625  0.00  0.00    -0.072 C 
ATOM      7  C   UNL     1       3.095  -1.226  -7.371  0.00  0.00    +0.009 C 
ATOM      8  C   UNL     1       3.124  -1.300  -9.872  0.00  0.00    -0.010 C 
ATOM      9  C   UNL     1       1.290  -0.149  -8.676  0.00  0.00    -0.010 C 
ATOM     10  C   UNL     1       0.891  -4.818  -7.894  0.00  0.00    -0.010 C 
ATOM     11  C   UNL     1       2.897  -4.428  -9.293  0.00  0.00    -0.010 C 
ATOM     12  H   UNL     1       1.030  -2.699  -9.560  0.00  0.00    -0.084 HD
ATOM     13  H   UNL     1       0.598  -2.391  -8.024  0.00  0.00    -0.084 HD
ENDBRANCH   1   2
BRANCH   1  14
ATOM     14  C   UNL     1       3.995  -1.963  -4.710  0.00  0.00    +0.138 C 
ATOM     15  S   UNL     1       4.901  -1.678  -3.285  0.00  0.00    -0.018 S 
BRANCH  14  16
ATOM     16  N   UNL     1       2.659  -1.786  -4.706  0.00  0.00    -0.297 N 
ATOM     17  H   UNL     1       2.136  -2.024  -5.488  0.00  0.00    +0.154 HD
BRANCH  16  21
ATOM     18  C   UNL     1       0.775  -0.220  -1.337  0.00  0.00    -0.048 A 
ATOM     19  C   UNL     1       0.521   0.322  -2.584  0.00  0.00    +0.005 A 
ATOM     20  C   UNL     1       1.144  -0.195  -3.703  0.00  0.00    +0.023 A 
ATOM     21  C   UNL     1       2.026  -1.260  -3.575  0.00  0.00    +0.033 A 
ATOM     22  C   UNL     1       2.280  -1.801  -2.321  0.00  0.00    +0.023 A 
ATOM     23  C   UNL     1       1.658  -1.276  -1.205  0.00  0.00    +0.005 A 
BRANCH  18  25
ATOM     24  C   UNL     1       0.950   1.470   0.470  0.00  0.00    +0.009 C 
ATOM     25  C   UNL     1       0.093   0.347  -0.118  0.00  0.00    +0.032 C 
ENDBRANCH  18  25
ENDBRANCH  16  21
ENDBRANCH  14  16
ENDBRANCH   1  14
BRANCH   1  26
ATOM     26  C   UNL     1       6.056  -2.645  -5.817  0.00  0.00    +0.142 C 
BRANCH  26  27
ATOM     27  C   UNL     1       6.279  -4.096  -5.477  0.00  0.00    -0.030 A 
ATOM     28  C   UNL     1       6.415  -4.482  -4.157  0.00  0.00    +0.009 A 
ATOM     29  C   UNL     1       6.621  -5.812  -3.842  0.00  0.00    +0.046 A 
ATOM     30  C   UNL     1       6.691  -6.760  -4.853  0.00  0.00    +0.120 A 
ATOM     31  C   UNL     1       6.553  -6.369  -6.177  0.00  0.00    +0.046 A 
ATOM     32  C   UNL     1       6.343  -5.039  -6.486  0.00  0.00    +0.009 A 
BRANCH  30  33
ATOM     33  O   UNL     1       6.893  -8.068  -4.547  0.00  0.00    -0.495 OA
ATOM     34  C   UNL     1       6.954  -8.988  -5.638  0.00  0.00    +0.277 C 
ENDBRANCH  30  33
ENDBRANCH  26  27
ENDBRANCH   1  26
TORSDOF 8
