REMARK  Name = ZINC01437008
REMARK  4 active torsions:
REMARK  status: ('A' for Active; 'I' for Inactive)
REMARK    1  A    between atoms: C_1  and  C_2
REMARK    2  A    between atoms: C_4  and  C_16
REMARK    3  A    between atoms: C_7  and  C_9
REMARK    4  A    between atoms: N_13  and  C_14
REMARK                            x       y       z     vdW  Elec       q    Type
REMARK                         _______ _______ _______ _____ _____    ______ ____
ROOT
ATOM      1  C   UNL     1       0.901   6.654   0.311  0.00  0.00    +0.069 C 
ATOM      2  C   UNL     1      -0.115   5.543   0.258  0.00  0.00    +0.075 A 
ATOM      3  C   UNL     1      -1.506   5.699   0.328  0.00  0.00    +0.062 A 
ATOM      4  C   UNL     1      -2.069   4.474   0.241  0.00  0.00    +0.059 A 
ATOM      5  N   UNL     1      -1.060   3.565   0.128  0.00  0.00    -0.198 N 
ATOM      6  N   UNL     1       0.151   4.269   0.139  0.00  0.00    -0.168 NA
ATOM      7  C   UNL     1      -1.202   2.229   0.020  0.00  0.00    +0.298 C 
ATOM      8  O   UNL     1      -2.312   1.741  -0.068  0.00  0.00    -0.263 OA
ATOM      9  C   UNL     1      -3.544   4.167   0.268  0.00  0.00    +0.067 C 
ATOM     10 BR   UNL     1      -2.433   7.338   0.506  0.00  0.00    -0.047 Br
ENDROOT
BRANCH   7  11
ATOM     11  C   UNL     1      -0.016   1.364   0.009  0.00  0.00    +0.141 A 
ATOM     12  C   UNL     1       0.647   0.875  -1.107  0.00  0.00    +0.068 A 
ATOM     13  C   UNL     1       1.697   0.103  -0.603  0.00  0.00    +0.150 A 
ATOM     14  N   UNL     1       1.638   0.147   0.704  0.00  0.00    -0.178 NA
ATOM     15  N   UNL     1       0.652   0.872   1.096  0.00  0.00    -0.261 N 
ATOM     16  C   UNL     1       0.300   1.133   2.493  0.00  0.00    +0.173 C 
ATOM     17 BR   UNL     1       0.222   1.187  -2.923  0.00  0.00    -0.046 Br
ENDBRANCH   7  11
TORSDOF 1
