REMARK  Name = ZINC37261825
REMARK  9 active torsions:
REMARK  status: ('A' for Active; 'I' for Inactive)
REMARK    1  A    between atoms: C_1  and  C_2
REMARK    2  A    between atoms: C_2  and  O_3
REMARK    3  A    between atoms: O_3  and  C_4
REMARK    4  A    between atoms: C_5  and  C_12
REMARK    5  A    between atoms: C_12  and  N_13
REMARK    6  A    between atoms: N_13  and  C_14
REMARK    7  A    between atoms: C_14  and  C_15
REMARK    8  A    between atoms: C_15  and  S_16
REMARK    9  A    between atoms: S_16  and  N_19
REMARK                            x       y       z     vdW  Elec       q    Type
REMARK                         _______ _______ _______ _____ _____    ______ ____
ROOT
ATOM      1  C   UNL     1       2.808  -1.939  -0.060  0.00  0.00    -0.043 C 
ENDROOT
BRANCH   1   3
ATOM      2  C   UNL     1       0.607  -1.820  -1.256  0.00  0.00    +0.136 A 
ATOM      3  C   UNL     1       1.704  -2.575  -0.865  0.00  0.00    -0.021 A 
ATOM      4  C   UNL     1       1.783  -3.909  -1.215  0.00  0.00    +0.020 A 
ATOM      5  C   UNL     1       0.770  -4.493  -1.954  0.00  0.00    +0.019 A 
ATOM      6  C   UNL     1      -0.324  -3.743  -2.345  0.00  0.00    +0.034 A 
ATOM      7  C   UNL     1      -0.411  -2.409  -1.993  0.00  0.00    +0.061 A 
ATOM      8 BR   UNL     1      -1.911  -1.387  -2.520  0.00  0.00    -0.046 Br
ATOM      9 BR   UNL     1       0.883  -6.319  -2.431  0.00  0.00    -0.050 Br
BRANCH   2  10
ATOM     10  O   UNL     1       0.526  -0.508  -0.912  0.00  0.00    -0.491 OA
BRANCH  10  12
ATOM     11  C   UNL     1       0.756   1.858  -1.349  0.00  0.00    +0.048 C 
ATOM     12  C   UNL     1       1.043   0.441  -1.848  0.00  0.00    +0.226 C 
ENDBRANCH  10  12
ENDBRANCH   2  10
ENDBRANCH   1   3
BRANCH   1  13
ATOM     13  N   UNL     1       2.381  -1.810   1.340  0.00  0.00    +0.383 N 
ATOM     14  H   UNL     1       1.601  -1.173   1.396  0.00  0.00    -0.085 HD
ATOM     15  H   UNL     1       2.103  -2.714   1.691  0.00  0.00    -0.085 HD
BRANCH  13  16
ATOM     16  C   UNL     1       3.495  -1.292   2.145  0.00  0.00    -0.058 C 
BRANCH  16  17
ATOM     17  C   UNL     1       3.051  -1.158   3.603  0.00  0.00    +0.166 C 
BRANCH  17  18
ATOM     18  S   UNL     1       4.427  -0.519   4.598  0.00  0.00    +0.025 S 
ATOM     19  O   UNL     1       5.466  -1.486   4.675  0.00  0.00    -0.158 OA
ATOM     20  O   UNL     1       4.713   0.824   4.232  0.00  0.00    -0.158 OA
BRANCH  18  21
ATOM     21  N   UNL     1       3.828  -0.419   6.138  0.00  0.00    -0.208 NA
ATOM     22  H   UNL     1       4.421  -0.529   6.898  0.00  0.00    +0.144 HD
ATOM     23  H   UNL     1       2.883  -0.251   6.282  0.00  0.00    +0.144 HD
ENDBRANCH  18  21
ENDBRANCH  17  18
ENDBRANCH  16  17
ENDBRANCH  13  16
ENDBRANCH   1  13
TORSDOF 8
