REMARK  Name = ZINC12507758
REMARK  5 active torsions:
REMARK  status: ('A' for Active; 'I' for Inactive)
REMARK    1  A    between atoms: C_1  and  C_2
REMARK    2  A    between atoms: C_2  and  C_3
REMARK    3  A    between atoms: C_3  and  O_4
REMARK    4  A    between atoms: O_4  and  C_5
REMARK    5  A    between atoms: C_10  and  C_11
REMARK                            x       y       z     vdW  Elec       q    Type
REMARK                         _______ _______ _______ _____ _____    ______ ____
ROOT
ATOM      1  C   UNL     1       0.787  -4.750  -1.299  0.00  0.00    +0.212 C 
ATOM      2  N   UNL     1       1.421  -6.081  -1.268  0.00  0.00    -0.294 N 
ATOM      3  C   UNL     1       1.001  -7.057  -2.132  0.00  0.00    +0.160 C 
ATOM      4  N   UNL     1      -0.245  -7.103  -2.568  0.00  0.00    -0.302 N 
ATOM      5  C   UNL     1      -1.096  -6.118  -2.190  0.00  0.00    +0.213 A 
ATOM      6  N   UNL     1      -0.638  -4.969  -1.568  0.00  0.00    -0.286 N 
ATOM      7  C   UNL     1      -1.727  -4.173  -1.299  0.00  0.00    +0.076 A 
ATOM      8  C   UNL     1      -1.897  -2.937  -0.689  0.00  0.00    +0.077 A 
ATOM      9  C   UNL     1      -3.163  -2.394  -0.575  0.00  0.00    +0.164 A 
ATOM     10  C   UNL     1      -4.271  -3.079  -1.066  0.00  0.00    +0.164 A 
ATOM     11  C   UNL     1      -4.121  -4.308  -1.673  0.00  0.00    +0.079 A 
ATOM     12  C   UNL     1      -2.845  -4.868  -1.796  0.00  0.00    +0.095 A 
ATOM     13  N   UNL     1      -2.392  -6.040  -2.335  0.00  0.00    -0.212 NA
ATOM     14  O   UNL     1      -5.514  -2.524  -0.944  0.00  0.00    -0.488 OA
ATOM     15  C   UNL     1      -6.029  -2.430   0.386  0.00  0.00    +0.232 C 
ATOM     16  C   UNL     1      -5.524  -1.170   1.072  0.00  0.00    +0.082 C 
ATOM     17  C   UNL     1      -4.017  -1.187   1.277  0.00  0.00    +0.232 C 
ATOM     18  O   UNL     1      -3.334  -1.177   0.022  0.00  0.00    -0.488 OA
ATOM     19  N   UNL     1       1.893  -8.007  -2.553  0.00  0.00    -0.332 N 
ATOM     20  H   UNL     1       2.811  -7.983  -2.240  0.00  0.00    +0.145 HD
ATOM     21  H   UNL     1       1.607  -8.703  -3.165  0.00  0.00    +0.145 HD
ATOM     22  H   UNL     1       2.135  -6.264  -0.637  0.00  0.00    +0.151 HD
ATOM     23  H   UNL     1      -0.544  -7.823  -3.144  0.00  0.00    +0.171 HD
ENDROOT
BRANCH   1  29
ATOM     24  C   UNL     1       1.341  -2.529  -2.322  0.00  0.00    +0.127 A 
ATOM     25  C   UNL     1       1.909  -1.761  -3.329  0.00  0.00    +0.047 A 
ATOM     26  C   UNL     1       2.522  -2.376  -4.403  0.00  0.00    +0.019 A 
ATOM     27  C   UNL     1       2.570  -3.757  -4.476  0.00  0.00    +0.018 A 
ATOM     28  C   UNL     1       2.005  -4.525  -3.474  0.00  0.00    +0.026 A 
ATOM     29  C   UNL     1       1.396  -3.913  -2.394  0.00  0.00    +0.036 A 
ATOM     30 BR   UNL     1       3.410  -4.596  -5.948  0.00  0.00    -0.050 Br
BRANCH  24  31
ATOM     31  O   UNL     1       0.738  -1.926  -1.265  0.00  0.00    -0.492 OA
BRANCH  31  32
ATOM     32  C   UNL     1       0.718  -0.497  -1.257  0.00  0.00    +0.229 C 
BRANCH  32  34
ATOM     33  C   UNL     1      -0.019   1.526   0.010  0.00  0.00    +0.007 C 
ATOM     34  C   UNL     1       0.002  -0.004   0.002  0.00  0.00    +0.038 C 
ENDBRANCH  32  34
ENDBRANCH  31  32
ENDBRANCH  24  31
ENDBRANCH   1  29
TORSDOF 4
