REMARK  Name = ZINC20505948
REMARK  8 active torsions:
REMARK  status: ('A' for Active; 'I' for Inactive)
REMARK    1  A    between atoms: C_5  and  N_8
REMARK    2  A    between atoms: C_9  and  C_11
REMARK    3  A    between atoms: C_11  and  C_12
REMARK    4  A    between atoms: C_12  and  C_13
REMARK    5  A    between atoms: C_13  and  C_14
REMARK    6  A    between atoms: C_14  and  C_15
REMARK    7  A    between atoms: C_15  and  C_16
REMARK    8  A    between atoms: C_16  and  N_17
REMARK                            x       y       z     vdW  Elec       q    Type
REMARK                         _______ _______ _______ _____ _____    ______ ____
ROOT
ATOM      1  N   UNL     1       2.358   3.890   0.001  0.00  0.00    -0.283 N 
ATOM      2  C   UNL     1       2.369   5.180  -0.392  0.00  0.00    +0.217 C 
ATOM      3  O   UNL     1       1.328   5.744  -0.651  0.00  0.00    -0.275 OA
ATOM      4  H   UNL     1       3.292   3.403   0.315  0.00  0.00    +0.155 HD
ENDROOT
BRANCH   1   9
ATOM      5  C   UNL     1      -0.439   1.776  -1.118  0.00  0.00    +0.037 A 
ATOM      6  C   UNL     1      -1.223   1.755   0.022  0.00  0.00    +0.021 A 
ATOM      7  C   UNL     1      -0.817   2.433   1.157  0.00  0.00    +0.037 A 
ATOM      8  C   UNL     1       0.369   3.143   1.153  0.00  0.00    +0.065 A 
ATOM      9  C   UNL     1       1.156   3.172   0.008  0.00  0.00    +0.070 A 
ATOM     10  C   UNL     1       0.748   2.485  -1.129  0.00  0.00    +0.065 A 
ATOM     11 CL   UNL     1       1.728   2.518  -2.561  0.00  0.00    -0.082 Cl
ATOM     12 CL   UNL     1       0.874   3.999   2.576  0.00  0.00    -0.082 Cl
ATOM     13 BR   UNL     1      -2.849   0.790   0.029  0.00  0.00    -0.050 Br
ENDBRANCH   1   9
BRANCH   2  14
ATOM     14  C   UNL     1       3.677   5.920  -0.507  0.00  0.00    +0.096 C 
BRANCH  14  15
ATOM     15  C   UNL     1       3.411   7.355  -0.967  0.00  0.00    +0.009 C 
BRANCH  15  16
ATOM     16  C   UNL     1       4.739   8.107  -1.085  0.00  0.00    +0.000 C 
BRANCH  16  17
ATOM     17  C   UNL     1       4.473   9.542  -1.545  0.00  0.00    -0.002 C 
BRANCH  17  18
ATOM     18  C   UNL     1       5.801  10.294  -1.663  0.00  0.00    -0.020 C 
BRANCH  18  19
ATOM     19  C   UNL     1       5.535  11.728  -2.123  0.00  0.00    -0.086 C 
BRANCH  19  20
ATOM     20  N   UNL     1       6.809  12.450  -2.236  0.00  0.00    +0.378 N 
ATOM     21  H   UNL     1       6.619  13.482  -2.567  0.00  0.00    -0.090 HD
ATOM     22  H   UNL     1       7.454  11.943  -2.969  0.00  0.00    -0.090 HD
ATOM     23  H   UNL     1       7.310  12.466  -1.256  0.00  0.00    -0.090 HD
ENDBRANCH  19  20
ENDBRANCH  18  19
ENDBRANCH  17  18
ENDBRANCH  16  17
ENDBRANCH  15  16
ENDBRANCH  14  15
ENDBRANCH   2  14
TORSDOF 8
