REMARK  Name = ZINC67298390
REMARK  4 active torsions:
REMARK  status: ('A' for Active; 'I' for Inactive)
REMARK    1  A    between atoms: C_1  and  C_2
REMARK    2  A    between atoms: C_7  and  N_8
REMARK    3  A    between atoms: C_10  and  C_20
REMARK    4  A    between atoms: C_15  and  O_19
REMARK                            x       y       z     vdW  Elec       q    Type
REMARK                         _______ _______ _______ _____ _____    ______ ____
ROOT
ATOM      1  N   UNL     1      -0.155   0.038   2.385  0.00  0.00    -0.325 N 
ATOM      2  C   UNL     1      -0.165  -0.658   3.502  0.00  0.00    +0.212 A 
ATOM      3  C   UNL     1      -0.191   0.009   4.818  0.00  0.00    +0.097 A 
ATOM      4  C   UNL     1      -0.728  -0.701   5.883  0.00  0.00    +0.030 A 
ATOM      5  C   UNL     1      -1.183  -2.023   5.645  0.00  0.00    +0.018 A 
ATOM      6  C   UNL     1      -1.913  -2.709   6.627  0.00  0.00    +0.015 A 
ATOM      7  C   UNL     1      -2.383  -3.964   6.372  0.00  0.00    +0.046 A 
ATOM      8  C   UNL     1      -2.136  -4.575   5.144  0.00  0.00    +0.120 A 
ATOM      9  C   UNL     1      -1.400  -3.920   4.168  0.00  0.00    +0.092 A 
ATOM     10  C   UNL     1      -0.910  -2.648   4.413  0.00  0.00    +0.141 A 
ATOM     11  O   UNL     1      -0.158  -2.016   3.483  0.00  0.00    -0.438 OA
ATOM     12  H   UNL     1      -0.252   1.003   2.415  0.00  0.00    +0.169 HD
ENDROOT
BRANCH   1  19
ATOM     13  C   UNL     1      -2.029   0.640   0.336  0.00  0.00    +0.046 C 
ATOM     14  C   UNL     1      -0.901  -0.340   0.140  0.00  0.00    -0.027 A 
ATOM     15  C   UNL     1      -0.745  -0.980  -1.072  0.00  0.00    +0.008 A 
ATOM     16  C   UNL     1       0.289  -1.881  -1.254  0.00  0.00    +0.039 A 
ATOM     17  C   UNL     1       1.176  -2.147  -0.222  0.00  0.00    +0.125 A 
ATOM     18  C   UNL     1       1.031  -1.512   0.996  0.00  0.00    +0.064 A 
ATOM     19  C   UNL     1      -0.009  -0.598   1.184  0.00  0.00    +0.048 A 
ATOM     20  F   UNL     1       2.183  -3.028  -0.408  0.00  0.00    -0.205 F 
ENDBRANCH   1  19
BRANCH   3  21
ATOM     21  C   UNL     1       0.333   1.373   4.995  0.00  0.00    +0.247 C 
ATOM     22  O   UNL     1       0.791   1.976   4.043  0.00  0.00    -0.270 OA
ATOM     23  N   UNL     1       0.306   1.953   6.211  0.00  0.00    -0.325 N 
ATOM     24  H   UNL     1      -0.111   1.495   6.957  0.00  0.00    +0.145 HD
ATOM     25  H   UNL     1       0.703   2.828   6.340  0.00  0.00    +0.145 HD
ENDBRANCH   3  21
BRANCH   8  26
ATOM     26  O   UNL     1      -2.619  -5.820   4.901  0.00  0.00    -0.507 OA
ATOM     27  H   UNL     1      -3.502  -5.829   4.507  0.00  0.00    +0.292 HD
ENDBRANCH   8  26
TORSDOF 3
