REMARK  Name = ZINC47550008
REMARK  7 active torsions:
REMARK  status: ('A' for Active; 'I' for Inactive)
REMARK    1  A    between atoms: C_1  and  N_2
REMARK    2  A    between atoms: C_6  and  C_8
REMARK    3  A    between atoms: C_8  and  N_9
REMARK    4  A    between atoms: N_9  and  C_10
REMARK    5  A    between atoms: N_9  and  C_18
REMARK    6  A    between atoms: C_10  and  C_11
REMARK    7  A    between atoms: N_16  and  C_17
REMARK                            x       y       z     vdW  Elec       q    Type
REMARK                         _______ _______ _______ _____ _____    ______ ____
ROOT
ATOM      1  N   UNL     1       1.937  -4.579   3.229  0.00  0.00    +0.393 N 
ATOM      2  H   UNL     1       1.502  -4.327   4.103  0.00  0.00    -0.080 HD
ENDROOT
BRANCH   1   3
ATOM      3  C   UNL     1       3.312  -4.062   3.200  0.00  0.00    -0.067 C 
ATOM      4  C   UNL     1       3.827  -3.353   4.454  0.00  0.00    -0.017 C 
ATOM      5  C   UNL     1       3.495  -2.543   3.199  0.00  0.00    -0.017 C 
ENDBRANCH   1   3
BRANCH   1   6
ATOM      6  C   UNL     1       1.173  -4.001   2.116  0.00  0.00    +0.020 C 
BRANCH   6  12
ATOM      7  C   UNL     1      -4.721  -4.519   0.512  0.00  0.00    +0.129 C 
ATOM      8  N   UNL     1      -3.313  -4.130   0.392  0.00  0.00    -0.302 N 
ATOM      9  C   UNL     1      -2.441  -4.445   1.371  0.00  0.00    +0.306 C 
ATOM     10  O   UNL     1      -2.823  -5.051   2.353  0.00  0.00    -0.252 OA
ATOM     11  N   UNL     1      -1.147  -4.087   1.261  0.00  0.00    -0.242 N 
ATOM     12  C   UNL     1      -0.275  -4.401   2.239  0.00  0.00    +0.204 C 
ATOM     13  O   UNL     1      -0.655  -5.006   3.219  0.00  0.00    -0.277 OA
ATOM     14  H   UNL     1      -3.009  -3.646  -0.391  0.00  0.00    +0.150 HD
ATOM     15  H   UNL     1      -0.843  -3.603   0.477  0.00  0.00    +0.159 HD
ENDBRANCH   6  12
ENDBRANCH   1   6
BRANCH   1  16
ATOM     16  C   UNL     1       1.962  -6.042   3.098  0.00  0.00    +0.020 C 
BRANCH  16  17
ATOM     17  C   UNL     1       2.639  -6.643   4.303  0.00  0.00    +0.204 C 
ATOM     18  O   UNL     1       3.060  -5.923   5.183  0.00  0.00    -0.277 OA
ATOM     19  N   UNL     1       2.777  -7.980   4.401  0.00  0.00    -0.242 N 
ATOM     20  C   UNL     1       3.383  -8.517   5.479  0.00  0.00    +0.306 C 
ATOM     21  O   UNL     1       3.805  -7.796   6.361  0.00  0.00    -0.252 OA
ATOM     22  N   UNL     1       3.521  -9.854   5.577  0.00  0.00    -0.302 N 
ATOM     23  C   UNL     1       4.180 -10.438   6.748  0.00  0.00    +0.129 C 
ATOM     24  H   UNL     1       2.440  -8.556   3.697  0.00  0.00    +0.159 HD
ATOM     25  H   UNL     1       3.184 -10.430   4.873  0.00  0.00    +0.150 HD
ENDBRANCH  16  17
ENDBRANCH   1  16
TORSDOF 5
