REMARK  Name = ZINC13407349
REMARK  4 active torsions:
REMARK  status: ('A' for Active; 'I' for Inactive)
REMARK    1  A    between atoms: C_6  and  C_7
REMARK    2  A    between atoms: C_8  and  C_9
REMARK    3  A    between atoms: C_14  and  C_17
REMARK    4  A    between atoms: C_17  and  C_18
REMARK                            x       y       z     vdW  Elec       q    Type
REMARK                         _______ _______ _______ _____ _____    ______ ____
ROOT
ATOM      1  C   UNL     1      -3.746  -1.084   0.024  0.00  0.00    +0.243 C 
ATOM      2  O   UNL     1      -4.806  -0.486   0.032  0.00  0.00    -0.270 OA
ATOM      3  N   UNL     1      -3.732  -2.432   0.020  0.00  0.00    -0.261 N 
ATOM      4  C   UNL     1      -4.928  -3.138   0.025  0.00  0.00    +0.165 A 
ATOM      5  N   UNL     1      -5.119  -4.443   0.017  0.00  0.00    -0.229 NA
ATOM      6  C   UNL     1      -6.335  -4.955   0.028  0.00  0.00    +0.061 A 
ATOM      7  C   UNL     1      -7.393  -4.108   0.036  0.00  0.00    +0.072 A 
ATOM      8  S   UNL     1      -6.554  -2.530   0.036  0.00  0.00    -0.060 S 
ATOM      9  H   UNL     1      -2.888  -2.908   0.013  0.00  0.00    +0.157 HD
ENDROOT
BRANCH   1  11
ATOM     10  C   UNL     1      -2.501   1.010   0.023  0.00  0.00    +0.013 C 
ATOM     11  C   UNL     1      -2.487  -0.341   0.019  0.00  0.00    +0.068 C 
BRANCH  10  17
ATOM     12  C   UNL     1      -0.013   1.076   0.008  0.00  0.00    +0.011 A 
ATOM     13  C   UNL     1       1.169   1.778   0.000  0.00  0.00    +0.046 A 
ATOM     14  C   UNL     1       1.164   3.173   0.007  0.00  0.00    +0.124 A 
ATOM     15  C   UNL     1      -0.055   3.847   0.016  0.00  0.00    -0.002 A 
ATOM     16  C   UNL     1      -1.242   3.158   0.027  0.00  0.00    +0.015 A 
ATOM     17  C   UNL     1      -1.235   1.757   0.017  0.00  0.00    -0.024 A 
ATOM     18  C   UNL     1       0.259   5.331   0.007  0.00  0.00    +0.080 C 
ATOM     19  C   UNL     1       1.748   5.340  -0.409  0.00  0.00    +0.234 C 
ATOM     20  O   UNL     1       2.207   4.046   0.018  0.00  0.00    -0.491 OA
ENDBRANCH  10  17
ENDBRANCH   1  11
BRANCH   6  21
ATOM     21  C   UNL     1      -6.542  -6.448   0.025  0.00  0.00    +0.181 C 
BRANCH  21  22
ATOM     22  C   UNL     1      -5.811  -7.054  -1.145  0.00  0.00    +0.362 C 
ATOM     23  O   UNL     1      -5.186  -6.347  -1.899  0.00  0.00    -0.246 OA
ATOM     24  O   UNL     1      -5.855  -8.380  -1.350  0.00  0.00    -0.246 OA
ENDBRANCH  21  22
ENDBRANCH   6  21
TORSDOF 4
