REMARK  Name = ZINC08912086
REMARK  8 active torsions:
REMARK  status: ('A' for Active; 'I' for Inactive)
REMARK    1  A    between atoms: C_1  and  C_2
REMARK    2  A    between atoms: C_9  and  O_19
REMARK    3  A    between atoms: C_21  and  C_22
REMARK    4  A    between atoms: N_24  and  C_25
REMARK    5  A    between atoms: C_25  and  C_26
REMARK    6  A    between atoms: C_26  and  N_71
REMARK    7  A    between atoms: C_27  and  N_71
REMARK    8  A    between atoms: C_28  and  N_71
REMARK                            x       y       z     vdW  Elec       q    Type
REMARK                         _______ _______ _______ _____ _____    ______ ____
ROOT
ATOM      1  C   UNL     1      -0.182   4.778  -0.163  0.00  0.00    +0.048 C 
ATOM      2  C   UNL     1      -1.185   3.668  -0.344  0.00  0.00    +0.008 A 
ATOM      3  C   UNL     1      -2.632   3.750  -0.144  0.00  0.00    +0.033 A 
ATOM      4  C   UNL     1      -3.131   2.468  -0.434  0.00  0.00    +0.137 A 
ATOM      5  C   UNL     1      -4.496   2.232  -0.330  0.00  0.00    +0.050 A 
ATOM      6  C   UNL     1      -5.341   3.246   0.057  0.00  0.00    +0.049 A 
ATOM      7  C   UNL     1      -4.850   4.522   0.347  0.00  0.00    +0.128 A 
ATOM      8  C   UNL     1      -3.501   4.778   0.242  0.00  0.00    +0.034 A 
ATOM      9  C   UNL     1      -2.935   6.146   0.527  0.00  0.00    +0.152 C 
ATOM     10  C   UNL     1      -3.941   6.962   1.344  0.00  0.00    +0.084 C 
ATOM     11  C   UNL     1      -5.315   6.843   0.674  0.00  0.00    +0.113 C 
ATOM     12  O   UNL     1      -5.733   5.481   0.733  0.00  0.00    -0.485 OA
ATOM     13  C   UNL     1      -6.320   7.725   1.416  0.00  0.00    +0.048 C 
ATOM     14  C   UNL     1      -7.692   7.607   0.749  0.00  0.00    +0.004 C 
ATOM     15  C   UNL     1      -7.590   8.062  -0.708  0.00  0.00    +0.000 C 
ATOM     16  C   UNL     1      -6.586   7.177  -1.450  0.00  0.00    +0.004 C 
ATOM     17  C   UNL     1      -5.214   7.293  -0.783  0.00  0.00    +0.048 C 
ATOM     18  O   UNL     1      -2.084   1.692  -0.782  0.00  0.00    -0.450 OA
ATOM     19  C   UNL     1      -0.930   2.390  -0.725  0.00  0.00    +0.193 A 
ENDROOT
BRANCH  19  20
ATOM     20  C   UNL     1       0.401   1.850  -1.036  0.00  0.00    +0.280 C 
ATOM     21  O   UNL     1       1.380   2.567  -0.964  0.00  0.00    -0.267 OA
ATOM     22  N   UNL     1       0.535   0.561  -1.405  0.00  0.00    -0.311 N 
ATOM     23  H   UNL     1      -0.246  -0.011  -1.463  0.00  0.00    +0.149 HD
BRANCH  22  24
ATOM     24  C   UNL     1       1.861   0.024  -1.721  0.00  0.00    +0.086 C 
BRANCH  24  25
ATOM     25  C   UNL     1       1.735  -1.451  -2.108  0.00  0.00    -0.060 C 
BRANCH  25  27
ATOM     26  C   UNL     1       3.921  -2.014  -1.230  0.00  0.00    -0.096 C 
ATOM     27  N   UNL     1       3.077  -1.972  -2.444  0.00  0.00    +0.381 N 
ATOM     28  H   UNL     1       3.514  -1.349  -3.133  0.00  0.00    -0.082 HD
BRANCH  27  29
ATOM     29  C   UNL     1       2.963  -3.326  -3.026  0.00  0.00    -0.069 C 
ATOM     30  C   UNL     1       2.384  -4.303  -2.001  0.00  0.00    -0.015 C 
ATOM     31  C   UNL     1       2.277  -5.695  -2.627  0.00  0.00    -0.002 C 
ATOM     32  C   UNL     1       3.667  -6.169  -3.055  0.00  0.00    -0.000 C 
ATOM     33  C   UNL     1       4.246  -5.192  -4.080  0.00  0.00    -0.002 C 
ATOM     34  C   UNL     1       4.353  -3.800  -3.454  0.00  0.00    -0.015 C 
ENDBRANCH  27  29
ENDBRANCH  25  27
ENDBRANCH  24  25
ENDBRANCH  22  24
ENDBRANCH  19  20
BRANCH   9  35
ATOM     35  O   UNL     1      -1.720   6.013   1.266  0.00  0.00    -0.387 OA
ATOM     36  H   UNL     1      -1.836   5.641   2.151  0.00  0.00    +0.210 HD
ENDBRANCH   9  35
TORSDOF 6
