REMARK  Name = ZINC43286907
REMARK  11 active torsions:
REMARK  status: ('A' for Active; 'I' for Inactive)
REMARK    1  A    between atoms: C_1  and  C_2
REMARK    2  A    between atoms: C_2  and  C_4
REMARK    3  A    between atoms: C_2  and  N_7
REMARK    4  A    between atoms: C_4  and  O_5
REMARK    5  A    between atoms: O_5  and  C_6
REMARK    6  A    between atoms: N_7  and  C_8
REMARK    7  A    between atoms: N_7  and  C_9
REMARK    8  A    between atoms: C_9  and  C_11
REMARK    9  A    between atoms: C_9  and  C_17
REMARK   10  A    between atoms: C_17  and  C_19
REMARK   11  A    between atoms: C_17  and  N_20
REMARK                            x       y       z     vdW  Elec       q    Type
REMARK                         _______ _______ _______ _____ _____    ______ ____
ROOT
ATOM      1  C   UNL     1       1.961  -1.978   1.581  0.00  0.00    -0.014 C 
ENDROOT
BRANCH   1   2
ATOM      2  C   UNL     1       2.735  -2.186   2.858  0.00  0.00    -0.021 A 
ATOM      3  C   UNL     1       3.869  -2.901   3.062  0.00  0.00    +0.025 A 
ATOM      4  C   UNL     1       4.408  -2.952   4.334  0.00  0.00    +0.025 A 
ATOM      5  C   UNL     1       3.787  -2.286   5.339  0.00  0.00    +0.060 A 
ATOM      6  S   UNL     1       2.400  -1.549   4.491  0.00  0.00    -0.102 S 
ATOM      7 BR   UNL     1       5.988  -3.936   4.667  0.00  0.00    -0.050 Br
ENDBRANCH   1   2
BRANCH   1   8
ATOM      8  N   UNL     1       1.695  -0.545   1.397  0.00  0.00    +0.387 N 
ATOM      9  C   UNL     1       0.688  -0.105   2.372  0.00  0.00    -0.095 C 
ATOM     10  H   UNL     1       2.548  -0.025   1.536  0.00  0.00    -0.081 HD
BRANCH   8  12
ATOM     11  C   UNL     1       1.050   1.193  -0.202  0.00  0.00    -0.011 C 
ATOM     12  C   UNL     1       1.195  -0.311   0.036  0.00  0.00    -0.045 C 
BRANCH  12  13
ATOM     13  C   UNL     1       2.181  -0.895  -0.978  0.00  0.00    +0.144 C 
BRANCH  13  14
ATOM     14  O   UNL     1       3.445  -0.242  -0.843  0.00  0.00    -0.385 OA
ATOM     15  C   UNL     1       4.410  -0.637  -1.820  0.00  0.00    +0.193 C 
ENDBRANCH  13  14
ENDBRANCH  12  13
ENDBRANCH   8  12
ENDBRANCH   1   8
BRANCH   1  16
ATOM     16  C   UNL     1       0.635  -2.737   1.659  0.00  0.00    +0.039 C 
ATOM     17  C   UNL     1       0.158  -3.077   0.246  0.00  0.00    +0.022 C 
BRANCH  16  18
ATOM     18  N   UNL     1       0.825  -3.977   2.424  0.00  0.00    -0.329 NA
ATOM     19  H   UNL     1       1.463  -4.599   1.951  0.00  0.00    +0.118 HD
ATOM     20  H   UNL     1       1.140  -3.779   3.361  0.00  0.00    +0.118 HD
ENDBRANCH  16  18
ENDBRANCH   1  16
TORSDOF 7
