REMARK  Name = ZINC22789378
REMARK  12 active torsions:
REMARK  status: ('A' for Active; 'I' for Inactive)
REMARK    1  A    between atoms: C_1  and  C_2
REMARK    2  A    between atoms: C_2  and  N_3
REMARK    3  A    between atoms: N_3  and  C_4
REMARK    4  A    between atoms: C_4  and  C_5
REMARK    5  A    between atoms: C_6  and  C_8
REMARK    6  A    between atoms: C_8  and  N_9
REMARK    7  A    between atoms: N_12  and  C_15
REMARK    8  A    between atoms: C_15  and  C_17
REMARK    9  A    between atoms: C_15  and  C_18
REMARK   10  A    between atoms: N_20  and  C_21
REMARK   11  A    between atoms: C_24  and  C_27
REMARK   12  A    between atoms: C_32  and  C_36
REMARK                            x       y       z     vdW  Elec       q    Type
REMARK                         _______ _______ _______ _____ _____    ______ ____
ROOT
ATOM      1  C   UNL     1      -1.494  -0.618  -0.282  0.00  0.00    +0.234 C 
ATOM      2  O   UNL     1      -1.767  -1.175  -1.324  0.00  0.00    -0.274 OA
ATOM      3  N   UNL     1      -2.434  -0.478   0.674  0.00  0.00    -0.284 N 
ATOM      4  H   UNL     1      -2.210   0.094   1.586  0.00  0.00    +0.155 HD
ENDROOT
BRANCH   3   5
ATOM      5  C   UNL     1      -3.693  -1.059   0.505  0.00  0.00    +0.033 A 
ATOM      6  C   UNL     1      -4.268  -1.115  -0.760  0.00  0.00    +0.024 A 
ATOM      7  C   UNL     1      -5.508  -1.691  -0.930  0.00  0.00    +0.012 A 
ATOM      8  C   UNL     1      -6.192  -2.210   0.171  0.00  0.00    +0.007 A 
ATOM      9  C   UNL     1      -5.614  -2.148   1.441  0.00  0.00    +0.012 A 
ATOM     10  C   UNL     1      -4.372  -1.575   1.604  0.00  0.00    +0.024 A 
BRANCH   8  11
ATOM     11  C   UNL     1      -7.524  -2.823  -0.007  0.00  0.00    +0.109 A 
ATOM     12  N   UNL     1      -8.311  -3.365   0.898  0.00  0.00    -0.239 NA
ATOM     13  C   UNL     1      -9.515  -3.887   0.592  0.00  0.00    +0.079 A 
ATOM     14  C   UNL     1     -10.454  -4.489   1.462  0.00  0.00    +0.029 A 
ATOM     15  C   UNL     1     -11.631  -4.977   0.988  0.00  0.00    +0.005 A 
ATOM     16  C   UNL     1     -11.960  -4.906  -0.358  0.00  0.00    -0.049 A 
ATOM     17  C   UNL     1     -11.071  -4.325  -1.243  0.00  0.00    +0.020 A 
ATOM     18  C   UNL     1      -9.879  -3.829  -0.775  0.00  0.00    +0.040 A 
ATOM     19  S   UNL     1      -8.474  -3.026  -1.507  0.00  0.00    -0.067 S 
ATOM     20  C   UNL     1     -13.274  -5.456  -0.851  0.00  0.00    +0.044 C 
ENDBRANCH   8  11
ENDBRANCH   3   5
BRANCH   1  21
ATOM     21  C   UNL     1      -0.103  -0.084  -0.055  0.00  0.00    +0.140 C 
ATOM     22  C   UNL     1      -0.148   1.444   0.014  0.00  0.00    +0.034 C 
BRANCH  21  26
ATOM     23  N   UNL     1       2.718  -0.106  -3.199  0.00  0.00    +0.387 N 
ATOM     24  C   UNL     1       1.302  -0.296  -3.543  0.00  0.00    -0.063 C 
ATOM     25  C   UNL     1       0.428   0.221  -2.398  0.00  0.00    +0.066 C 
ATOM     26  N   UNL     1       0.768  -0.499  -1.163  0.00  0.00    -0.295 NA
ATOM     27  C   UNL     1       2.184  -0.309  -0.819  0.00  0.00    +0.066 C 
ATOM     28  C   UNL     1       3.058  -0.826  -1.964  0.00  0.00    -0.063 C 
ATOM     29  H   UNL     1       2.884   0.967  -3.024  0.00  0.00    -0.081 HD
BRANCH  23  30
ATOM     30  C   UNL     1       3.588  -0.521  -4.307  0.00  0.00    +0.019 C 
BRANCH  30  32
ATOM     31  N   UNL     1       5.983  -0.363  -4.907  0.00  0.00    -0.304 N 
ATOM     32  C   UNL     1       5.004  -0.089  -4.023  0.00  0.00    +0.199 C 
ATOM     33  O   UNL     1       5.262   0.506  -2.998  0.00  0.00    -0.278 OA
BRANCH  31  35
ATOM     34  C   UNL     1       5.314  -0.077  -7.242  0.00  0.00    +0.024 C 
ATOM     35  C   UNL     1       5.672  -1.082  -6.145  0.00  0.00    +0.104 C 
ENDBRANCH  31  35
BRANCH  31  36
ATOM     36  C   UNL     1       7.359   0.057  -4.630  0.00  0.00    +0.104 C 
ATOM     37  C   UNL     1       8.087  -1.052  -3.868  0.00  0.00    +0.024 C 
ENDBRANCH  31  36
ENDBRANCH  30  32
ENDBRANCH  23  30
ENDBRANCH  21  26
ENDBRANCH   1  21
TORSDOF 8
