REMARK  Name = ZINC04969796
REMARK  8 active torsions:
REMARK  status: ('A' for Active; 'I' for Inactive)
REMARK    1  A    between atoms: C_1  and  C_2
REMARK    2  A    between atoms: C_4  and  N_26
REMARK    3  A    between atoms: C_8  and  N_11
REMARK    4  A    between atoms: N_11  and  C_12
REMARK    5  A    between atoms: C_12  and  N_14
REMARK    6  A    between atoms: N_14  and  C_15
REMARK    7  A    between atoms: C_20  and  C_25
REMARK    8  A    between atoms: C_22  and  C_24
REMARK                            x       y       z     vdW  Elec       q    Type
REMARK                         _______ _______ _______ _____ _____    ______ ____
ROOT
ATOM      1  C   UNL     1      -6.200   3.450  -0.253  0.00  0.00    +0.044 C 
ATOM      2  C   UNL     1      -6.026   1.953  -0.231  0.00  0.00    -0.038 A 
ATOM      3  C   UNL     1      -7.105   1.123  -0.280  0.00  0.00    +0.045 A 
ATOM      4  C   UNL     1      -6.918  -0.266  -0.257  0.00  0.00    +0.100 A 
ATOM      5  C   UNL     1      -4.619  -0.034  -0.139  0.00  0.00    +0.048 A 
ATOM      6  C   UNL     1      -4.741   1.377  -0.158  0.00  0.00    +0.003 A 
ATOM      7  C   UNL     1      -3.588   2.175  -0.104  0.00  0.00    +0.033 A 
ATOM      8  C   UNL     1      -2.350   1.574  -0.033  0.00  0.00    +0.033 A 
ATOM      9  C   UNL     1      -2.236   0.180  -0.020  0.00  0.00    +0.025 A 
ATOM     10  C   UNL     1      -3.340  -0.613  -0.067  0.00  0.00    +0.028 A 
ATOM     11  N   UNL     1      -5.709  -0.876  -0.188  0.00  0.00    -0.343 N 
ATOM     12  H   UNL     1      -5.612  -1.898  -0.174  0.00  0.00    +0.167 HD
ENDROOT
BRANCH   4  13
ATOM     13  N   UNL     1      -8.027  -1.099  -0.308  0.00  0.00    -0.312 N 
ATOM     14  C   UNL     1      -8.963  -0.798   0.784  0.00  0.00    +0.134 C 
ATOM     15  C   UNL     1     -10.196  -1.697   0.656  0.00  0.00    +0.178 C 
ATOM     16  O   UNL     1      -9.783  -3.066   0.659  0.00  0.00    -0.377 OA
ATOM     17  C   UNL     1      -8.871  -3.395  -0.392  0.00  0.00    +0.178 C 
ATOM     18  C   UNL     1      -7.625  -2.513  -0.274  0.00  0.00    +0.134 C 
ENDBRANCH   4  13
BRANCH   8  19
ATOM     19  N   UNL     1      -1.197   2.366   0.021  0.00  0.00    -0.297 N 
ATOM     20  H   UNL     1      -1.120   3.150  -0.545  0.00  0.00    +0.154 HD
BRANCH  19  21
ATOM     21  C   UNL     1      -0.194   2.039   0.859  0.00  0.00    +0.135 C 
ATOM     22  S   UNL     1      -0.386   0.740   1.958  0.00  0.00    -0.019 S 
BRANCH  21  23
ATOM     23  N   UNL     1       0.963   2.730   0.828  0.00  0.00    -0.323 N 
ATOM     24  H   UNL     1       1.071   3.466   0.205  0.00  0.00    +0.148 HD
BRANCH  23  25
ATOM     25  C   UNL     1       2.056   2.371   1.734  0.00  0.00    +0.075 C 
ATOM     26  C   UNL     1       1.848   3.063   3.083  0.00  0.00    +0.022 C 
ATOM     27  C   UNL     1       2.990   2.688   4.030  0.00  0.00    +0.002 C 
ATOM     28  C   UNL     1       4.322   3.136   3.426  0.00  0.00    +0.003 C 
ATOM     29  C   UNL     1       4.529   2.444   2.078  0.00  0.00    -0.009 C 
ATOM     30  C   UNL     1       3.388   2.819   1.130  0.00  0.00    +0.009 C 
ATOM     31  C   UNL     1       3.371   4.335   0.927  0.00  0.00    +0.009 C 
ATOM     32  C   UNL     1       5.862   2.892   1.474  0.00  0.00    +0.008 C 
ENDBRANCH  23  25
ENDBRANCH  21  23
ENDBRANCH  19  21
ENDBRANCH   8  19
TORSDOF 5
