REMARK  Name = ZINC63530729
REMARK  9 active torsions:
REMARK  status: ('A' for Active; 'I' for Inactive)
REMARK    1  A    between atoms: C_1  and  C_2
REMARK    2  A    between atoms: C_2  and  O_3
REMARK    3  A    between atoms: O_3  and  C_4
REMARK    4  A    between atoms: C_9  and  C_10
REMARK    5  A    between atoms: C_10  and  N_11
REMARK    6  A    between atoms: C_12  and  C_14
REMARK    7  A    between atoms: C_16  and  S_25
REMARK    8  A    between atoms: C_20  and  C_24
REMARK    9  A    between atoms: S_25  and  C_26
REMARK                            x       y       z     vdW  Elec       q    Type
REMARK                         _______ _______ _______ _____ _____    ______ ____
ROOT
ATOM      1  C   UNL     1      -5.521   0.341  -2.744  0.00  0.00    +0.204 C 
ATOM      2  C   UNL     1      -4.640   1.467  -3.238  0.00  0.00    +0.030 C 
ATOM      3  C   UNL     1      -5.508   2.482  -3.626  0.00  0.00    +0.010 A 
ATOM      4  C   UNL     1      -5.289   3.769  -4.163  0.00  0.00    +0.011 A 
ATOM      5  C   UNL     1      -6.349   4.567  -4.454  0.00  0.00    +0.004 A 
ATOM      6  C   UNL     1      -7.662   4.147  -4.235  0.00  0.00    -0.048 A 
ATOM      7  C   UNL     1      -7.945   2.923  -3.722  0.00  0.00    +0.029 A 
ATOM      8  C   UNL     1      -6.890   2.035  -3.394  0.00  0.00    +0.044 A 
ATOM      9  N   UNL     1      -6.902   0.812  -2.891  0.00  0.00    -0.369 N 
ATOM     10  C   UNL     1      -8.796   5.078  -4.577  0.00  0.00    +0.044 C 
ATOM     11  H   UNL     1      -7.696   0.307  -2.657  0.00  0.00    +0.161 HD
ENDROOT
BRANCH   1  13
ATOM     12  N   UNL     1      -4.165  -0.719  -0.967  0.00  0.00    -0.309 N 
ATOM     13  C   UNL     1      -5.225   0.047  -1.296  0.00  0.00    +0.241 C 
ATOM     14  O   UNL     1      -5.939   0.499  -0.427  0.00  0.00    -0.273 OA
ATOM     15  H   UNL     1      -3.594  -1.081  -1.663  0.00  0.00    +0.149 HD
BRANCH  12  16
ATOM     16  C   UNL     1      -3.877  -1.005   0.440  0.00  0.00    +0.143 C 
BRANCH  16  22
ATOM     17  C   UNL     1      -1.388  -1.310   0.427  0.00  0.00    +0.125 A 
ATOM     18  C   UNL     1      -0.261  -2.113   0.520  0.00  0.00    +0.046 A 
ATOM     19  C   UNL     1      -0.398  -3.474   0.715  0.00  0.00    +0.004 A 
ATOM     20  C   UNL     1      -1.657  -4.035   0.816  0.00  0.00    +0.001 A 
ATOM     21  C   UNL     1      -2.782  -3.237   0.723  0.00  0.00    +0.009 A 
ATOM     22  C   UNL     1      -2.651  -1.875   0.535  0.00  0.00    +0.011 A 
BRANCH  17  23
ATOM     23  O   UNL     1      -1.256   0.029   0.237  0.00  0.00    -0.492 OA
BRANCH  23  25
ATOM     24  C   UNL     1       0.021   2.057  -0.075  0.00  0.00    +0.048 C 
ATOM     25  C   UNL     1       0.073   0.542   0.135  0.00  0.00    +0.225 C 
ENDBRANCH  23  25
ENDBRANCH  17  23
ENDBRANCH  16  22
ENDBRANCH  12  16
ENDBRANCH   1  13
BRANCH   2  26
ATOM     26  S   UNL     1      -2.981   1.487  -3.303  0.00  0.00    -0.091 S 
BRANCH  26  27
ATOM     27  C   UNL     1      -2.589   0.296  -4.542  0.00  0.00    +0.013 A 
ATOM     28  C   UNL     1      -3.603  -0.292  -5.288  0.00  0.00    +0.016 A 
ATOM     29  C   UNL     1      -3.292  -1.224  -6.258  0.00  0.00    +0.021 A 
ATOM     30  C   UNL     1      -1.972  -1.573  -6.487  0.00  0.00    +0.041 A 
ATOM     31  C   UNL     1      -0.960  -0.989  -5.745  0.00  0.00    +0.021 A 
ATOM     32  C   UNL     1      -1.264  -0.051  -4.778  0.00  0.00    +0.016 A 
ATOM     33 CL   UNL     1      -1.586  -2.747  -7.706  0.00  0.00    -0.084 Cl
ENDBRANCH  26  27
ENDBRANCH   2  26
TORSDOF 7
