REMARK  Name = ZINC02927280
REMARK  14 active torsions:
REMARK  status: ('A' for Active; 'I' for Inactive)
REMARK    1  A    between atoms: C_1  and  C_2
REMARK    2  A    between atoms: C_2  and  C_3
REMARK    3  A    between atoms: C_3  and  C_5
REMARK    4  A    between atoms: C_3  and  S_12
REMARK    5  A    between atoms: N_7  and  C_8
REMARK    6  A    between atoms: N_7  and  C_10
REMARK    7  A    between atoms: C_8  and  C_9
REMARK    8  A    between atoms: C_10  and  C_11
REMARK    9  A    between atoms: S_12  and  C_13
REMARK   10  A    between atoms: C_17  and  C_21
REMARK   11  A    between atoms: N_24  and  C_25
REMARK   12  A    between atoms: C_28  and  O_31
REMARK   13  A    between atoms: O_31  and  C_32
REMARK   14  A    between atoms: C_32  and  C_33
REMARK                            x       y       z     vdW  Elec       q    Type
REMARK                         _______ _______ _______ _____ _____    ______ ____
ROOT
ATOM      1  C   UNL     1      -4.584   2.419   2.276  0.00  0.00    +0.178 A 
ATOM      2  N   UNL     1      -3.558   2.614   3.069  0.00  0.00    -0.201 NA
ATOM      3  C   UNL     1      -2.300   2.336   2.696  0.00  0.00    +0.187 A 
ATOM      4  C   UNL     1      -2.054   1.814   1.419  0.00  0.00    +0.082 A 
ATOM      5  C   UNL     1      -0.667   1.612   1.307  0.00  0.00    +0.046 A 
ATOM      6  N   UNL     1      -0.105   1.995   2.421  0.00  0.00    -0.279 N 
ATOM      7  N   UNL     1      -1.090   2.445   3.309  0.00  0.00    -0.153 NA
ATOM      8  H   UNL     1       0.987   1.931   2.536  0.00  0.00    +0.189 HD
ATOM      9  C   UNL     1       0.051   1.080   0.094  0.00  0.00    +0.066 C 
ATOM     10  C   UNL     1      -3.198   1.598   0.523  0.00  0.00    +0.124 A 
ATOM     11  N   UNL     1      -3.036   1.126  -0.689  0.00  0.00    -0.384 N 
ATOM     12  N   UNL     1      -4.457   1.909   1.013  0.00  0.00    -0.275 N 
ATOM     13  H   UNL     1      -3.908   0.973  -1.341  0.00  0.00    +0.157 HD
ATOM     14  H   UNL     1      -2.027   0.883  -1.054  0.00  0.00    +0.157 HD
ENDROOT
BRANCH  12  15
ATOM     15  C   UNL     1      -5.592   1.718   0.213  0.00  0.00    +0.051 A 
ATOM     16  C   UNL     1      -5.967   0.435  -0.165  0.00  0.00    +0.030 A 
ATOM     17  C   UNL     1      -7.088   0.247  -0.949  0.00  0.00    +0.047 A 
ATOM     18  C   UNL     1      -7.834   1.339  -1.367  0.00  0.00    +0.121 A 
ATOM     19  C   UNL     1      -7.457   2.621  -0.994  0.00  0.00    +0.047 A 
ATOM     20  C   UNL     1      -6.339   2.810  -0.206  0.00  0.00    +0.030 A 
BRANCH  18  21
ATOM     21  O   UNL     1      -8.934   1.153  -2.143  0.00  0.00    -0.492 OA
BRANCH  21  22
ATOM     22  C   UNL     1      -9.264  -0.193  -2.490  0.00  0.00    +0.225 C 
ATOM     23  C   UNL     1     -10.523  -0.202  -3.360  0.00  0.00    +0.048 C 
ENDBRANCH  21  22
ENDBRANCH  18  21
ENDBRANCH  12  15
BRANCH   1  24
ATOM     24  S   UNL     1      -6.194   2.826   2.865  0.00  0.00    -0.075 S 
BRANCH  24  25
ATOM     25  C   UNL     1      -5.799   3.285   4.570  0.00  0.00    +0.140 C 
BRANCH  25  26
ATOM     26  C   UNL     1      -5.026   4.579   4.576  0.00  0.00    +0.229 C 
ATOM     27  O   UNL     1      -5.144   5.359   3.655  0.00  0.00    -0.274 OA
ATOM     28  N   UNL     1      -4.204   4.869   5.604  0.00  0.00    -0.301 N 
BRANCH  28  29
ATOM     29  C   UNL     1      -4.063   3.926   6.717  0.00  0.00    +0.104 C 
ATOM     30  C   UNL     1      -2.924   2.950   6.416  0.00  0.00    +0.024 C 
ENDBRANCH  28  29
BRANCH  28  31
ATOM     31  C   UNL     1      -3.453   6.126   5.610  0.00  0.00    +0.104 C 
ATOM     32  C   UNL     1      -4.281   7.212   6.300  0.00  0.00    +0.024 C 
ENDBRANCH  28  31
ENDBRANCH  25  26
BRANCH  25  34
ATOM     33  C   UNL     1      -7.810   2.114   5.479  0.00  0.00    +0.005 C 
ATOM     34  C   UNL     1      -7.095   3.461   5.364  0.00  0.00    +0.020 C 
ENDBRANCH  25  34
ENDBRANCH  24  25
ENDBRANCH   1  24
TORSDOF 9
