REMARK  Name = ZINC63405650
REMARK  4 active torsions:
REMARK  status: ('A' for Active; 'I' for Inactive)
REMARK    1  A    between atoms: C_8  and  C_13
REMARK    2  A    between atoms: N_15  and  C_16
REMARK    3  A    between atoms: C_20  and  S_22
REMARK    4  A    between atoms: S_22  and  C_25
REMARK                            x       y       z     vdW  Elec       q    Type
REMARK                         _______ _______ _______ _____ _____    ______ ____
ROOT
ATOM      1  C   UNL     1       4.484  -4.750   0.148  0.00  0.00    +0.233 C 
ATOM      2  O   UNL     1       5.070  -5.809   0.069  0.00  0.00    -0.274 OA
ATOM      3  N   UNL     1       3.932  -4.372   1.318  0.00  0.00    -0.285 N 
ATOM      4  H   UNL     1       3.522  -3.497   1.401  0.00  0.00    +0.155 HD
ENDROOT
BRANCH   1  12
ATOM      5  C   UNL     1       4.747  -5.636  -5.597  0.00  0.00    +0.001 A 
ATOM      6  C   UNL     1       3.378  -5.407  -5.742  0.00  0.00    +0.002 A 
ATOM      7  C   UNL     1       2.615  -4.878  -4.752  0.00  0.00    +0.024 A 
ATOM      8  C   UNL     1       3.189  -4.532  -3.514  0.00  0.00    +0.040 A 
ATOM      9  N   UNL     1       2.429  -4.014  -2.549  0.00  0.00    -0.284 N 
ATOM     10  C   UNL     1       2.904  -3.667  -1.364  0.00  0.00    +0.233 C 
ATOM     11  O   UNL     1       2.162  -3.198  -0.522  0.00  0.00    -0.274 OA
ATOM     12  C   UNL     1       4.373  -3.857  -1.060  0.00  0.00    +0.184 C 
ATOM     13  C   UNL     1       5.241  -4.447  -2.155  0.00  0.00    +0.004 C 
ATOM     14  C   UNL     1       4.632  -4.763  -3.333  0.00  0.00    -0.007 A 
ATOM     15  C   UNL     1       5.395  -5.337  -4.442  0.00  0.00    +0.009 A 
ATOM     16  H   UNL     1       1.484  -3.884  -2.724  0.00  0.00    +0.155 HD
ENDBRANCH   1  12
BRANCH   3  17
ATOM     17  C   UNL     1       3.949  -5.242   2.414  0.00  0.00    +0.035 A 
ATOM     18  C   UNL     1       2.877  -5.272   3.296  0.00  0.00    +0.023 A 
ATOM     19  C   UNL     1       2.897  -6.133   4.376  0.00  0.00    +0.004 A 
ATOM     20  C   UNL     1       3.983  -6.963   4.580  0.00  0.00    +0.027 A 
ATOM     21  C   UNL     1       5.052  -6.936   3.704  0.00  0.00    +0.090 A 
ATOM     22  C   UNL     1       5.035  -6.082   2.618  0.00  0.00    +0.050 A 
BRANCH  21  23
ATOM     23  S   UNL     1       6.435  -7.996   3.968  0.00  0.00    -0.000 S 
ATOM     24  O   UNL     1       7.526  -7.331   3.348  0.00  0.00    -0.169 OA
ATOM     25  O   UNL     1       6.439  -8.244   5.368  0.00  0.00    -0.169 OA
BRANCH  23  26
ATOM     26  C   UNL     1       6.035  -9.518   3.065  0.00  0.00    +0.136 C 
ATOM     27  C   UNL     1       4.706 -10.106   3.583  0.00  0.00    +0.026 C 
ATOM     28  C   UNL     1       4.929 -11.639   3.545  0.00  0.00    +0.002 C 
ATOM     29  C   UNL     1       6.408 -11.780   3.985  0.00  0.00    +0.002 C 
ATOM     30  C   UNL     1       7.116 -10.582   3.320  0.00  0.00    +0.026 C 
ENDBRANCH  23  26
ENDBRANCH  21  23
ENDBRANCH   3  17
TORSDOF 4
