REMARK  Name = ZINC03770449
REMARK  12 active torsions:
REMARK  status: ('A' for Active; 'I' for Inactive)
REMARK    1  A    between atoms: C_1  and  C_2
REMARK    2  A    between atoms: C_7  and  N_8
REMARK    3  A    between atoms: C_9  and  C_11
REMARK    4  A    between atoms: C_16  and  C_19
REMARK    5  A    between atoms: C_19  and  C_20
REMARK    6  A    between atoms: C_20  and  O_22
REMARK    7  A    between atoms: O_22  and  C_23
REMARK    8  A    between atoms: C_24  and  N_38
REMARK    9  A    between atoms: C_25  and  C_36
REMARK   10  A    between atoms: C_26  and  C_28
REMARK   11  A    between atoms: C_31  and  O_34
REMARK   12  A    between atoms: O_34  and  C_35
REMARK                            x       y       z     vdW  Elec       q    Type
REMARK                         _______ _______ _______ _____ _____    ______ ____
ROOT
ATOM      1  C   UNL     1       2.571   1.196   0.009  0.00  0.00    +0.055 C 
ATOM      2  C   UNL     1       2.471  -0.159  -0.012  0.00  0.00    +0.086 C 
ATOM      3  N   UNL     1       1.276  -0.853   0.030  0.00  0.00    -0.220 N 
ATOM      4  C   UNL     1       1.301  -2.203   0.003  0.00  0.00    +0.239 C 
ATOM      5  O   UNL     1       0.277  -2.852   0.038  0.00  0.00    -0.274 OA
ATOM      6  C   UNL     1       2.653  -2.874  -0.074  0.00  0.00    +0.150 C 
ATOM      7  S   UNL     1       3.747  -1.402  -0.096  0.00  0.00    -0.096 S 
ATOM      8  C   UNL     1       0.076  -0.131   0.100  0.00  0.00    +0.110 C 
ATOM      9  C   UNL     1       0.009   1.217   0.129  0.00  0.00    +0.077 C 
ATOM     10  C   UNL     1       1.297   2.013   0.084  0.00  0.00    +0.100 C 
ENDROOT
BRANCH  10  11
ATOM     11  C   UNL     1       1.362   2.875   1.319  0.00  0.00    -0.034 A 
ATOM     12  C   UNL     1       1.347   2.290   2.571  0.00  0.00    +0.008 A 
ATOM     13  C   UNL     1       1.412   3.078   3.704  0.00  0.00    +0.046 A 
ATOM     14  C   UNL     1       1.481   4.458   3.584  0.00  0.00    +0.120 A 
ATOM     15  C   UNL     1       1.490   5.043   2.326  0.00  0.00    +0.046 A 
ATOM     16  C   UNL     1       1.431   4.251   1.197  0.00  0.00    +0.008 A 
BRANCH  14  17
ATOM     17  O   UNL     1       1.538   5.236   4.697  0.00  0.00    -0.495 OA
ATOM     18  C   UNL     1       1.524   4.565   5.959  0.00  0.00    +0.277 C 
ENDBRANCH  14  17
ENDBRANCH  10  11
BRANCH   1  20
ATOM     19  N   UNL     1       3.907   3.170  -0.016  0.00  0.00    -0.281 N 
ATOM     20  C   UNL     1       3.826   1.824  -0.037  0.00  0.00    +0.248 C 
ATOM     21  O   UNL     1       4.842   1.153  -0.097  0.00  0.00    -0.270 OA
ATOM     22  H   UNL     1       3.103   3.703   0.083  0.00  0.00    +0.155 HD
BRANCH  19  29
ATOM     23  C   UNL     1       3.981   5.822  -1.043  0.00  0.00    +0.045 C 
ATOM     24  C   UNL     1       5.233   5.091  -0.632  0.00  0.00    -0.029 A 
ATOM     25  C   UNL     1       6.463   5.708  -0.749  0.00  0.00    +0.005 A 
ATOM     26  C   UNL     1       7.613   5.038  -0.372  0.00  0.00    +0.000 A 
ATOM     27  C   UNL     1       7.535   3.749   0.123  0.00  0.00    +0.002 A 
ATOM     28  C   UNL     1       6.307   3.129   0.247  0.00  0.00    +0.023 A 
ATOM     29  C   UNL     1       5.151   3.797  -0.136  0.00  0.00    +0.037 A 
ENDBRANCH  19  29
ENDBRANCH   1  20
BRANCH   8  30
ATOM     30  N   UNL     1      -1.102  -0.837   0.141  0.00  0.00    -0.345 N 
ATOM     31  H   UNL     1      -1.924  -0.429  -0.174  0.00  0.00    +0.144 HD
ATOM     32  H   UNL     1      -1.111  -1.744   0.484  0.00  0.00    +0.144 HD
ENDBRANCH   8  30
BRANCH   9  33
ATOM     33  C   UNL     1      -1.258   1.883   0.195  0.00  0.00    +0.099 C 
ATOM     34  N   UNL     1      -2.262   2.411   0.247  0.00  0.00    -0.191 NA
ENDBRANCH   9  33
BRANCH   6  35
ATOM     35  C   UNL     1       2.913  -3.739   1.161  0.00  0.00    +0.144 C 
BRANCH  35  36
ATOM     36  C   UNL     1       4.212  -4.484   0.988  0.00  0.00    +0.308 C 
ATOM     37  O   UNL     1       4.863  -4.337  -0.019  0.00  0.00    -0.251 OA
BRANCH  36  38
ATOM     38  O   UNL     1       4.645  -5.309   1.953  0.00  0.00    -0.468 OA
ATOM     39  C   UNL     1       5.905  -5.993   1.719  0.00  0.00    +0.280 C 
ENDBRANCH  36  38
ENDBRANCH  35  36
ENDBRANCH   6  35
TORSDOF 9
