REMARK  Name = ZINC54266962
REMARK  6 active torsions:
REMARK  status: ('A' for Active; 'I' for Inactive)
REMARK    1  A    between atoms: C_4  and  S_7
REMARK    2  A    between atoms: S_7  and  N_10
REMARK    3  A    between atoms: N_10  and  C_11
REMARK    4  A    between atoms: C_11  and  C_12
REMARK    5  A    between atoms: C_12  and  N_13
REMARK    6  A    between atoms: N_13  and  C_14
REMARK                            x       y       z     vdW  Elec       q    Type
REMARK                         _______ _______ _______ _____ _____    ______ ____
ROOT
ATOM      1  N   UNL     1       3.173  -2.560  -0.043  0.00  0.00    -0.191 NA
ATOM      2  H   UNL     1       3.608  -2.962  -0.811  0.00  0.00    +0.148 HD
ENDROOT
BRANCH   1   3
ATOM      3  S   UNL     1       1.527  -2.376  -0.026  0.00  0.00    +0.066 S 
ATOM      4  O   UNL     1       1.075  -2.885   1.220  0.00  0.00    -0.153 OA
ATOM      5  O   UNL     1       1.050  -2.870  -1.270  0.00  0.00    -0.153 OA
BRANCH   3   9
ATOM      6  C   UNL     1      -0.017   1.379   0.010  0.00  0.00    +0.025 A 
ATOM      7  C   UNL     1       1.160   2.052   0.002  0.00  0.00    +0.048 A 
ATOM      8  S   UNL     1       2.348   0.720  -0.017  0.00  0.00    -0.076 S 
ATOM      9  C   UNL     1       1.197  -0.645  -0.013  0.00  0.00    +0.156 A 
ATOM     10  C   UNL     1       0.002  -0.004   0.002  0.00  0.00    +0.051 A 
ATOM     11 BR   UNL     1      -1.614  -0.986   0.013  0.00  0.00    -0.048 Br
ENDBRANCH   3   9
ENDBRANCH   1   3
BRANCH   1  12
ATOM     12  C   UNL     1       3.972  -2.115   1.101  0.00  0.00    +0.087 C 
BRANCH  12  13
ATOM     13  C   UNL     1       5.374  -2.720   1.011  0.00  0.00    -0.065 C 
BRANCH  13  14
ATOM     14  N   UNL     1       6.175  -2.275   2.159  0.00  0.00    +0.382 N 
ATOM     15  H   UNL     1       6.242  -1.268   2.151  0.00  0.00    -0.085 HD
ATOM     16  H   UNL     1       5.733  -2.576   3.014  0.00  0.00    -0.085 HD
BRANCH  14  17
ATOM     17  C   UNL     1       7.521  -2.856   2.072  0.00  0.00    -0.072 C 
ATOM     18  C   UNL     1       7.947  -3.822   3.179  0.00  0.00    -0.017 C 
ATOM     19  C   UNL     1       8.549  -2.417   3.117  0.00  0.00    -0.017 C 
ENDBRANCH  14  17
ENDBRANCH  13  14
ENDBRANCH  12  13
ENDBRANCH   1  12
TORSDOF 6
