REMARK  Name = ZINC63161738
REMARK  8 active torsions:
REMARK  status: ('A' for Active; 'I' for Inactive)
REMARK    1  A    between atoms: C_1  and  C_2
REMARK    2  A    between atoms: N_6  and  C_8
REMARK    3  A    between atoms: C_8  and  C_9
REMARK    4  A    between atoms: C_9  and  C_10
REMARK    5  A    between atoms: C_10  and  C_11
REMARK    6  A    between atoms: C_11  and  N_12
REMARK    7  A    between atoms: N_15  and  C_16
REMARK    8  A    between atoms: C_18  and  C_24
REMARK                            x       y       z     vdW  Elec       q    Type
REMARK                         _______ _______ _______ _____ _____    ______ ____
ROOT
ATOM      1  N   UNL     1       3.533  -6.484   4.481  0.00  0.00    -0.299 N 
ATOM      2  C   UNL     1       3.789  -7.798   4.635  0.00  0.00    +0.304 C 
ATOM      3  O   UNL     1       3.510  -8.581   3.747  0.00  0.00    -0.253 OA
ATOM      4  N   UNL     1       4.354  -8.246   5.774  0.00  0.00    -0.265 N 
ATOM      5  H   UNL     1       3.756  -5.860   5.189  0.00  0.00    +0.150 HD
ATOM      6  H   UNL     1       4.644  -7.615   6.452  0.00  0.00    +0.157 HD
ENDROOT
BRANCH   4   7
ATOM      7  C   UNL     1       4.522  -9.622   5.980  0.00  0.00    +0.100 A 
ATOM      8  C   UNL     1       5.768 -10.142   6.201  0.00  0.00    +0.042 A 
ATOM      9  C   UNL     1       5.908 -11.523   6.404  0.00  0.00    +0.073 A 
ATOM     10  C   UNL     1       4.819 -12.324   6.380  0.00  0.00    +0.098 A 
ATOM     11  N   UNL     1       3.580 -11.810   6.160  0.00  0.00    -0.327 N 
ATOM     12  H   UNL     1       2.811 -12.401   6.147  0.00  0.00    +0.168 HD
ATOM     13  C   UNL     1       3.407 -10.488   5.967  0.00  0.00    +0.270 A 
ATOM     14  O   UNL     1       2.288 -10.040   5.776  0.00  0.00    -0.266 OA
BRANCH   9  15
ATOM     15  C   UNL     1       7.272 -12.113   6.648  0.00  0.00    +0.419 C 
ATOM     16  F   UNL     1       7.158 -13.497   6.821  0.00  0.00    -0.166 F 
ATOM     17  F   UNL     1       8.099 -11.847   5.551  0.00  0.00    -0.166 F 
ATOM     18  F   UNL     1       7.828 -11.544   7.799  0.00  0.00    -0.166 F 
ENDBRANCH   9  15
ENDBRANCH   4   7
BRANCH   1  19
ATOM     19  C   UNL     1       2.919  -5.998   3.243  0.00  0.00    +0.105 C 
BRANCH  19  20
ATOM     20  C   UNL     1       2.739  -4.481   3.324  0.00  0.00    +0.017 C 
BRANCH  20  21
ATOM     21  C   UNL     1       2.097  -3.973   2.031  0.00  0.00    -0.017 C 
BRANCH  21  22
ATOM     22  C   UNL     1       1.917  -2.456   2.113  0.00  0.00    -0.079 C 
BRANCH  22  28
ATOM     23  C   UNL     1       0.621   1.543  -0.396  0.00  0.00    +0.005 C 
ATOM     24  C   UNL     1       0.680   0.014  -0.427  0.00  0.00    -0.031 C 
ATOM     25  C   UNL     1      -0.731  -0.548  -0.626  0.00  0.00    -0.001 C 
ATOM     26  C   UNL     1      -0.672  -2.077  -0.578  0.00  0.00    -0.018 C 
ATOM     27  C   UNL     1      -0.056  -2.516   0.753  0.00  0.00    -0.079 C 
ATOM     28  N   UNL     1       1.301  -1.969   0.872  0.00  0.00    +0.380 N 
ATOM     29  C   UNL     1       1.246  -0.502   0.897  0.00  0.00    -0.076 C 
ATOM     30  H   UNL     1       1.854  -2.270   0.083  0.00  0.00    -0.082 HD
ENDBRANCH  22  28
ENDBRANCH  21  22
ENDBRANCH  20  21
ENDBRANCH  19  20
ENDBRANCH   1  19
TORSDOF 7
