REMARK  Name = ZINC38573712
REMARK  7 active torsions:
REMARK  status: ('A' for Active; 'I' for Inactive)
REMARK    1  A    between atoms: C_1  and  S_2
REMARK    2  A    between atoms: S_2  and  C_3
REMARK    3  A    between atoms: C_3  and  C_4
REMARK    4  A    between atoms: C_4  and  C_5
REMARK    5  A    between atoms: C_5  and  C_7
REMARK    6  A    between atoms: C_5  and  N_24
REMARK    7  A    between atoms: C_25  and  C_27
REMARK                            x       y       z     vdW  Elec       q    Type
REMARK                         _______ _______ _______ _____ _____    ______ ____
ROOT
ATOM      1  C   UNL     1       1.983  -3.777  -2.945  0.00  0.00    +0.236 C 
ATOM      2  O   UNL     1       1.608  -4.477  -3.862  0.00  0.00    -0.274 OA
ATOM      3  N   UNL     1       2.653  -4.323  -1.911  0.00  0.00    -0.300 N 
ATOM      4  C   UNL     1       3.013  -3.512  -0.740  0.00  0.00    +0.106 C 
ATOM      5  C   UNL     1       2.489  -4.207   0.521  0.00  0.00    +0.009 C 
ATOM      6  C   UNL     1       3.013  -5.642   0.563  0.00  0.00    -0.037 C 
ATOM      7  C   UNL     1       2.514  -6.413  -0.659  0.00  0.00    +0.009 C 
ATOM      8  C   UNL     1       3.031  -5.743  -1.930  0.00  0.00    +0.106 C 
ATOM      9  C   UNL     1       2.528  -6.329   1.841  0.00  0.00    +0.140 C 
ATOM     10  C   UNL     1       3.184  -5.571   2.991  0.00  0.00    +0.042 C 
ATOM     11  N   UNL     1       2.233  -5.179   3.745  0.00  0.00    -0.243 NA
ATOM     12  C   UNL     1       1.020  -5.483   3.220  0.00  0.00    +0.216 C 
ATOM     13  N   UNL     1       1.097  -6.142   2.083  0.00  0.00    -0.264 NA
ATOM     14  C   UNL     1       4.669  -5.309   3.013  0.00  0.00    +0.034 C 
ATOM     15  C   UNL     1       5.022  -4.757   1.619  0.00  0.00    -0.076 C 
ATOM     16  N   UNL     1       4.483  -5.630   0.573  0.00  0.00    +0.385 N 
ATOM     17  H   UNL     1       4.818  -6.569   0.726  0.00  0.00    -0.085 HD
ATOM     18  H   UNL     1       4.814  -5.308  -0.324  0.00  0.00    -0.085 HD
ENDROOT
BRANCH   1  19
ATOM     19  C   UNL     1       1.700  -2.297  -2.963  0.00  0.00    +0.160 C 
BRANCH  19  20
ATOM     20  N   UNL     1       1.567  -1.842  -4.349  0.00  0.00    -0.300 N 
ATOM     21  C   UNL     1       1.813  -0.554  -4.662  0.00  0.00    +0.245 C 
ATOM     22  O   UNL     1       2.146   0.229  -3.794  0.00  0.00    -0.270 OA
ATOM     23  H   UNL     1       1.302  -2.467  -5.041  0.00  0.00    +0.150 HD
BRANCH  21  24
ATOM     24  C   UNL     1       1.679  -0.095  -6.060  0.00  0.00    +0.037 A 
ATOM     25  C   UNL     1       1.292  -0.991  -7.058  0.00  0.00    +0.014 A 
ATOM     26  C   UNL     1       1.168  -0.556  -8.361  0.00  0.00    +0.016 A 
ATOM     27  C   UNL     1       1.427   0.766  -8.680  0.00  0.00    +0.018 A 
ATOM     28  C   UNL     1       1.812   1.660  -7.695  0.00  0.00    +0.016 A 
ATOM     29  C   UNL     1       1.934   1.238  -6.387  0.00  0.00    +0.014 A 
ATOM     30 BR   UNL     1       1.256   1.354 -10.469  0.00  0.00    -0.050 Br
ENDBRANCH  21  24
ENDBRANCH  19  20
BRANCH  19  31
ATOM     31  C   UNL     1       0.400  -2.017  -2.207  0.00  0.00    +0.042 C 
BRANCH  31  32
ATOM     32  C   UNL     1       0.186  -0.506  -2.100  0.00  0.00    +0.071 C 
BRANCH  32  34
ATOM     33  C   UNL     1      -1.460   1.636  -1.165  0.00  0.00    +0.084 C 
ATOM     34  S   UNL     1      -1.355  -0.175  -1.204  0.00  0.00    -0.164 S 
ENDBRANCH  32  34
ENDBRANCH  31  32
ENDBRANCH  19  31
ENDBRANCH   1  19
TORSDOF 6
