REMARK  Name = ZINC05268794
REMARK  7 active torsions:
REMARK  status: ('A' for Active; 'I' for Inactive)
REMARK    1  A    between atoms: C_1  and  C_2
REMARK    2  A    between atoms: C_2  and  C_4
REMARK    3  A    between atoms: C_2  and  N_10
REMARK    4  A    between atoms: C_11  and  C_13
REMARK    5  A    between atoms: C_17  and  C_21
REMARK    6  A    between atoms: C_21  and  N_22
REMARK    7  A    between atoms: C_23  and  C_25
REMARK                            x       y       z     vdW  Elec       q    Type
REMARK                         _______ _______ _______ _____ _____    ______ ____
ROOT
ATOM      1  C   UNL     1       1.317  -0.740  -0.015  0.00  0.00    +0.075 C 
ATOM      2  C   UNL     1       2.103  -0.352  -1.269  0.00  0.00    +0.013 C 
ATOM      3  C   UNL     1       1.293  -0.726  -2.513  0.00  0.00    +0.006 C 
ATOM      4  C   UNL     1       1.034  -2.234  -2.518  0.00  0.00    +0.006 C 
ATOM      5  C   UNL     1       0.249  -2.621  -1.264  0.00  0.00    +0.006 C 
ATOM      6  C   UNL     1       1.058  -2.248  -0.020  0.00  0.00    +0.013 C 
ENDROOT
BRANCH   1   8
ATOM      7  N   UNL     1      -0.016   1.344   0.009  0.00  0.00    -0.309 N 
ATOM      8  C   UNL     1       0.002  -0.004   0.002  0.00  0.00    +0.217 C 
ATOM      9  O   UNL     1      -1.040  -0.625   0.009  0.00  0.00    -0.275 OA
ATOM     10  H   UNL     1       0.817   1.840   0.004  0.00  0.00    +0.149 HD
BRANCH   7  12
ATOM     11  C   UNL     1      -1.808   2.206  -1.414  0.00  0.00    +0.033 C 
ATOM     12  C   UNL     1      -1.295   2.059   0.019  0.00  0.00    +0.100 C 
BRANCH  12  13
ATOM     13  C   UNL     1      -1.102   3.425   0.626  0.00  0.00    -0.027 A 
ATOM     14  C   UNL     1       0.035   4.155   0.337  0.00  0.00    +0.005 A 
ATOM     15  C   UNL     1       0.211   5.410   0.890  0.00  0.00    +0.000 A 
ATOM     16  C   UNL     1      -0.747   5.930   1.740  0.00  0.00    +0.000 A 
ATOM     17  C   UNL     1      -1.882   5.197   2.034  0.00  0.00    +0.000 A 
ATOM     18  C   UNL     1      -2.059   3.944   1.477  0.00  0.00    +0.005 A 
ENDBRANCH  12  13
ENDBRANCH   7  12
ENDBRANCH   1   8
BRANCH   4  19
ATOM     19  C   UNL     1       0.225  -2.608  -3.762  0.00  0.00    +0.107 C 
BRANCH  19  20
ATOM     20  N   UNL     1       1.025  -2.348  -4.962  0.00  0.00    -0.316 N 
ATOM     21  C   UNL     1       0.513  -2.604  -6.182  0.00  0.00    +0.199 C 
ATOM     22  O   UNL     1      -0.610  -3.050  -6.287  0.00  0.00    -0.278 OA
ATOM     23  H   UNL     1       1.923  -1.991  -4.878  0.00  0.00    +0.149 HD
BRANCH  21  24
ATOM     24  C   UNL     1       1.336  -2.336  -7.415  0.00  0.00    +0.021 C 
ATOM     25  C   UNL     1       1.267  -0.850  -7.766  0.00  0.00    +0.028 C 
ATOM     26  C   UNL     1       1.880  -0.612  -9.123  0.00  0.00    -0.047 A 
ATOM     27  C   UNL     1       2.233   0.683  -9.471  0.00  0.00    +0.004 A 
ATOM     28  C   UNL     1       2.789   0.945 -10.707  0.00  0.00    +0.000 A 
ATOM     29  C   UNL     1       2.996  -0.088 -11.601  0.00  0.00    +0.000 A 
ATOM     30  C   UNL     1       2.647  -1.378 -11.255  0.00  0.00    +0.002 A 
ATOM     31  C   UNL     1       2.089  -1.643 -10.013  0.00  0.00    -0.061 A 
ATOM     32  C   UNL     1       1.728  -3.067  -9.679  0.00  0.00    -0.045 C 
ATOM     33  N   UNL     1       0.792  -3.111  -8.546  0.00  0.00    +0.389 N 
ATOM     34  H   UNL     1      -0.108  -2.709  -8.833  0.00  0.00    -0.084 HD
ATOM     35  H   UNL     1       0.655  -4.086  -8.256  0.00  0.00    -0.084 HD
ENDBRANCH  21  24
ENDBRANCH  19  20
ENDBRANCH   4  19
TORSDOF 6
