REMARK  Name = ZINC38999241
REMARK  7 active torsions:
REMARK  status: ('A' for Active; 'I' for Inactive)
REMARK    1  A    between atoms: C_7  and  C_10
REMARK    2  A    between atoms: N_11  and  N_12
REMARK    3  A    between atoms: C_13  and  C_15
REMARK    4  A    between atoms: C_18  and  C_21
REMARK    5  A    between atoms: C_25  and  O_27
REMARK    6  A    between atoms: O_27  and  C_28
REMARK    7  A    between atoms: C_28  and  C_29
REMARK                            x       y       z     vdW  Elec       q    Type
REMARK                         _______ _______ _______ _____ _____    ______ ____
ROOT
ATOM      1  C   UNL     1      -0.220  -7.864  -0.038  0.00  0.00    +0.184 C 
ATOM      2  C   UNL     1      -0.727  -8.137  -1.438  0.00  0.00    +0.027 C 
ATOM      3  C   UNL     1      -0.337  -9.371  -1.753  0.00  0.00    +0.047 C 
ATOM      4  N   UNL     1       0.376  -9.955  -0.715  0.00  0.00    -0.279 N 
ATOM      5  N   UNL     1       0.482  -9.103   0.350  0.00  0.00    -0.227 NA
ATOM      6  H   UNL     1       0.749 -10.850  -0.741  0.00  0.00    +0.166 HD
ATOM      7  H   UNL     1       1.450  -8.916   0.569  0.00  0.00    +0.145 HD
ENDROOT
BRANCH   3   8
ATOM      8  C   UNL     1      -0.627 -10.035  -3.044  0.00  0.00    +0.000 A 
ATOM      9  C   UNL     1      -1.349  -9.363  -4.030  0.00  0.00    +0.010 A 
ATOM     10  C   UNL     1      -1.618  -9.984  -5.233  0.00  0.00    +0.004 A 
ATOM     11  C   UNL     1      -1.174 -11.273  -5.464  0.00  0.00    +0.046 A 
ATOM     12  C   UNL     1      -0.455 -11.950  -4.488  0.00  0.00    +0.122 A 
ATOM     13  C   UNL     1      -0.175 -11.332  -3.280  0.00  0.00    +0.055 A 
BRANCH  12  14
ATOM     14  O   UNL     1      -0.020 -13.216  -4.721  0.00  0.00    -0.487 OA
BRANCH  14  15
ATOM     15  C   UNL     1      -0.339 -13.789  -5.990  0.00  0.00    +0.264 C 
BRANCH  15  16
ATOM     16  C   UNL     1       0.220 -15.186  -6.066  0.00  0.00    -0.010 A 
ATOM     17  C   UNL     1       1.499 -15.393  -6.547  0.00  0.00    +0.008 A 
ATOM     18  C   UNL     1       2.013 -16.675  -6.616  0.00  0.00    +0.020 A 
ATOM     19  C   UNL     1       1.246 -17.750  -6.204  0.00  0.00    +0.041 A 
ATOM     20  C   UNL     1      -0.034 -17.542  -5.723  0.00  0.00    +0.020 A 
ATOM     21  C   UNL     1      -0.544 -16.260  -5.648  0.00  0.00    +0.008 A 
ATOM     22 CL   UNL     1       1.891 -19.360  -6.292  0.00  0.00    -0.084 Cl
ENDBRANCH  15  16
ENDBRANCH  14  15
ENDBRANCH  12  14
ENDBRANCH   3   8
BRANCH   1  24
ATOM     23  N   UNL     1       0.255  -5.437  -0.030  0.00  0.00    -0.205 N 
ATOM     24  C   UNL     1       0.733  -6.697  -0.041  0.00  0.00    +0.255 C 
ATOM     25  O   UNL     1       1.930  -6.892  -0.054  0.00  0.00    -0.272 OA
ATOM     26  H   UNL     1      -0.702  -5.281  -0.020  0.00  0.00    +0.177 HD
BRANCH  23  28
ATOM     27  C   UNL     1       0.677  -3.128  -0.022  0.00  0.00    +0.136 C 
ATOM     28  N   UNL     1       1.141  -4.352  -0.033  0.00  0.00    -0.188 NA
BRANCH  27  35
ATOM     29  C   UNL     1      -0.016   1.353   0.009  0.00  0.00    +0.001 A 
ATOM     30  C   UNL     1       1.164   2.102   0.002  0.00  0.00    +0.002 A 
ATOM     31  C   UNL     1       2.384   1.514  -0.013  0.00  0.00    +0.026 A 
ATOM     32  C   UNL     1       2.485   0.097  -0.022  0.00  0.00    +0.043 A 
ATOM     33  N   UNL     1       3.531  -0.702  -0.037  0.00  0.00    -0.380 N 
ATOM     34  C   UNL     1       3.076  -2.096  -0.040  0.00  0.00    +0.150 C 
ATOM     35  C   UNL     1       1.565  -2.042  -0.024  0.00  0.00    +0.000 C 
ATOM     36  C   UNL     1       1.238  -0.688  -0.013  0.00  0.00    +0.004 A 
ATOM     37  C   UNL     1       0.002  -0.004   0.002  0.00  0.00    +0.010 A 
ATOM     38  H   UNL     1       4.458  -0.414  -0.045  0.00  0.00    +0.160 HD
ENDBRANCH  27  35
ENDBRANCH  23  28
ENDBRANCH   1  24
TORSDOF 7
