REMARK  Name = ZINC40750093
REMARK  5 active torsions:
REMARK  status: ('A' for Active; 'I' for Inactive)
REMARK    1  A    between atoms: C_1  and  C_2
REMARK    2  A    between atoms: C_7  and  N_8
REMARK    3  A    between atoms: C_9  and  C_11
REMARK    4  A    between atoms: C_11  and  N_12
REMARK    5  A    between atoms: C_20  and  N_22
REMARK                            x       y       z     vdW  Elec       q    Type
REMARK                         _______ _______ _______ _____ _____    ______ ____
ROOT
ATOM      1  C   UNL     1      -0.167   0.054   4.882  0.00  0.00    +0.181 C 
ENDROOT
BRANCH   1   2
ATOM      2  N   UNL     1      -0.241  -0.906   5.992  0.00  0.00    -0.288 NA
ATOM      3  C   UNL     1      -1.587  -1.534   6.065  0.00  0.00    +0.056 C 
ATOM      4  C   UNL     1      -2.475  -0.452   6.721  0.00  0.00    +0.020 C 
ATOM      5  C   UNL     1      -1.499   0.418   7.539  0.00  0.00    +0.020 C 
ATOM      6  C   UNL     1      -0.109  -0.216   7.303  0.00  0.00    +0.056 C 
ATOM      7  C   UNL     1       0.099  -1.303   8.370  0.00  0.00    +0.003 C 
ATOM      8  C   UNL     1      -1.155  -2.179   8.437  0.00  0.00    -0.072 C 
ATOM      9  C   UNL     1      -1.482  -2.726   7.030  0.00  0.00    +0.003 C 
BRANCH   8  10
ATOM     10  N   UNL     1      -0.917  -3.304   9.351  0.00  0.00    +0.380 N 
ATOM     11  H   UNL     1      -0.703  -2.951  10.271  0.00  0.00    -0.090 HD
ATOM     12  H   UNL     1      -1.743  -3.882   9.395  0.00  0.00    -0.090 HD
ATOM     13  H   UNL     1      -0.141  -3.853   9.012  0.00  0.00    -0.090 HD
ENDBRANCH   8  10
ENDBRANCH   1   2
BRANCH   1  15
ATOM     14  N   UNL     1       0.026  -0.014   2.417  0.00  0.00    -0.284 N 
ATOM     15  C   UNL     1      -0.056  -0.694   3.578  0.00  0.00    +0.231 C 
ATOM     16  O   UNL     1      -0.040  -1.906   3.574  0.00  0.00    -0.274 OA
ATOM     17  H   UNL     1       0.079   0.955   2.425  0.00  0.00    +0.155 HD
BRANCH  14  24
ATOM     18  C   UNL     1      -1.265   1.183   0.182  0.00  0.00    +0.046 C 
ATOM     19  C   UNL     1      -0.584  -0.158   0.085  0.00  0.00    -0.028 A 
ATOM     20  C   UNL     1      -0.570  -0.840  -1.116  0.00  0.00    +0.020 A 
ATOM     21  C   UNL     1       0.055  -2.071  -1.206  0.00  0.00    +0.018 A 
ATOM     22  C   UNL     1       0.666  -2.623  -0.094  0.00  0.00    +0.017 A 
ATOM     23  C   UNL     1       0.655  -1.945   1.109  0.00  0.00    +0.024 A 
ATOM     24  C   UNL     1       0.034  -0.706   1.201  0.00  0.00    +0.036 A 
ATOM     25 BR   UNL     1       0.072  -3.002  -2.852  0.00  0.00    -0.050 Br
ENDBRANCH  14  24
ENDBRANCH   1  15
TORSDOF 4
