REMARK  Name = ZINC11236028
REMARK  10 active torsions:
REMARK  status: ('A' for Active; 'I' for Inactive)
REMARK    1  A    between atoms: C_1  and  C_2
REMARK    2  A    between atoms: C_2  and  O_3
REMARK    3  A    between atoms: O_3  and  C_4
REMARK    4  A    between atoms: C_4  and  C_6
REMARK    5  A    between atoms: C_7  and  C_21
REMARK    6  A    between atoms: C_12  and  C_14
REMARK    7  A    between atoms: C_21  and  S_22
REMARK    8  A    between atoms: S_22  and  C_23
REMARK    9  A    between atoms: C_26  and  C_28
REMARK   10  A    between atoms: C_33  and  C_34
REMARK                            x       y       z     vdW  Elec       q    Type
REMARK                         _______ _______ _______ _____ _____    ______ ____
ROOT
ATOM      1  C   UNL     1       0.888   8.336  -1.122  0.00  0.00    +0.079 C 
ATOM      2  C   UNL     1       0.668   7.718   0.059  0.00  0.00    +0.034 C 
ATOM      3  N   UNL     1       1.136   8.245   1.228  0.00  0.00    -0.272 N 
ATOM      4  C   UNL     1       1.829   9.388   1.302  0.00  0.00    +0.304 C 
ATOM      5  O   UNL     1       2.206   9.778   2.390  0.00  0.00    -0.252 OA
ATOM      6  N   UNL     1       2.123  10.121   0.210  0.00  0.00    -0.288 N 
ATOM      7  C   UNL     1       1.662   9.638  -1.103  0.00  0.00    +0.144 C 
ATOM      8  H   UNL     1       0.958   7.764   2.051  0.00  0.00    +0.156 HD
ATOM      9  H   UNL     1       2.626  10.947   0.286  0.00  0.00    +0.151 HD
ENDROOT
BRANCH   7  10
ATOM     10  C   UNL     1       2.871   9.467  -1.986  0.00  0.00    -0.022 A 
ATOM     11  C   UNL     1       4.041   8.949  -1.463  0.00  0.00    +0.007 A 
ATOM     12  C   UNL     1       5.148   8.787  -2.273  0.00  0.00    +0.020 A 
ATOM     13  C   UNL     1       5.089   9.153  -3.606  0.00  0.00    +0.041 A 
ATOM     14  C   UNL     1       3.920   9.677  -4.128  0.00  0.00    +0.020 A 
ATOM     15  C   UNL     1       2.811   9.833  -3.317  0.00  0.00    +0.007 A 
ATOM     16 CL   UNL     1       6.482   8.957  -4.623  0.00  0.00    -0.084 Cl
ENDBRANCH   7  10
BRANCH   1  17
ATOM     17  C   UNL     1       0.408   7.788  -2.334  0.00  0.00    +0.339 C 
ATOM     18  O   UNL     1      -0.596   8.241  -2.851  0.00  0.00    -0.245 OA
BRANCH  17  19
ATOM     19  O   UNL     1       1.063   6.763  -2.918  0.00  0.00    -0.462 OA
BRANCH  19  21
ATOM     20  C   UNL     1       1.394   5.109  -4.648  0.00  0.00    +0.048 C 
ATOM     21  C   UNL     1       0.522   6.259  -4.141  0.00  0.00    +0.229 C 
ENDBRANCH  19  21
ENDBRANCH  17  19
ENDBRANCH   1  17
BRANCH   2  22
ATOM     22  C   UNL     1      -0.102   6.423   0.086  0.00  0.00    +0.130 C 
BRANCH  22  23
ATOM     23  S   UNL     1       1.042   5.045   0.347  0.00  0.00    -0.060 S 
BRANCH  23  24
ATOM     24  C   UNL     1      -0.092   3.698   0.335  0.00  0.00    +0.278 A 
ATOM     25  N   UNL     1      -1.393   3.778   0.173  0.00  0.00    -0.101 NA
ATOM     26  N   UNL     1      -1.903   2.598   0.213  0.00  0.00    -0.106 NA
ATOM     27  C   UNL     1      -0.952   1.719   0.412  0.00  0.00    +0.249 A 
ATOM     28  O   UNL     1       0.215   2.396   0.490  0.00  0.00    -0.411 OA
BRANCH  27  29
ATOM     29  C   UNL     1      -1.124   0.255   0.525  0.00  0.00    +0.041 A 
ATOM     30  C   UNL     1      -0.014  -0.567   0.732  0.00  0.00    +0.013 A 
ATOM     31  C   UNL     1      -0.181  -1.932   0.837  0.00  0.00    +0.001 A 
ATOM     32  C   UNL     1      -1.445  -2.487   0.738  0.00  0.00    +0.000 A 
ATOM     33  C   UNL     1      -2.549  -1.678   0.533  0.00  0.00    +0.004 A 
ATOM     34  C   UNL     1      -2.396  -0.311   0.431  0.00  0.00    -0.038 A 
ATOM     35  C   UNL     1      -3.600   0.569   0.214  0.00  0.00    +0.044 C 
ENDBRANCH  27  29
ENDBRANCH  23  24
ENDBRANCH  22  23
ENDBRANCH   2  22
TORSDOF 8
