REMARK  Name = ZINC45437568
REMARK  6 active torsions:
REMARK  status: ('A' for Active; 'I' for Inactive)
REMARK    1  A    between atoms: C_4  and  C_7
REMARK    2  A    between atoms: C_7  and  C_8
REMARK    3  A    between atoms: C_7  and  C_15
REMARK    4  A    between atoms: C_7  and  N_18
REMARK    5  A    between atoms: C_8  and  N_9
REMARK    6  A    between atoms: N_18  and  C_19
REMARK                            x       y       z     vdW  Elec       q    Type
REMARK                         _______ _______ _______ _____ _____    ______ ____
ROOT
ATOM      1  C   UNL     1       3.711  -0.707  -0.038  0.00  0.00    +0.056 C 
ENDROOT
BRANCH   1   5
ATOM      2  C   UNL     1      -0.017   1.378   0.010  0.00  0.00    +0.000 A 
ATOM      3  C   UNL     1       1.171   2.086   0.002  0.00  0.00    +0.000 A 
ATOM      4  C   UNL     1       2.377   1.411  -0.013  0.00  0.00    +0.003 A 
ATOM      5  C   UNL     1       2.396   0.029  -0.020  0.00  0.00    -0.048 A 
ATOM      6  C   UNL     1       1.208  -0.679  -0.012  0.00  0.00    +0.003 A 
ATOM      7  C   UNL     1       0.002  -0.004   0.002  0.00  0.00    +0.000 A 
ENDBRANCH   1   5
BRANCH   1   8
ATOM      8  C   UNL     1       4.484  -0.326  -1.274  0.00  0.00    +0.206 C 
ATOM      9  O   UNL     1       4.276   0.739  -1.815  0.00  0.00    -0.277 OA
ATOM     10  N   UNL     1       5.405  -1.170  -1.780  0.00  0.00    -0.330 N 
ATOM     11  H   UNL     1       5.571  -2.022  -1.347  0.00  0.00    +0.145 HD
ATOM     12  H   UNL     1       5.902  -0.924  -2.576  0.00  0.00    +0.145 HD
ENDBRANCH   1   8
BRANCH   1  13
ATOM     13  N   UNL     1       3.462  -2.155  -0.042  0.00  0.00    +0.394 N 
ATOM     14  H   UNL     1       2.928  -2.402  -0.862  0.00  0.00    -0.083 HD
ATOM     15  H   UNL     1       4.343  -2.647  -0.054  0.00  0.00    -0.083 HD
BRANCH  13  16
ATOM     16  C   UNL     1       2.710  -2.526   1.163  0.00  0.00    -0.070 C 
ATOM     17  C   UNL     1       3.393  -3.462   2.162  0.00  0.00    -0.017 C 
ATOM     18  C   UNL     1       2.248  -3.980   1.288  0.00  0.00    -0.017 C 
ENDBRANCH  13  16
ENDBRANCH   1  13
BRANCH   1  19
ATOM     19  C   UNL     1       4.521  -0.333   1.205  0.00  0.00    +0.145 C 
BRANCH  19  20
ATOM     20  N   UNL     1       5.800  -1.048   1.188  0.00  0.00    -0.271 N 
ATOM     21  C   UNL     1       7.025  -0.487   1.279  0.00  0.00    +0.123 A 
ATOM     22  C   UNL     1       7.939  -1.484   1.226  0.00  0.00    +0.055 A 
ATOM     23  C   UNL     1       7.249  -2.695   1.099  0.00  0.00    +0.149 A 
ATOM     24  N   UNL     1       5.967  -2.435   1.081  0.00  0.00    -0.179 NA
ATOM     25 BR   UNL     1       9.817  -1.277   1.308  0.00  0.00    -0.047 Br
ENDBRANCH  19  20
ENDBRANCH   1  19
TORSDOF 6
