REMARK  Name = ZINC37647212
REMARK  7 active torsions:
REMARK  status: ('A' for Active; 'I' for Inactive)
REMARK    1  A    between atoms: C_1  and  N_2
REMARK    2  A    between atoms: C_5  and  C_8
REMARK    3  A    between atoms: C_8  and  N_9
REMARK    4  A    between atoms: N_9  and  C_10
REMARK    5  A    between atoms: C_13  and  C_20
REMARK    6  A    between atoms: C_14  and  C_16
REMARK    7  A    between atoms: C_20  and  N_22
REMARK                            x       y       z     vdW  Elec       q    Type
REMARK                         _______ _______ _______ _____ _____    ______ ____
ROOT
ATOM      1  C   UNL     1       1.413  -5.387   1.761  0.00  0.00    +0.028 A 
ATOM      2  C   UNL     1       0.113  -5.765   2.086  0.00  0.00    +0.023 A 
ATOM      3  C   UNL     1      -0.132  -7.014   2.611  0.00  0.00    +0.012 A 
ATOM      4  C   UNL     1       0.928  -7.903   2.818  0.00  0.00    +0.015 A 
ATOM      5  C   UNL     1       2.232  -7.520   2.491  0.00  0.00    +0.066 A 
ATOM      6  C   UNL     1       2.469  -6.271   1.962  0.00  0.00    +0.036 A 
ENDROOT
BRANCH   5   7
ATOM      7  C   UNL     1       3.377  -8.474   2.713  0.00  0.00    +0.418 C 
ATOM      8  F   UNL     1       4.588  -7.808   2.500  0.00  0.00    -0.166 F 
ATOM      9  F   UNL     1       3.334  -8.956   4.026  0.00  0.00    -0.166 F 
ATOM     10  F   UNL     1       3.271  -9.546   1.820  0.00  0.00    -0.166 F 
ENDBRANCH   5   7
BRANCH   1  11
ATOM     11  N   UNL     1       1.656  -4.124   1.230  0.00  0.00    -0.344 N 
ATOM     12  H   UNL     1       2.561  -3.861   1.000  0.00  0.00    +0.146 HD
BRANCH  11  13
ATOM     13  C   UNL     1       0.546  -3.192   1.019  0.00  0.00    +0.103 C 
BRANCH  13  18
ATOM     14  C   UNL     1      -0.520   0.828  -1.409  0.00  0.00    -0.096 C 
ATOM     15  N   UNL     1      -0.162  -0.581  -1.197  0.00  0.00    +0.378 N 
ATOM     16  C   UNL     1       1.185  -0.858  -1.760  0.00  0.00    -0.079 C 
ATOM     17  C   UNL     1       1.636  -2.126  -0.993  0.00  0.00    -0.016 C 
ATOM     18  C   UNL     1       1.082  -1.886   0.430  0.00  0.00    -0.012 C 
ATOM     19  C   UNL     1      -0.061  -0.870   0.250  0.00  0.00    -0.074 C 
ATOM     20  H   UNL     1      -0.849  -1.184  -1.625  0.00  0.00    -0.082 HD
ENDBRANCH  13  18
ENDBRANCH  11  13
ENDBRANCH   1  11
BRANCH   4  21
ATOM     21  C   UNL     1       0.670  -9.240   3.380  0.00  0.00    +0.077 C 
ATOM     22  S   UNL     1       1.523 -10.599   2.783  0.00  0.00    -0.035 S 
BRANCH  21  23
ATOM     23  N   UNL     1      -0.237  -9.394   4.365  0.00  0.00    -0.352 N 
ATOM     24  H   UNL     1      -0.720  -8.624   4.704  0.00  0.00    +0.143 HD
ATOM     25  H   UNL     1      -0.407 -10.274   4.736  0.00  0.00    +0.143 HD
ENDBRANCH  21  23
ENDBRANCH   4  21
TORSDOF 6
