REMARK  Name = ZINC41586507
REMARK  8 active torsions:
REMARK  status: ('A' for Active; 'I' for Inactive)
REMARK    1  A    between atoms: C_1  and  C_2
REMARK    2  A    between atoms: C_2  and  O_3
REMARK    3  A    between atoms: O_3  and  C_4
REMARK    4  A    between atoms: C_4  and  C_6
REMARK    5  A    between atoms: N_11  and  C_13
REMARK    6  A    between atoms: C_13  and  C_14
REMARK    7  A    between atoms: C_15  and  O_32
REMARK    8  A    between atoms: C_22  and  C_23
REMARK                            x       y       z     vdW  Elec       q    Type
REMARK                         _______ _______ _______ _____ _____    ______ ____
ROOT
ATOM      1  C   UNL     1       2.985  -6.375  -4.759  0.00  0.00    +0.020 A 
ATOM      2  C   UNL     1       2.362  -6.686  -5.957  0.00  0.00    +0.122 A 
ATOM      3  C   UNL     1       3.093  -7.206  -7.021  0.00  0.00    +0.046 A 
ATOM      4  C   UNL     1       4.437  -7.415  -6.893  0.00  0.00    +0.019 A 
ATOM      5  C   UNL     1       5.077  -7.107  -5.692  0.00  0.00    +0.068 A 
ATOM      6  C   UNL     1       4.351  -6.576  -4.614  0.00  0.00    +0.144 A 
ATOM      7  O   UNL     1       5.181  -6.353  -3.571  0.00  0.00    -0.451 OA
ATOM      8  C   UNL     1       6.458  -6.695  -3.862  0.00  0.00    +0.176 C 
ATOM      9  C   UNL     1       7.524  -6.593  -3.030  0.00  0.00    +0.058 C 
ATOM     10  C   UNL     1       6.477  -7.211  -5.240  0.00  0.00    +0.231 C 
ATOM     11  O   UNL     1       7.436  -7.620  -5.870  0.00  0.00    -0.283 OA
ENDROOT
BRANCH   9  12
ATOM     12  C   UNL     1       7.370  -5.963  -1.711  0.00  0.00    -0.021 A 
ATOM     13  C   UNL     1       8.491  -5.736  -0.904  0.00  0.00    +0.009 A 
ATOM     14  C   UNL     1       8.337  -5.144   0.331  0.00  0.00    +0.016 A 
ATOM     15  C   UNL     1       7.078  -4.777   0.776  0.00  0.00    +0.018 A 
ATOM     16  C   UNL     1       5.963  -4.999  -0.017  0.00  0.00    +0.016 A 
ATOM     17  C   UNL     1       6.101  -5.583  -1.257  0.00  0.00    +0.009 A 
ATOM     18 BR   UNL     1       6.879  -3.967   2.473  0.00  0.00    -0.050 Br
ENDBRANCH   9  12
BRANCH   2  19
ATOM     19  O   UNL     1       1.027  -6.482  -6.094  0.00  0.00    -0.506 OA
ATOM     20  H   UNL     1       0.795  -5.605  -6.427  0.00  0.00    +0.292 HD
ENDBRANCH   2  19
BRANCH   1  21
ATOM     21  C   UNL     1       2.180  -5.813  -3.615  0.00  0.00    -0.036 C 
BRANCH  21  26
ATOM     22  C   UNL     1       1.528  -2.266  -2.576  0.00  0.00    +0.081 C 
ATOM     23  C   UNL     1       0.817  -1.782  -3.843  0.00  0.00    +0.011 C 
ATOM     24  C   UNL     1       1.481  -2.423  -5.065  0.00  0.00    -0.018 C 
ATOM     25  C   UNL     1       1.438  -3.946  -4.922  0.00  0.00    -0.078 C 
ATOM     26  N   UNL     1       2.157  -4.347  -3.707  0.00  0.00    +0.383 N 
ATOM     27  C   UNL     1       1.485  -3.795  -2.525  0.00  0.00    -0.064 C 
ATOM     28  H   UNL     1       3.103  -3.999  -3.747  0.00  0.00    -0.081 HD
BRANCH  22  29
ATOM     29  C   UNL     1       0.834  -1.702  -1.363  0.00  0.00    +0.308 C 
ATOM     30  O   UNL     1       0.356  -2.446  -0.540  0.00  0.00    -0.251 OA
BRANCH  29  31
ATOM     31  O   UNL     1       0.748  -0.373  -1.196  0.00  0.00    -0.465 OA
BRANCH  31  33
ATOM     32  C   UNL     1       0.079   1.622  -0.007  0.00  0.00    +0.048 C 
ATOM     33  C   UNL     1       0.077   0.092  -0.024  0.00  0.00    +0.229 C 
ENDBRANCH  31  33
ENDBRANCH  29  31
ENDBRANCH  22  29
ENDBRANCH  21  26
ENDBRANCH   1  21
TORSDOF 7
