REMARK  Name = ZINC24668598
REMARK  5 active torsions:
REMARK  status: ('A' for Active; 'I' for Inactive)
REMARK    1  A    between atoms: C_4  and  N_10
REMARK    2  A    between atoms: C_5  and  C_7
REMARK    3  A    between atoms: C_11  and  C_13
REMARK    4  A    between atoms: C_13  and  N_14
REMARK    5  A    between atoms: C_18  and  C_21
REMARK                            x       y       z     vdW  Elec       q    Type
REMARK                         _______ _______ _______ _____ _____    ______ ____
ROOT
ATOM      1  C   UNL     1       8.469   2.056   2.423  0.00  0.00    +0.019 C 
ENDROOT
BRANCH   1   2
ATOM      2  N   UNL     1       7.935   1.499   1.173  0.00  0.00    +0.386 N 
ATOM      3  C   UNL     1       8.423   2.253   0.011  0.00  0.00    -0.078 C 
ATOM      4  C   UNL     1       7.968   1.561  -1.276  0.00  0.00    -0.018 C 
ATOM      5  C   UNL     1       6.438   1.488  -1.296  0.00  0.00    +0.009 C 
ATOM      6  C   UNL     1       5.954   0.741  -0.051  0.00  0.00    +0.059 C 
ATOM      7  C   UNL     1       6.468   1.456   1.200  0.00  0.00    -0.065 C 
ATOM      8  H   UNL     1       8.299   0.465   1.079  0.00  0.00    -0.081 HD
BRANCH   6   9
ATOM      9  C   UNL     1       4.447   0.716  -0.033  0.00  0.00    +0.198 A 
ATOM     10  N   UNL     1       3.722  -0.362  -0.040  0.00  0.00    -0.213 NA
ATOM     11  C   UNL     1       2.409  -0.007  -0.020  0.00  0.00    +0.110 A 
ATOM     12  C   UNL     1       1.213  -0.728  -0.016  0.00  0.00    +0.031 A 
ATOM     13  C   UNL     1       0.011  -0.056   0.008  0.00  0.00    +0.002 A 
ATOM     14  C   UNL     1      -0.018   1.330   0.028  0.00  0.00    +0.004 A 
ATOM     15  C   UNL     1       1.155   2.055   0.024  0.00  0.00    +0.048 A 
ATOM     16  C   UNL     1       2.375   1.395  -0.000  0.00  0.00    +0.155 A 
ATOM     17  O   UNL     1       3.662   1.804  -0.009  0.00  0.00    -0.440 OA
ENDBRANCH   6   9
ENDBRANCH   1   2
BRANCH   1  19
ATOM     18  N   UNL     1      10.670   2.288   3.527  0.00  0.00    -0.286 N 
ATOM     19  C   UNL     1       9.962   1.854   2.466  0.00  0.00    +0.201 C 
ATOM     20  O   UNL     1      10.526   1.301   1.546  0.00  0.00    -0.278 OA
ATOM     21  H   UNL     1      10.175   2.869   4.319  0.00  0.00    +0.155 HD
BRANCH  18  25
ATOM     22  C   UNL     1      14.741   1.426   3.809  0.00  0.00    +0.001 A 
ATOM     23  C   UNL     1      13.903   0.610   3.065  0.00  0.00    +0.002 A 
ATOM     24  C   UNL     1      12.555   0.891   2.974  0.00  0.00    +0.024 A 
ATOM     25  C   UNL     1      12.030   2.001   3.622  0.00  0.00    +0.045 A 
ATOM     26  C   UNL     1      12.874   2.828   4.376  0.00  0.00    +0.058 A 
ATOM     27  C   UNL     1      14.236   2.529   4.463  0.00  0.00    +0.015 A 
BRANCH  26  28
ATOM     28  C   UNL     1      12.328   4.007   5.074  0.00  0.00    +0.243 C 
ATOM     29  O   UNL     1      11.130   4.214   5.072  0.00  0.00    -0.270 OA
ATOM     30  N   UNL     1      13.157   4.856   5.715  0.00  0.00    -0.325 N 
ATOM     31  H   UNL     1      12.749   5.735   6.235  0.00  0.00    +0.145 HD
ATOM     32  H   UNL     1      14.241   4.669   5.717  0.00  0.00    +0.145 HD
ENDBRANCH  26  28
ENDBRANCH  18  25
ENDBRANCH   1  19
TORSDOF 5
