REMARK  Name = ZINC21713340
REMARK  8 active torsions:
REMARK  status: ('A' for Active; 'I' for Inactive)
REMARK    1  A    between atoms: C_1  and  N_2
REMARK    2  A    between atoms: N_2  and  C_22
REMARK    3  A    between atoms: C_3  and  C_5
REMARK    4  A    between atoms: C_5  and  O_6
REMARK    5  A    between atoms: O_6  and  C_7
REMARK    6  A    between atoms: C_7  and  C_9
REMARK    7  A    between atoms: C_9  and  N_10
REMARK    8  A    between atoms: C_22  and  C_29
REMARK                            x       y       z     vdW  Elec       q    Type
REMARK                         _______ _______ _______ _____ _____    ______ ____
ROOT
ATOM      1  C   UNL     1       2.732   6.236  -1.043  0.00  0.00    +0.133 C 
ATOM      2  N   UNL     1       2.166   5.376   0.001  0.00  0.00    -0.285 N 
ATOM      3  C   UNL     1       1.426   5.915   0.989  0.00  0.00    +0.254 C 
ATOM      4  O   UNL     1       0.958   5.204   1.853  0.00  0.00    -0.272 OA
ENDROOT
BRANCH   2   5
ATOM      5  C   UNL     1       2.405   3.931  -0.032  0.00  0.00    +0.122 C 
ATOM      6  C   UNL     1       1.069   3.183   0.036  0.00  0.00    +0.038 C 
ATOM      7  C   UNL     1       0.257   3.480  -1.225  0.00  0.00    +0.003 C 
ATOM      8  C   UNL     1       0.991   2.942  -2.454  0.00  0.00    +0.008 C 
ATOM      9  C   UNL     1       2.323   3.681  -2.615  0.00  0.00    +0.077 C 
ATOM     10  C   UNL     1       3.100   3.560  -1.323  0.00  0.00    +0.161 C 
ATOM     11  O   UNL     1       4.245   3.176  -1.322  0.00  0.00    -0.295 OA
BRANCH   5  12
ATOM     12  C   UNL     1       3.267   3.535   1.139  0.00  0.00    +0.002 A 
ATOM     13  C   UNL     1       3.706   4.495   2.031  0.00  0.00    +0.007 A 
ATOM     14  C   UNL     1       4.497   4.132   3.105  0.00  0.00    +0.000 A 
ATOM     15  C   UNL     1       4.845   2.807   3.291  0.00  0.00    +0.001 A 
ATOM     16  C   UNL     1       4.411   1.846   2.397  0.00  0.00    +0.020 A 
ATOM     17  C   UNL     1       3.619   2.209   1.322  0.00  0.00    +0.047 A 
ATOM     18 CL   UNL     1       3.067   1.003   0.203  0.00  0.00    -0.083 Cl
ENDBRANCH   5  12
ENDBRANCH   2   5
BRANCH   3  19
ATOM     19  C   UNL     1       1.181   7.402   1.022  0.00  0.00    +0.327 C 
BRANCH  19  20
ATOM     20  O   UNL     1       0.362   7.732   2.175  0.00  0.00    -0.454 OA
BRANCH  20  21
ATOM     21  C   UNL     1       0.050   9.026   2.351  0.00  0.00    +0.329 C 
ATOM     22  O   UNL     1       0.448   9.855   1.567  0.00  0.00    -0.249 OA
BRANCH  21  23
ATOM     23  C   UNL     1      -0.796   9.444   3.526  0.00  0.00    +0.267 C 
BRANCH  23  24
ATOM     24  N   UNL     1      -0.993  10.895   3.494  0.00  0.00    -0.215 N 
ATOM     25  C   UNL     1      -2.050  11.396   2.827  0.00  0.00    +0.276 A 
ATOM     26  O   UNL     1      -2.827  10.652   2.262  0.00  0.00    -0.266 OA
ATOM     27  C   UNL     1      -2.262  12.860   2.792  0.00  0.00    +0.053 A 
ATOM     28  C   UNL     1      -3.338  13.423   2.122  0.00  0.00    +0.014 A 
ATOM     29  C   UNL     1      -3.493  14.799   2.110  0.00  0.00    +0.001 A 
ATOM     30  C   UNL     1      -2.584  15.614   2.761  0.00  0.00    +0.001 A 
ATOM     31  C   UNL     1      -1.505  15.067   3.434  0.00  0.00    +0.014 A 
ATOM     32  C   UNL     1      -1.336  13.690   3.454  0.00  0.00    +0.055 A 
ATOM     33  C   UNL     1      -0.199  13.059   4.159  0.00  0.00    +0.295 A 
ATOM     34  O   UNL     1       0.618  13.745   4.740  0.00  0.00    -0.264 OA
ATOM     35  N   UNL     1      -0.076  11.717   4.151  0.00  0.00    -0.125 NA
ENDBRANCH  23  24
ENDBRANCH  21  23
ENDBRANCH  20  21
ENDBRANCH  19  20
ENDBRANCH   3  19
TORSDOF 7
