REMARK  Name = ZINC41885354
REMARK  11 active torsions:
REMARK  status: ('A' for Active; 'I' for Inactive)
REMARK    1  A    between atoms: C_1  and  C_2
REMARK    2  A    between atoms: C_2  and  C_3
REMARK    3  A    between atoms: C_3  and  C_4
REMARK    4  A    between atoms: C_3  and  C_6
REMARK    5  A    between atoms: C_3  and  N_20
REMARK    6  A    between atoms: C_4  and  C_5
REMARK    7  A    between atoms: C_6  and  N_7
REMARK    8  A    between atoms: C_8  and  C_10
REMARK    9  A    between atoms: N_12  and  C_13
REMARK   10  A    between atoms: N_20  and  C_21
REMARK   11  A    between atoms: N_20  and  C_22
REMARK                            x       y       z     vdW  Elec       q    Type
REMARK                         _______ _______ _______ _____ _____    ______ ____
ROOT
ATOM      1  N   UNL     1       1.747  -2.823  -1.983  0.00  0.00    -0.309 N 
ATOM      2  C   UNL     1       1.741  -4.143  -2.254  0.00  0.00    +0.299 C 
ATOM      3  O   UNL     1       1.003  -4.885  -1.639  0.00  0.00    -0.265 OA
ATOM      4  H   UNL     1       2.337  -2.230  -2.475  0.00  0.00    +0.149 HD
ENDROOT
BRANCH   2   5
ATOM      5  C   UNL     1       2.641  -4.693  -3.311  0.00  0.00    +0.303 C 
ATOM      6  O   UNL     1       3.378  -3.951  -3.927  0.00  0.00    -0.265 OA
ATOM      7  N   UNL     1       2.634  -6.013  -3.582  0.00  0.00    -0.277 N 
ATOM      8  H   UNL     1       2.000  -6.597  -3.136  0.00  0.00    +0.155 HD
BRANCH   7   9
ATOM      9  C   UNL     1       3.541  -6.542  -4.504  0.00  0.00    +0.048 A 
ATOM     10  C   UNL     1       4.791  -5.958  -4.665  0.00  0.00    +0.024 A 
ATOM     11  C   UNL     1       5.685  -6.483  -5.578  0.00  0.00    +0.002 A 
ATOM     12  C   UNL     1       5.337  -7.589  -6.332  0.00  0.00    +0.001 A 
ATOM     13  C   UNL     1       4.093  -8.174  -6.175  0.00  0.00    +0.017 A 
ATOM     14  C   UNL     1       3.196  -7.658  -5.259  0.00  0.00    +0.039 A 
ATOM     15 BR   UNL     1       1.500  -8.462  -5.039  0.00  0.00    -0.048 Br
ENDBRANCH   7   9
ENDBRANCH   2   5
BRANCH   1  16
ATOM     16  C   UNL     1       0.864  -2.283  -0.946  0.00  0.00    +0.092 C 
BRANCH  16  17
ATOM     17  C   UNL     1       0.929  -0.754  -0.967  0.00  0.00    -0.051 C 
BRANCH  17  18
ATOM     18  N   UNL     1       0.347  -0.257  -2.220  0.00  0.00    +0.381 N 
ATOM     19  C   UNL     1       0.310   1.212  -2.194  0.00  0.00    -0.096 C 
ATOM     20  C   UNL     1       1.167  -0.706  -3.353  0.00  0.00    -0.096 C 
ATOM     21  H   UNL     1      -0.591  -0.615  -2.321  0.00  0.00    -0.082 HD
ENDBRANCH  17  18
BRANCH  17  23
ATOM     22  C   UNL     1      -1.333  -0.584   0.081  0.00  0.00    +0.002 C 
ATOM     23  C   UNL     1       0.140  -0.195   0.219  0.00  0.00    -0.014 C 
ENDBRANCH  17  23
BRANCH  17  24
ATOM     24  C   UNL     1       2.388  -0.304  -0.867  0.00  0.00    -0.014 C 
ATOM     25  C   UNL     1       2.993  -0.823   0.439  0.00  0.00    +0.002 C 
ENDBRANCH  17  24
ENDBRANCH  16  17
ENDBRANCH   1  16
TORSDOF 7
