REMARK  Name = ZINC32428187
REMARK  11 active torsions:
REMARK  status: ('A' for Active; 'I' for Inactive)
REMARK    1  A    between atoms: C_1  and  C_2
REMARK    2  A    between atoms: C_2  and  O_3
REMARK    3  A    between atoms: O_3  and  C_4
REMARK    4  A    between atoms: C_7  and  N_10
REMARK    5  A    between atoms: N_10  and  S_11
REMARK    6  A    between atoms: S_11  and  C_14
REMARK    7  A    between atoms: C_17  and  C_20
REMARK    8  A    between atoms: N_22  and  C_23
REMARK    9  A    between atoms: C_23  and  C_24
REMARK   10  A    between atoms: C_24  and  C_26
REMARK   11  A    between atoms: C_24  and  N_27
REMARK                            x       y       z     vdW  Elec       q    Type
REMARK                         _______ _______ _______ _____ _____    ______ ____
ROOT
ATOM      1  C   UNL     1      -1.908   6.567  -1.532  0.00  0.00    +0.109 A 
ATOM      2  C   UNL     1      -2.531   5.772  -2.478  0.00  0.00    +0.029 A 
ATOM      3  C   UNL     1      -2.454   4.398  -2.388  0.00  0.00    +0.015 A 
ATOM      4  C   UNL     1      -1.747   3.809  -1.338  0.00  0.00    +0.037 A 
ATOM      5  C   UNL     1      -1.126   4.616  -0.384  0.00  0.00    +0.015 A 
ATOM      6  C   UNL     1      -1.206   5.989  -0.489  0.00  0.00    +0.029 A 
ENDROOT
BRANCH   4   7
ATOM      7  C   UNL     1      -1.661   2.337  -1.235  0.00  0.00    +0.244 C 
ATOM      8  O   UNL     1      -2.207   1.636  -2.065  0.00  0.00    -0.270 OA
ATOM      9  N   UNL     1      -0.977   1.771  -0.220  0.00  0.00    -0.313 N 
ATOM     10  H   UNL     1      -0.483   2.405   0.531  0.00  0.00    +0.149 HD
BRANCH   9  11
ATOM     11  C   UNL     1      -0.892   0.312  -0.118  0.00  0.00    +0.089 C 
BRANCH  11  12
ATOM     12  C   UNL     1       0.037  -0.064   1.038  0.00  0.00    -0.054 C 
ATOM     13  C   UNL     1       0.215  -1.583   1.075  0.00  0.00    -0.012 C 
BRANCH  12  14
ATOM     14  N   UNL     1       1.344   0.578   0.845  0.00  0.00    +0.385 N 
ATOM     15  C   UNL     1       2.018   0.051  -0.351  0.00  0.00    -0.073 C 
ATOM     16  C   UNL     1       3.153   1.012  -0.743  0.00  0.00    +0.024 C 
ATOM     17  C   UNL     1       3.917   1.344   0.497  0.00  0.00    -0.011 A 
ATOM     18  C   UNL     1       3.525   1.112   1.781  0.00  0.00    -0.054 A 
ATOM     19  C   UNL     1       4.408   1.507   2.783  0.00  0.00    +0.009 A 
ATOM     20  C   UNL     1       5.585   2.091   2.456  0.00  0.00    +0.045 A 
ATOM     21  S   UNL     1       5.503   2.110   0.670  0.00  0.00    -0.101 S 
ATOM     22  C   UNL     1       2.176   0.450   2.048  0.00  0.00    -0.042 C 
ATOM     23  H   UNL     1       1.180   1.652   0.678  0.00  0.00    -0.081 HD
ENDBRANCH  12  14
ENDBRANCH  11  12
ENDBRANCH   9  11
ENDBRANCH   4   7
BRANCH   1  24
ATOM     24  S   UNL     1      -2.011   8.322  -1.655  0.00  0.00    +0.072 S 
ATOM     25  O   UNL     1      -0.837   8.841  -1.047  0.00  0.00    -0.150 OA
ATOM     26  O   UNL     1      -2.366   8.614  -2.999  0.00  0.00    -0.150 OA
BRANCH  24  27
ATOM     27  N   UNL     1      -3.285   8.804  -0.713  0.00  0.00    -0.216 N 
ATOM     28  H   UNL     1      -4.160   9.285  -1.175  0.00  0.00    +0.174 HD
BRANCH  27  32
ATOM     29  C   UNL     1      -3.176   8.198   3.410  0.00  0.00    +0.121 A 
ATOM     30  C   UNL     1      -2.400   9.194   2.835  0.00  0.00    +0.047 A 
ATOM     31  C   UNL     1      -2.436   9.395   1.469  0.00  0.00    +0.028 A 
ATOM     32  C   UNL     1      -3.248   8.601   0.671  0.00  0.00    +0.048 A 
ATOM     33  C   UNL     1      -4.029   7.608   1.248  0.00  0.00    +0.028 A 
ATOM     34  C   UNL     1      -3.988   7.404   2.614  0.00  0.00    +0.047 A 
BRANCH  29  35
ATOM     35  O   UNL     1      -3.141   8.001   4.755  0.00  0.00    -0.492 OA
BRANCH  35  37
ATOM     36  C   UNL     1      -3.794   6.888   6.798  0.00  0.00    +0.048 C 
ATOM     37  C   UNL     1      -3.966   6.959   5.279  0.00  0.00    +0.225 C 
ENDBRANCH  35  37
ENDBRANCH  29  35
ENDBRANCH  27  32
ENDBRANCH  24  27
ENDBRANCH   1  24
TORSDOF 9
