REMARK  Name = ZINC62796016
REMARK  12 active torsions:
REMARK  status: ('A' for Active; 'I' for Inactive)
REMARK    1  A    between atoms: C_1  and  C_2
REMARK    2  A    between atoms: C_2  and  C_3
REMARK    3  A    between atoms: C_2  and  N_4
REMARK    4  A    between atoms: N_4  and  C_5
REMARK    5  A    between atoms: N_4  and  C_6
REMARK    6  A    between atoms: C_6  and  C_7
REMARK    7  A    between atoms: C_7  and  C_8
REMARK    8  A    between atoms: C_8  and  C_9
REMARK    9  A    between atoms: C_9  and  N_10
REMARK   10  A    between atoms: N_10  and  C_11
REMARK   11  A    between atoms: C_14  and  C_18
REMARK   12  A    between atoms: C_18  and  N_20
REMARK                            x       y       z     vdW  Elec       q    Type
REMARK                         _______ _______ _______ _____ _____    ______ ____
ROOT
ATOM      1  N   UNL     1      -4.173  -6.036   0.261  0.00  0.00    -0.343 N 
ATOM      2  H   UNL     1      -3.330  -6.510   0.177  0.00  0.00    +0.146 HD
ENDROOT
BRANCH   1   3
ATOM      3  C   UNL     1      -5.363  -6.749   0.374  0.00  0.00    +0.046 A 
ATOM      4  C   UNL     1      -6.572  -6.069   0.488  0.00  0.00    +0.025 A 
ATOM      5  C   UNL     1      -7.751  -6.770   0.600  0.00  0.00    +0.012 A 
ATOM      6  C   UNL     1      -7.734  -8.168   0.598  0.00  0.00    +0.004 A 
ATOM      7  C   UNL     1      -6.518  -8.850   0.483  0.00  0.00    +0.032 A 
ATOM      8  C   UNL     1      -5.343  -8.142   0.366  0.00  0.00    +0.062 A 
ATOM      9 CL   UNL     1      -3.833  -8.986   0.215  0.00  0.00    -0.082 Cl
BRANCH   6  10
ATOM     10  C   UNL     1      -8.994  -8.922   0.719  0.00  0.00    +0.077 C 
ATOM     11  S   UNL     1     -10.425  -8.317   0.001  0.00  0.00    -0.035 S 
BRANCH  10  12
ATOM     12  N   UNL     1      -9.020 -10.089   1.393  0.00  0.00    -0.352 N 
ATOM     13  H   UNL     1      -8.209 -10.432   1.800  0.00  0.00    +0.143 HD
ATOM     14  H   UNL     1      -9.850 -10.585   1.473  0.00  0.00    +0.143 HD
ENDBRANCH  10  12
ENDBRANCH   6  10
ENDBRANCH   1   3
BRANCH   1  15
ATOM     15  C   UNL     1      -4.193  -4.572   0.269  0.00  0.00    +0.101 C 
BRANCH  15  16
ATOM     16  C   UNL     1      -2.764  -4.041   0.133  0.00  0.00    +0.017 C 
BRANCH  16  17
ATOM     17  C   UNL     1      -2.785  -2.512   0.141  0.00  0.00    -0.017 C 
BRANCH  17  18
ATOM     18  C   UNL     1      -1.356  -1.981   0.004  0.00  0.00    -0.079 C 
BRANCH  18  19
ATOM     19  N   UNL     1      -1.376  -0.512   0.012  0.00  0.00    +0.379 N 
ATOM     20  C   UNL     1      -2.087  -0.026  -1.178  0.00  0.00    -0.096 C 
ATOM     21  H   UNL     1      -1.848  -0.187   0.843  0.00  0.00    -0.082 HD
BRANCH  19  23
ATOM     22  C   UNL     1      -0.019   1.526   0.010  0.00  0.00    -0.014 C 
ATOM     23  C   UNL     1       0.002  -0.004   0.002  0.00  0.00    -0.075 C 
ATOM     24  C   UNL     1       0.742  -0.511   1.242  0.00  0.00    -0.014 C 
ENDBRANCH  19  23
ENDBRANCH  18  19
ENDBRANCH  17  18
ENDBRANCH  16  17
ENDBRANCH  15  16
ENDBRANCH   1  15
TORSDOF 9
