REMARK  Name = ZINC36794971
REMARK  8 active torsions:
REMARK  status: ('A' for Active; 'I' for Inactive)
REMARK    1  A    between atoms: C_1  and  C_2
REMARK    2  A    between atoms: C_2  and  N_3
REMARK    3  A    between atoms: C_4  and  C_6
REMARK    4  A    between atoms: C_6  and  C_8
REMARK    5  A    between atoms: C_6  and  N_9
REMARK    6  A    between atoms: N_9  and  C_10
REMARK    7  A    between atoms: C_10  and  C_12
REMARK    8  A    between atoms: C_10  and  C_13
REMARK                            x       y       z     vdW  Elec       q    Type
REMARK                         _______ _______ _______ _____ _____    ______ ____
ROOT
ATOM      1  C   UNL     1       2.342  -4.226  -3.818  0.00  0.00    -0.006 C 
ATOM      2  C   UNL     1       3.802  -3.803  -3.640  0.00  0.00    -0.006 C 
ENDROOT
BRANCH   1   3
ATOM      3  C   UNL     1       2.261  -5.729  -3.897  0.00  0.00    +0.092 A 
ATOM      4  C   UNL     1       2.153  -6.432  -5.033  0.00  0.00    +0.051 A 
ATOM      5  C   UNL     1       2.108  -7.845  -4.637  0.00  0.00    +0.021 A 
ATOM      6  C   UNL     1       2.002  -9.049  -5.332  0.00  0.00    +0.027 A 
ATOM      7  C   UNL     1       1.988 -10.238  -4.635  0.00  0.00    +0.019 A 
ATOM      8  C   UNL     1       2.078 -10.238  -3.250  0.00  0.00    +0.019 A 
ATOM      9  C   UNL     1       2.183  -9.054  -2.552  0.00  0.00    +0.048 A 
ATOM     10  C   UNL     1       2.199  -7.845  -3.235  0.00  0.00    +0.135 A 
ATOM     11  O   UNL     1       2.294  -6.559  -2.840  0.00  0.00    -0.461 OA
ATOM     12 BR   UNL     1       1.846 -11.875  -5.570  0.00  0.00    -0.050 Br
ENDBRANCH   1   3
BRANCH   1  13
ATOM     13  N   UNL     1       1.552  -3.753  -2.673  0.00  0.00    +0.393 N 
ATOM     14  H   UNL     1       1.967  -4.089  -1.817  0.00  0.00    -0.084 HD
ATOM     15  H   UNL     1       0.608  -4.102  -2.749  0.00  0.00    -0.084 HD
BRANCH  13  16
ATOM     16  C   UNL     1       1.532  -2.285  -2.665  0.00  0.00    +0.014 C 
ATOM     17  C   UNL     1       0.792  -1.778  -3.904  0.00  0.00    -0.004 C 
BRANCH  16  19
ATOM     18  N   UNL     1       0.688  -0.476  -1.203  0.00  0.00    -0.317 N 
ATOM     19  C   UNL     1       0.827  -1.799  -1.425  0.00  0.00    +0.199 C 
ATOM     20  O   UNL     1       0.384  -2.597  -0.627  0.00  0.00    -0.278 OA
ATOM     21  H   UNL     1       1.042   0.162  -1.842  0.00  0.00    +0.149 HD
BRANCH  18  23
ATOM     22  C   UNL     1      -0.019   1.526   0.010  0.00  0.00    +0.024 C 
ATOM     23  C   UNL     1       0.002  -0.004   0.002  0.00  0.00    +0.101 C 
ENDBRANCH  18  23
ENDBRANCH  16  19
ENDBRANCH  13  16
ENDBRANCH   1  13
TORSDOF 5
