REMARK  Name = ZINC37063018
REMARK  6 active torsions:
REMARK  status: ('A' for Active; 'I' for Inactive)
REMARK    1  A    between atoms: C_1  and  C_2
REMARK    2  A    between atoms: C_2  and  C_3
REMARK    3  A    between atoms: C_6  and  S_10
REMARK    4  A    between atoms: C_8  and  N_9
REMARK    5  A    between atoms: S_10  and  N_13
REMARK    6  A    between atoms: N_13  and  C_14
REMARK                            x       y       z     vdW  Elec       q    Type
REMARK                         _______ _______ _______ _____ _____    ______ ____
ROOT
ATOM      1  S   UNL     1      -5.662  -2.096   0.053  0.00  0.00    +0.059 S 
ATOM      2  O   UNL     1      -5.905  -2.650  -1.233  0.00  0.00    -0.153 OA
ATOM      3  O   UNL     1      -5.801  -2.854   1.247  0.00  0.00    -0.153 OA
ENDROOT
BRANCH   1   7
ATOM      4  C   UNL     1      -1.412  -0.526   0.013  0.00  0.00    -0.027 A 
ATOM      5  C   UNL     1      -2.015  -0.864   1.208  0.00  0.00    +0.007 A 
ATOM      6  C   UNL     1      -3.312  -1.343   1.219  0.00  0.00    +0.029 A 
ATOM      7  C   UNL     1      -4.010  -1.485   0.034  0.00  0.00    +0.107 A 
ATOM      8  C   UNL     1      -3.413  -1.148  -1.165  0.00  0.00    +0.051 A 
ATOM      9  C   UNL     1      -2.112  -0.662  -1.179  0.00  0.00    +0.030 A 
BRANCH   9  10
ATOM     10  N   UNL     1      -1.507  -0.315  -2.390  0.00  0.00    -0.358 N 
ATOM     11  H   UNL     1      -0.597   0.021  -2.398  0.00  0.00    +0.142 HD
ATOM     12  H   UNL     1      -1.997  -0.410  -3.221  0.00  0.00    +0.142 HD
ENDBRANCH   9  10
BRANCH   4  14
ATOM     13  C   UNL     1      -0.019   1.526   0.010  0.00  0.00    +0.009 C 
ATOM     14  C   UNL     1       0.002  -0.004   0.002  0.00  0.00    +0.033 C 
ENDBRANCH   4  14
ENDBRANCH   1   7
BRANCH   1  15
ATOM     15  N   UNL     1      -6.667  -0.788   0.202  0.00  0.00    -0.188 NA
ATOM     16  H   UNL     1      -7.211  -0.683   0.998  0.00  0.00    +0.148 HD
BRANCH  15  17
ATOM     17  C   UNL     1      -6.733   0.210  -0.868  0.00  0.00    +0.063 C 
ATOM     18  C   UNL     1      -5.787   1.369  -0.547  0.00  0.00    -0.058 C 
ATOM     19  N   UNL     1      -6.543   2.620  -0.446  0.00  0.00    +0.381 N 
ATOM     20  C   UNL     1      -7.526   2.543   0.638  0.00  0.00    -0.078 C 
ATOM     21  C   UNL     1      -8.529   1.422   0.357  0.00  0.00    -0.014 C 
ATOM     22  C   UNL     1      -8.165   0.751  -0.978  0.00  0.00    +0.002 C 
ATOM     23  C   UNL     1      -8.195   1.819  -2.079  0.00  0.00    -0.014 C 
ATOM     24  C   UNL     1      -7.202   2.929  -1.718  0.00  0.00    -0.078 C 
ATOM     25  H   UNL     1      -5.899   3.366  -0.231  0.00  0.00    -0.082 HD
ENDBRANCH  15  17
ENDBRANCH   1  15
TORSDOF 5
