REMARK  Name = ZINC45196725
REMARK  8 active torsions:
REMARK  status: ('A' for Active; 'I' for Inactive)
REMARK    1  A    between atoms: C_1  and  C_2
REMARK    2  A    between atoms: C_2  and  C_4
REMARK    3  A    between atoms: C_2  and  O_19
REMARK    4  A    between atoms: N_6  and  N_7
REMARK    5  A    between atoms: N_10  and  C_11
REMARK    6  A    between atoms: C_11  and  C_12
REMARK    7  A    between atoms: C_12  and  N_13
REMARK    8  A    between atoms: O_19  and  C_20
REMARK                            x       y       z     vdW  Elec       q    Type
REMARK                         _______ _______ _______ _____ _____    ______ ____
ROOT
ATOM      1  N   UNL     1       2.616  -1.144   2.606  0.00  0.00    -0.218 N 
ATOM      2  C   UNL     1       3.953  -1.089   2.764  0.00  0.00    +0.316 C 
ATOM      3  O   UNL     1       4.460  -1.495   3.792  0.00  0.00    -0.251 OA
ATOM      4  N   UNL     1       4.728  -0.583   1.784  0.00  0.00    -0.300 N 
ATOM      5  H   UNL     1       2.058  -1.508   3.311  0.00  0.00    +0.174 HD
ATOM      6  H   UNL     1       4.323  -0.259   0.965  0.00  0.00    +0.150 HD
ENDROOT
BRANCH   1   9
ATOM      7  C   UNL     1       0.694  -0.732   1.263  0.00  0.00    +0.270 C 
ATOM      8  O   UNL     1      -0.004  -1.187   2.145  0.00  0.00    -0.270 OA
ATOM      9  N   UNL     1       2.031  -0.676   1.422  0.00  0.00    -0.230 N 
ATOM     10  H   UNL     1       2.588  -0.312   0.716  0.00  0.00    +0.173 HD
BRANCH   7  12
ATOM     11  C   UNL     1       0.291   1.280  -0.130  0.00  0.00    +0.062 C 
ATOM     12  C   UNL     1       0.064  -0.228  -0.010  0.00  0.00    +0.257 C 
BRANCH  12  13
ATOM     13  O   UNL     1      -1.339  -0.499   0.012  0.00  0.00    -0.477 OA
BRANCH  13  14
ATOM     14  C   UNL     1      -1.966  -0.607  -1.189  0.00  0.00    +0.157 A 
ATOM     15  C   UNL     1      -1.272  -0.344  -2.361  0.00  0.00    +0.048 A 
ATOM     16  C   UNL     1      -1.912  -0.454  -3.581  0.00  0.00    +0.004 A 
ATOM     17  C   UNL     1      -3.242  -0.826  -3.635  0.00  0.00    +0.003 A 
ATOM     18  C   UNL     1      -3.937  -1.089  -2.470  0.00  0.00    +0.042 A 
ATOM     19  C   UNL     1      -3.301  -0.987  -1.246  0.00  0.00    +0.165 A 
ATOM     20  F   UNL     1      -3.978  -1.249  -0.107  0.00  0.00    -0.202 F 
ENDBRANCH  13  14
ENDBRANCH  12  13
ENDBRANCH   7  12
ENDBRANCH   1   9
BRANCH   4  21
ATOM     21  C   UNL     1       6.181  -0.523   1.957  0.00  0.00    +0.087 C 
BRANCH  21  22
ATOM     22  C   UNL     1       6.818   0.088   0.707  0.00  0.00    -0.060 C 
BRANCH  22  23
ATOM     23  N   UNL     1       8.276   0.149   0.880  0.00  0.00    +0.381 N 
ATOM     24  C   UNL     1       8.599   1.066   1.980  0.00  0.00    -0.079 C 
ATOM     25  C   UNL     1      10.110   1.071   2.218  0.00  0.00    -0.019 C 
ATOM     26  C   UNL     1      10.821   1.531   0.941  0.00  0.00    -0.004 C 
ATOM     27  C   UNL     1      10.418   0.611  -0.215  0.00  0.00    -0.019 C 
ATOM     28  C   UNL     1       8.895   0.623  -0.363  0.00  0.00    -0.079 C 
ATOM     29  H   UNL     1       8.626  -0.772   1.099  0.00  0.00    -0.082 HD
ENDBRANCH  22  23
ENDBRANCH  21  22
ENDBRANCH   4  21
TORSDOF 7
