REMARK  Name = ZINC39600886
REMARK  9 active torsions:
REMARK  status: ('A' for Active; 'I' for Inactive)
REMARK    1  A    between atoms: C_1  and  C_2
REMARK    2  A    between atoms: C_2  and  C_3
REMARK    3  A    between atoms: C_3  and  C_4
REMARK    4  A    between atoms: C_4  and  C_5
REMARK    5  A    between atoms: C_5  and  C_7
REMARK    6  A    between atoms: C_5  and  C_8
REMARK    7  A    between atoms: C_12  and  C_21
REMARK    8  A    between atoms: N_23  and  C_24
REMARK    9  A    between atoms: C_24  and  C_25
REMARK                            x       y       z     vdW  Elec       q    Type
REMARK                         _______ _______ _______ _____ _____    ______ ____
ROOT
ATOM      1  C   UNL     1      -2.959  -3.842   0.024  0.00  0.00    +0.218 C 
ATOM      2  O   UNL     1      -1.857  -4.345  -0.029  0.00  0.00    -0.275 OA
ATOM      3  N   UNL     1      -4.058  -4.619  -0.041  0.00  0.00    -0.300 N 
ATOM      4  C   UNL     1      -5.476  -4.191   0.001  0.00  0.00    +0.121 C 
ATOM      5  C   UNL     1      -6.188  -5.099  -1.027  0.00  0.00    +0.100 C 
ATOM      6  C   UNL     1      -5.296  -6.347  -1.132  0.00  0.00    -0.004 C 
ATOM      7  C   UNL     1      -4.122  -6.094  -0.175  0.00  0.00    +0.115 C 
ATOM      8  C   UNL     1      -6.071  -7.589  -0.703  0.00  0.00    -0.010 C 
ATOM      9  C   UNL     1      -5.182  -8.824  -0.871  0.00  0.00    -0.082 C 
ATOM     10  N   UNL     1      -4.767  -8.943  -2.274  0.00  0.00    +0.379 N 
ATOM     11  C   UNL     1      -3.943  -7.788  -2.652  0.00  0.00    -0.082 C 
ATOM     12  C   UNL     1      -4.781  -6.509  -2.559  0.00  0.00    -0.010 C 
ATOM     13  H   UNL     1      -4.232  -9.790  -2.394  0.00  0.00    -0.086 HD
ATOM     14  H   UNL     1      -5.585  -8.978  -2.864  0.00  0.00    -0.086 HD
ENDROOT
BRANCH   5  15
ATOM     15  C   UNL     1      -6.285  -4.406  -2.362  0.00  0.00    +0.218 C 
ATOM     16  O   UNL     1      -5.434  -3.607  -2.693  0.00  0.00    -0.275 OA
ATOM     17  N   UNL     1      -7.316  -4.674  -3.187  0.00  0.00    -0.311 N 
ATOM     18  H   UNL     1      -7.996  -5.313  -2.922  0.00  0.00    +0.149 HD
BRANCH  17  19
ATOM     19  C   UNL     1      -7.409  -4.000  -4.485  0.00  0.00    +0.142 C 
BRANCH  19  20
ATOM     20  C   UNL     1      -8.644  -4.473  -5.208  0.00  0.00    +0.006 A 
ATOM     21  C   UNL     1      -8.542  -5.438  -6.192  0.00  0.00    +0.023 A 
ATOM     22  C   UNL     1      -9.675  -5.871  -6.856  0.00  0.00    +0.018 A 
ATOM     23  C   UNL     1     -10.912  -5.340  -6.536  0.00  0.00    +0.018 A 
ATOM     24  C   UNL     1     -11.015  -4.375  -5.553  0.00  0.00    +0.040 A 
ATOM     25  C   UNL     1      -9.882  -3.944  -4.883  0.00  0.00    +0.128 A 
ATOM     26  F   UNL     1      -9.983  -3.004  -3.918  0.00  0.00    -0.205 F 
ATOM     27 BR   UNL     1      -9.534  -7.192  -8.203  0.00  0.00    -0.050 Br
ENDBRANCH  19  20
ENDBRANCH  17  19
ENDBRANCH   5  15
BRANCH   1  28
ATOM     28  C   UNL     1      -3.099  -2.348   0.161  0.00  0.00    +0.072 C 
ATOM     29  C   UNL     1      -3.857  -2.023   1.450  0.00  0.00    +0.017 C 
BRANCH  28  30
ATOM     30  C   UNL     1      -1.710  -1.708   0.211  0.00  0.00    +0.012 C 
BRANCH  30  31
ATOM     31  C   UNL     1      -1.851  -0.184   0.225  0.00  0.00    +0.000 C 
BRANCH  31  33
ATOM     32  C   UNL     1      -0.603   1.979   0.288  0.00  0.00    +0.004 C 
ATOM     33  C   UNL     1      -0.462   0.456   0.274  0.00  0.00    -0.003 C 
ENDBRANCH  31  33
ENDBRANCH  30  31
ENDBRANCH  28  30
ENDBRANCH   1  28
TORSDOF 7
