REMARK  Name = ZINC35189270
REMARK  10 active torsions:
REMARK  status: ('A' for Active; 'I' for Inactive)
REMARK    1  A    between atoms: N_11  and  C_12
REMARK    2  A    between atoms: C_14  and  O_36
REMARK    3  A    between atoms: C_16  and  O_35
REMARK    4  A    between atoms: C_18  and  C_21
REMARK    5  A    between atoms: C_21  and  O_22
REMARK    6  A    between atoms: O_22  and  P_23
REMARK    7  A    between atoms: P_23  and  O_26
REMARK    8  A    between atoms: O_26  and  P_27
REMARK    9  A    between atoms: P_27  and  O_30
REMARK   10  A    between atoms: O_30  and  P_31
REMARK                            x       y       z     vdW  Elec       q    Type
REMARK                         _______ _______ _______ _____ _____    ______ ____
ROOT
ATOM      1  C   UNL     1      -0.455  -3.149  -0.011  0.00  0.00    +0.253 C 
ATOM      2  C   UNL     1      -0.017  -3.500   1.433  0.00  0.00    +0.195 C 
ATOM      3  C   UNL     1       0.425  -4.978   1.256  0.00  0.00    +0.178 C 
ATOM      4  C   UNL     1      -0.560  -5.488   0.182  0.00  0.00    +0.178 C 
ATOM      5  O   UNL     1      -1.065  -4.346  -0.522  0.00  0.00    -0.346 OA
ENDROOT
BRANCH   1  16
ATOM      6  C   UNL     1      -0.016   1.299   0.009  0.00  0.00    +0.201 A 
ATOM      7  N   UNL     1       0.002  -0.004   0.002  0.00  0.00    -0.218 NA
ATOM      8  H   UNL     1      -1.147   2.976   0.034  0.00  0.00    +0.170 HD
ATOM      9  C   UNL     1      -1.134  -0.715   0.009  0.00  0.00    +0.169 A 
ATOM     10  C   UNL     1      -2.364  -0.050   0.024  0.00  0.00    +0.172 A 
ATOM     11  C   UNL     1      -2.365   1.367   0.032  0.00  0.00    +0.279 A 
ATOM     12  O   UNL     1      -3.411   1.993   0.046  0.00  0.00    -0.265 OA
ATOM     13  N   UNL     1      -1.174   2.006   0.030  0.00  0.00    -0.312 N 
ATOM     14  N   UNL     1      -3.333  -0.995   0.028  0.00  0.00    -0.229 NA
ATOM     15  C   UNL     1      -2.783  -2.175   0.016  0.00  0.00    +0.203 A 
ATOM     16  N   UNL     1      -1.425  -2.051   0.004  0.00  0.00    -0.285 N 
ENDBRANCH   1  16
BRANCH   3  17
ATOM     17  O   UNL     1       0.273  -5.704   2.477  0.00  0.00    -0.386 OA
ATOM     18  H   UNL     1       0.810  -5.364   3.206  0.00  0.00    +0.210 HD
ENDBRANCH   3  17
BRANCH   2  19
ATOM     19  O   UNL     1       1.077  -2.681   1.852  0.00  0.00    -0.385 OA
ATOM     20  H   UNL     1       1.385  -2.866   2.749  0.00  0.00    +0.210 HD
ENDBRANCH   2  19
BRANCH   4  21
ATOM     21  C   UNL     1       0.168  -6.418  -0.791  0.00  0.00    +0.206 C 
BRANCH  21  22
ATOM     22  O   UNL     1      -0.773  -6.976  -1.710  0.00  0.00    -0.282 OA
BRANCH  22  23
ATOM     23  P   UNL     1      -0.355  -8.003  -2.878  0.00  0.00    +0.513 P 
ATOM     24  O   UNL     1       0.755  -7.370  -3.746  0.00  0.00    -0.224 OA
ATOM     25  O   UNL     1       0.167  -9.314  -2.249  0.00  0.00    -0.116 OA
BRANCH  23  26
ATOM     26  O   UNL     1      -1.638  -8.322  -3.797  0.00  0.00    -0.183 OA
BRANCH  26  27
ATOM     27  P   UNL     1      -1.836  -8.991  -5.248  0.00  0.00    +0.522 P 
ATOM     28  O   UNL     1      -0.720  -8.501  -6.197  0.00  0.00    -0.224 OA
ATOM     29  O   UNL     1      -1.765 -10.529  -5.120  0.00  0.00    -0.116 OA
BRANCH  27  30
ATOM     30  O   UNL     1      -3.271  -8.567  -5.843  0.00  0.00    -0.181 OA
BRANCH  30  31
ATOM     31  P   UNL     1      -3.937  -8.629  -7.307  0.00  0.00    +0.540 P 
ATOM     32  O   UNL     1      -2.868  -8.237  -8.384  0.00  0.00    -0.222 OA
ATOM     33  O   UNL     1      -4.450 -10.083  -7.587  0.00  0.00    -0.114 OA
ATOM     34  O   UNL     1      -5.140  -7.628  -7.377  0.00  0.00    -0.114 OA
ENDBRANCH  30  31
ENDBRANCH  27  30
ENDBRANCH  26  27
ENDBRANCH  23  26
ENDBRANCH  22  23
ENDBRANCH  21  22
ENDBRANCH   4  21
TORSDOF 10
