REMARK  Name = ZINC12500163
REMARK  7 active torsions:
REMARK  status: ('A' for Active; 'I' for Inactive)
REMARK    1  A    between atoms: C_3  and  S_23
REMARK    2  A    between atoms: C_6  and  N_7
REMARK    3  A    between atoms: N_7  and  C_8
REMARK    4  A    between atoms: C_8  and  N_10
REMARK    5  A    between atoms: C_11  and  C_13
REMARK    6  A    between atoms: C_17  and  N_19
REMARK    7  A    between atoms: S_23  and  N_26
REMARK                            x       y       z     vdW  Elec       q    Type
REMARK                         _______ _______ _______ _____ _____    ______ ____
ROOT
ATOM      1  C   UNL     1      -2.805   4.215   5.426  0.00  0.00    +0.141 C 
ATOM      2  S   UNL     1      -1.667   5.293   4.737  0.00  0.00    -0.018 S 
ENDROOT
BRANCH   1   3
ATOM      3  N   UNL     1      -3.429   4.539   6.576  0.00  0.00    -0.264 N 
ATOM      4  C   UNL     1      -3.158   5.712   7.183  0.00  0.00    +0.250 C 
ATOM      5  O   UNL     1      -2.350   6.477   6.693  0.00  0.00    -0.270 OA
ATOM      6  H   UNL     1      -4.074   3.929   6.967  0.00  0.00    +0.157 HD
BRANCH   4   7
ATOM      7  C   UNL     1      -3.842   6.067   8.443  0.00  0.00    +0.039 A 
ATOM      8  C   UNL     1      -4.775   5.193   9.005  0.00  0.00    +0.014 A 
ATOM      9  C   UNL     1      -5.406   5.527  10.184  0.00  0.00    +0.023 A 
ATOM     10  C   UNL     1      -5.125   6.733  10.805  0.00  0.00    +0.071 A 
ATOM     11  C   UNL     1      -4.205   7.607  10.250  0.00  0.00    +0.145 A 
ATOM     12  C   UNL     1      -3.563   7.281   9.074  0.00  0.00    +0.047 A 
ATOM     13 CL   UNL     1      -5.928   7.151  12.287  0.00  0.00    -0.081 Cl
BRANCH  11  14
ATOM     14  N   UNL     1      -3.910   8.894  10.920  0.00  0.00    +0.058 N 
ATOM     15  O   UNL     1      -3.101   9.663  10.433  0.00  0.00    -0.126 OA
ATOM     16  O   UNL     1      -4.477   9.183  11.959  0.00  0.00    -0.126 OA
ENDBRANCH  11  14
ENDBRANCH   4   7
ENDBRANCH   1   3
BRANCH   1  17
ATOM     17  N   UNL     1      -3.076   3.043   4.820  0.00  0.00    -0.297 N 
ATOM     18  H   UNL     1      -3.778   2.469   5.165  0.00  0.00    +0.154 HD
BRANCH  17  24
ATOM     19  C   UNL     1      -0.972   2.847   3.651  0.00  0.00    +0.025 A 
ATOM     20  C   UNL     1      -0.255   2.462   2.536  0.00  0.00    +0.030 A 
ATOM     21  C   UNL     1      -0.903   1.884   1.460  0.00  0.00    +0.105 A 
ATOM     22  C   UNL     1      -2.273   1.694   1.495  0.00  0.00    +0.030 A 
ATOM     23  C   UNL     1      -2.995   2.073   2.610  0.00  0.00    +0.025 A 
ATOM     24  C   UNL     1      -2.347   2.654   3.692  0.00  0.00    +0.033 A 
BRANCH  21  25
ATOM     25  S   UNL     1       0.016   1.394   0.039  0.00  0.00    +0.056 S 
ATOM     26  O   UNL     1       1.199   2.180   0.029  0.00  0.00    -0.153 OA
ATOM     27  O   UNL     1      -0.897   1.378  -1.050  0.00  0.00    -0.153 OA
BRANCH  25  28
ATOM     28  N   UNL     1       0.492  -0.174   0.280  0.00  0.00    -0.204 NA
ATOM     29  H   UNL     1       1.436  -0.398   0.292  0.00  0.00    +0.144 HD
ATOM     30  H   UNL     1      -0.173  -0.868   0.409  0.00  0.00    +0.144 HD
ENDBRANCH  25  28
ENDBRANCH  21  25
ENDBRANCH  17  24
ENDBRANCH   1  17
TORSDOF 7
