REMARK  Name = ZINC67389841
REMARK  9 active torsions:
REMARK  status: ('A' for Active; 'I' for Inactive)
REMARK    1  A    between atoms: C_1  and  C_2
REMARK    2  A    between atoms: C_6  and  C_7
REMARK    3  A    between atoms: N_9  and  N_10
REMARK    4  A    between atoms: N_13  and  C_14
REMARK    5  A    between atoms: C_14  and  C_15
REMARK    6  A    between atoms: C_15  and  C_17
REMARK    7  A    between atoms: C_15  and  N_22
REMARK    8  A    between atoms: N_22  and  C_23
REMARK    9  A    between atoms: N_22  and  C_24
REMARK                            x       y       z     vdW  Elec       q    Type
REMARK                         _______ _______ _______ _____ _____    ______ ____
ROOT
ATOM      1  N   UNL     1       0.014  -0.822   4.670  0.00  0.00    -0.218 N 
ATOM      2  C   UNL     1      -0.071  -1.670   5.714  0.00  0.00    +0.316 C 
ATOM      3  O   UNL     1      -0.244  -1.236   6.836  0.00  0.00    -0.251 OA
ATOM      4  N   UNL     1       0.037  -2.998   5.513  0.00  0.00    -0.299 N 
ATOM      5  H   UNL     1      -0.064   0.135   4.814  0.00  0.00    +0.174 HD
ATOM      6  H   UNL     1       0.176  -3.344   4.617  0.00  0.00    +0.150 HD
ENDROOT
BRANCH   1   9
ATOM      7  C   UNL     1       0.298  -0.473   2.332  0.00  0.00    +0.267 C 
ATOM      8  O   UNL     1       0.201   0.727   2.513  0.00  0.00    -0.268 OA
ATOM      9  N   UNL     1       0.214  -1.321   3.376  0.00  0.00    -0.229 N 
ATOM     10  H   UNL     1       0.291  -2.277   3.232  0.00  0.00    +0.173 HD
BRANCH   7  16
ATOM     11  C   UNL     1       0.537   1.200  -0.285  0.00  0.00    +0.045 C 
ATOM     12  C   UNL     1       0.621  -0.303  -0.218  0.00  0.00    -0.031 A 
ATOM     13  C   UNL     1       0.821  -1.075  -1.337  0.00  0.00    +0.011 A 
ATOM     14  C   UNL     1       0.887  -2.422  -1.206  0.00  0.00    +0.046 A 
ATOM     15  S   UNL     1       0.680  -2.686   0.441  0.00  0.00    -0.092 S 
ATOM     16  C   UNL     1       0.507  -0.995   0.978  0.00  0.00    +0.078 A 
ENDBRANCH   7  16
ENDBRANCH   1   9
BRANCH   4  17
ATOM     17  C   UNL     1      -0.055  -3.920   6.648  0.00  0.00    +0.095 C 
BRANCH  17  18
ATOM     18  C   UNL     1      -0.013  -5.362   6.138  0.00  0.00    -0.020 C 
BRANCH  18  19
ATOM     19  C   UNL     1       1.324  -5.630   5.497  0.00  0.00    -0.052 A 
ATOM     20  C   UNL     1       1.463  -5.590   4.122  0.00  0.00    +0.009 A 
ATOM     21  C   UNL     1       2.679  -5.835   3.577  0.00  0.00    +0.045 A 
ATOM     22  S   UNL     1       3.679  -6.136   5.025  0.00  0.00    -0.105 S 
ATOM     23  C   UNL     1       2.409  -5.908   6.259  0.00  0.00    +0.047 A 
ENDBRANCH  18  19
BRANCH  18  24
ATOM     24  N   UNL     1      -0.210  -6.285   7.264  0.00  0.00    +0.382 N 
ATOM     25  C   UNL     1      -1.508  -6.017   7.896  0.00  0.00    -0.096 C 
ATOM     26  C   UNL     1      -0.181  -7.669   6.773  0.00  0.00    -0.096 C 
ATOM     27  H   UNL     1       0.527  -6.152   7.940  0.00  0.00    -0.082 HD
ENDBRANCH  18  24
ENDBRANCH  17  18
ENDBRANCH   4  17
TORSDOF 6
