REMARK  Name = ZINC12155728
REMARK  10 active torsions:
REMARK  status: ('A' for Active; 'I' for Inactive)
REMARK    1  A    between atoms: C_1  and  O_2
REMARK    2  A    between atoms: O_2  and  C_3
REMARK    3  A    between atoms: C_6  and  O_35
REMARK    4  A    between atoms: C_7  and  N_9
REMARK    5  A    between atoms: C_10  and  C_12
REMARK    6  A    between atoms: C_16  and  C_21
REMARK    7  A    between atoms: C_21  and  O_34
REMARK    8  A    between atoms: C_26  and  C_27
REMARK    9  A    between atoms: C_26  and  N_70
REMARK   10  A    between atoms: O_35  and  C_36
REMARK                            x       y       z     vdW  Elec       q    Type
REMARK                         _______ _______ _______ _____ _____    ______ ____
ROOT
ATOM      1  C   UNL     1     -12.223  -2.762  -2.694  0.00  0.00    +0.191 A 
ATOM      2  C   UNL     1     -11.008  -3.073  -3.215  0.00  0.00    +0.063 A 
ATOM      3  C   UNL     1     -10.132  -1.945  -2.901  0.00  0.00    +0.021 A 
ATOM      4  C   UNL     1      -8.789  -1.655  -3.154  0.00  0.00    +0.018 A 
ATOM      5  C   UNL     1      -8.255  -0.478  -2.713  0.00  0.00    -0.015 A 
ATOM      6  C   UNL     1      -9.037   0.429  -2.010  0.00  0.00    +0.010 A 
ATOM      7  C   UNL     1     -10.365   0.164  -1.754  0.00  0.00    +0.047 A 
ATOM      8  C   UNL     1     -10.930  -1.027  -2.193  0.00  0.00    +0.136 A 
ATOM      9  O   UNL     1     -12.166  -1.555  -2.094  0.00  0.00    -0.450 OA
ENDROOT
BRANCH   5  10
ATOM     10  C   UNL     1      -6.807  -0.164  -2.985  0.00  0.00    +0.088 C 
ATOM     11  C   UNL     1      -6.626   1.352  -3.104  0.00  0.00    +0.021 C 
ATOM     12  C   UNL     1      -5.144   1.669  -3.320  0.00  0.00    -0.076 C 
ATOM     13  C   UNL     1      -4.483  -0.309  -2.084  0.00  0.00    -0.076 C 
ATOM     14  C   UNL     1      -5.945  -0.684  -1.832  0.00  0.00    +0.021 C 
ATOM     15  N   UNL     1      -4.372   1.163  -2.164  0.00  0.00    +0.380 N 
ATOM     16  H   UNL     1      -4.754   1.573  -1.304  0.00  0.00    -0.082 HD
BRANCH  10  17
ATOM     17  O   UNL     1      -6.404  -0.790  -4.205  0.00  0.00    -0.384 OA
ATOM     18  H   UNL     1      -6.492  -1.753  -4.200  0.00  0.00    +0.211 HD
ENDBRANCH  10  17
BRANCH  15  19
ATOM     19  C   UNL     1      -2.954   1.557  -2.294  0.00  0.00    -0.075 C 
BRANCH  19  20
ATOM     20  C   UNL     1      -2.228   1.219  -0.990  0.00  0.00    -0.024 C 
ATOM     21  C   UNL     1      -0.732   1.525  -1.139  0.00  0.00    +0.006 C 
ATOM     22  C   UNL     1      -0.007   1.014   0.108  0.00  0.00    +0.027 C 
ATOM     23  C   UNL     1      -0.709   1.494   1.344  0.00  0.00    -0.031 C 
ATOM     24  C   UNL     1      -1.917   1.952   1.364  0.00  0.00    -0.031 C 
ATOM     25  C   UNL     1      -2.787   2.076   0.147  0.00  0.00    +0.028 C 
ENDBRANCH  19  20
ENDBRANCH  15  19
ENDBRANCH   5  10
BRANCH   1  27
ATOM     26  N   UNL     1     -14.576  -3.200  -2.215  0.00  0.00    -0.276 N 
ATOM     27  C   UNL     1     -13.419  -3.612  -2.771  0.00  0.00    +0.284 C 
ATOM     28  O   UNL     1     -13.366  -4.688  -3.338  0.00  0.00    -0.266 OA
ATOM     29  H   UNL     1     -14.603  -2.373  -1.708  0.00  0.00    +0.155 HD
BRANCH  26  34
ATOM     30  C   UNL     1     -16.811  -6.104  -2.562  0.00  0.00    +0.122 A 
ATOM     31  C   UNL     1     -18.043  -5.476  -2.675  0.00  0.00    +0.049 A 
ATOM     32  C   UNL     1     -18.125  -4.097  -2.636  0.00  0.00    +0.051 A 
ATOM     33  C   UNL     1     -16.977  -3.338  -2.477  0.00  0.00    +0.141 A 
ATOM     34  C   UNL     1     -15.738  -3.965  -2.369  0.00  0.00    +0.079 A 
ATOM     35  C   UNL     1     -15.659  -5.349  -2.409  0.00  0.00    +0.072 A 
BRANCH  30  37
ATOM     36  C   UNL     1     -17.962  -8.176  -2.760  0.00  0.00    +0.277 C 
ATOM     37  O   UNL     1     -16.735  -7.461  -2.601  0.00  0.00    -0.495 OA
ENDBRANCH  30  37
BRANCH  33  38
ATOM     38  O   UNL     1     -17.060  -1.980  -2.433  0.00  0.00    -0.493 OA
ATOM     39  C   UNL     1     -18.363  -1.405  -2.550  0.00  0.00    +0.277 C 
ENDBRANCH  33  38
ENDBRANCH  26  34
ENDBRANCH   1  27
TORSDOF 8
