REMARK  Name = ZINC00931424
REMARK  11 active torsions:
REMARK  status: ('A' for Active; 'I' for Inactive)
REMARK    1  A    between atoms: C_1  and  C_2
REMARK    2  A    between atoms: C_6  and  C_8
REMARK    3  A    between atoms: C_8  and  C_9
REMARK    4  A    between atoms: C_9  and  N_10
REMARK    5  A    between atoms: N_10  and  C_11
REMARK    6  A    between atoms: C_11  and  C_13
REMARK    7  A    between atoms: C_11  and  C_20
REMARK    8  A    between atoms: N_15  and  C_19
REMARK    9  A    between atoms: C_17  and  C_18
REMARK   10  A    between atoms: N_22  and  C_23
REMARK   11  A    between atoms: C_29  and  C_31
REMARK                            x       y       z     vdW  Elec       q    Type
REMARK                         _______ _______ _______ _____ _____    ______ ____
ROOT
ATOM      1  N   UNL     1      -2.523   8.007   0.208  0.00  0.00    -0.282 N 
ATOM      2  C   UNL     1      -1.397   7.286   0.371  0.00  0.00    +0.261 C 
ATOM      3  O   UNL     1      -0.345   7.697  -0.071  0.00  0.00    -0.271 OA
ENDROOT
BRANCH   2   4
ATOM      4  C   UNL     1      -1.444   5.970   1.103  0.00  0.00    +0.296 C 
ATOM      5  C   UNL     1      -2.056   4.894   0.196  0.00  0.00    +0.283 C 
ATOM      6  O   UNL     1      -2.073   3.657   0.916  0.00  0.00    -0.484 OA
ATOM      7  C   UNL     1      -0.931   3.317   1.575  0.00  0.00    +0.162 A 
ATOM      8  C   UNL     1      -0.741   2.003   1.975  0.00  0.00    +0.049 A 
ATOM      9  C   UNL     1       0.409   1.645   2.652  0.00  0.00    +0.004 A 
ATOM     10  C   UNL     1       1.378   2.592   2.923  0.00  0.00    +0.004 A 
ATOM     11  C   UNL     1       1.198   3.902   2.521  0.00  0.00    +0.049 A 
ATOM     12  C   UNL     1       0.044   4.270   1.845  0.00  0.00    +0.163 A 
ATOM     13  O   UNL     1      -0.115   5.562   1.449  0.00  0.00    -0.473 OA
ENDBRANCH   2   4
BRANCH   1  14
ATOM     14  C   UNL     1      -3.781   7.546   0.802  0.00  0.00    +0.113 C 
BRANCH  14  15
ATOM     15  C   UNL     1      -3.967   8.198   2.173  0.00  0.00    +0.054 C 
BRANCH  15  21
ATOM     16  C   UNL     1      -8.894   8.367   3.038  0.00  0.00    +0.044 C 
ATOM     17  C   UNL     1      -7.553   7.712   3.250  0.00  0.00    -0.050 A 
ATOM     18  C   UNL     1      -7.450   6.592   4.053  0.00  0.00    +0.003 A 
ATOM     19  C   UNL     1      -6.220   5.992   4.248  0.00  0.00    +0.001 A 
ATOM     20  C   UNL     1      -5.093   6.512   3.640  0.00  0.00    +0.004 A 
ATOM     21  C   UNL     1      -5.196   7.631   2.836  0.00  0.00    -0.046 A 
ATOM     22  C   UNL     1      -6.425   8.234   2.645  0.00  0.00    +0.007 A 
ENDBRANCH  15  21
ENDBRANCH  14  15
ENDBRANCH   1  14
BRANCH   1  23
ATOM     23  C   UNL     1      -2.491   9.253  -0.563  0.00  0.00    +0.195 C 
BRANCH  23  24
ATOM     24  C   UNL     1      -2.168   8.944  -2.002  0.00  0.00    +0.022 A 
ATOM     25  C   UNL     1      -1.485   7.866  -2.451  0.00  0.00    +0.114 A 
ATOM     26  N   UNL     1      -1.411   7.957  -3.796  0.00  0.00    -0.274 N 
ATOM     27  N   UNL     1      -2.064   9.134  -4.185  0.00  0.00    -0.176 NA
ATOM     28  C   UNL     1      -2.517   9.725  -3.109  0.00  0.00    +0.065 A 
ATOM     29  C   UNL     1      -3.283  11.022  -3.070  0.00  0.00    +0.068 C 
ATOM     30  C   UNL     1      -0.759   6.997  -4.690  0.00  0.00    +0.172 C 
ENDBRANCH  23  24
BRANCH  23  31
ATOM     31  C   UNL     1      -1.436  10.167   0.004  0.00  0.00    +0.238 C 
ATOM     32  O   UNL     1      -0.776   9.813   0.958  0.00  0.00    -0.273 OA
ATOM     33  N   UNL     1      -1.226  11.378  -0.549  0.00  0.00    -0.311 N 
ATOM     34  H   UNL     1      -1.754  11.661  -1.312  0.00  0.00    +0.149 HD
BRANCH  33  35
ATOM     35  C   UNL     1      -0.200  12.267   0.002  0.00  0.00    +0.073 C 
ATOM     36  C   UNL     1      -0.788  13.064   1.167  0.00  0.00    +0.022 C 
ATOM     37  C   UNL     1       0.283  13.992   1.743  0.00  0.00    +0.002 C 
ATOM     38  C   UNL     1       0.761  14.956   0.655  0.00  0.00    +0.000 C 
ATOM     39  C   UNL     1       1.349  14.159  -0.511  0.00  0.00    +0.002 C 
ATOM     40  C   UNL     1       0.278  13.231  -1.086  0.00  0.00    +0.022 C 
ENDBRANCH  33  35
ENDBRANCH  23  31
ENDBRANCH   1  23
TORSDOF 8
