REMARK  Name = ZINC40701860
REMARK  6 active torsions:
REMARK  status: ('A' for Active; 'I' for Inactive)
REMARK    1  A    between atoms: C_4  and  C_7
REMARK    2  A    between atoms: C_7  and  N_8
REMARK    3  A    between atoms: C_16  and  N_32
REMARK    4  A    between atoms: C_17  and  N_21
REMARK    5  A    between atoms: N_21  and  C_22
REMARK    6  A    between atoms: C_27  and  C_28
REMARK                            x       y       z     vdW  Elec       q    Type
REMARK                         _______ _______ _______ _____ _____    ______ ____
ROOT
ATOM      1  N   UNL     1       4.008  -1.056   1.778  0.00  0.00    -0.264 N 
ATOM      2  C   UNL     1       2.669  -0.775   2.030  0.00  0.00    +0.127 A 
ATOM      3  C   UNL     1       1.686  -1.663   1.604  0.00  0.00    +0.044 A 
ATOM      4  C   UNL     1       0.359  -1.371   1.861  0.00  0.00    +0.005 A 
ATOM      5  C   UNL     1       0.058  -0.197   2.540  0.00  0.00    +0.020 A 
ATOM      6  C   UNL     1       1.084   0.638   2.934  0.00  0.00    +0.113 A 
ATOM      7  N   UNL     1       2.342   0.332   2.679  0.00  0.00    -0.240 NA
ATOM      8  C   UNL     1       5.003  -0.257   2.333  0.00  0.00    +0.153 A 
ATOM      9  C   UNL     1       5.610  -0.616   3.538  0.00  0.00    +0.104 A 
ATOM     10  C   UNL     1       6.603   0.221   4.050  0.00  0.00    +0.126 A 
ATOM     11  N   UNL     1       6.931   1.320   3.376  0.00  0.00    -0.333 N 
ATOM     12  C   UNL     1       6.333   1.622   2.241  0.00  0.00    +0.200 A 
ATOM     13  N   UNL     1       5.395   0.857   1.720  0.00  0.00    -0.220 NA
ATOM     14  H   UNL     1       7.620   1.908   3.724  0.00  0.00    +0.168 HD
ENDROOT
BRANCH   9  15
ATOM     15  N   UNL     1       5.231  -1.785   4.216  0.00  0.00    -0.353 N 
ATOM     16  H   UNL     1       4.598  -2.398   3.810  0.00  0.00    +0.143 HD
ATOM     17  H   UNL     1       5.604  -1.981   5.090  0.00  0.00    +0.143 HD
ENDBRANCH   9  15
BRANCH  10  18
ATOM     18  N   UNL     1       7.239  -0.089   5.247  0.00  0.00    -0.299 N 
ATOM     19  H   UNL     1       7.052  -0.931   5.692  0.00  0.00    +0.154 HD
BRANCH  18  20
ATOM     20  C   UNL     1       8.148   0.812   5.809  0.00  0.00    +0.044 A 
ATOM     21  C   UNL     1       9.513   0.623   5.636  0.00  0.00    +0.024 A 
ATOM     22  C   UNL     1      10.408   1.514   6.193  0.00  0.00    +0.002 A 
ATOM     23  C   UNL     1       9.947   2.595   6.923  0.00  0.00    +0.001 A 
ATOM     24  C   UNL     1       8.588   2.786   7.097  0.00  0.00    +0.014 A 
ATOM     25  C   UNL     1       7.688   1.901   6.537  0.00  0.00    +0.076 A 
BRANCH  25  26
ATOM     26  C   UNL     1       6.207   2.114   6.722  0.00  0.00    +0.419 C 
ATOM     27  F   UNL     1       5.993   3.268   7.484  0.00  0.00    -0.166 F 
ATOM     28  F   UNL     1       5.598   2.262   5.471  0.00  0.00    -0.166 F 
ATOM     29  F   UNL     1       5.656   1.010   7.382  0.00  0.00    -0.166 F 
ENDBRANCH  25  26
ENDBRANCH  18  20
ENDBRANCH  10  18
BRANCH   1  30
ATOM     30  C   UNL     1       4.371  -2.192   0.927  0.00  0.00    +0.149 C 
BRANCH  30  34
ATOM     31  C   UNL     1       4.613  -0.910  -3.140  0.00  0.00    +0.000 A 
ATOM     32  C   UNL     1       5.733  -0.859  -2.331  0.00  0.00    +0.000 A 
ATOM     33  C   UNL     1       5.655  -1.274  -1.015  0.00  0.00    +0.005 A 
ATOM     34  C   UNL     1       4.456  -1.739  -0.507  0.00  0.00    -0.030 A 
ATOM     35  C   UNL     1       3.336  -1.789  -1.316  0.00  0.00    +0.005 A 
ATOM     36  C   UNL     1       3.415  -1.375  -2.632  0.00  0.00    +0.000 A 
ENDBRANCH  30  34
ENDBRANCH   1  30
TORSDOF 6
