REMARK  Name = ZINC54429527
REMARK  7 active torsions:
REMARK  status: ('A' for Active; 'I' for Inactive)
REMARK    1  A    between atoms: C_6  and  C_25
REMARK    2  A    between atoms: C_7  and  N_9
REMARK    3  A    between atoms: C_10  and  C_12
REMARK    4  A    between atoms: C_12  and  C_13
REMARK    5  A    between atoms: C_13  and  N_14
REMARK    6  A    between atoms: N_17  and  C_20
REMARK    7  A    between atoms: C_20  and  C_21
REMARK                            x       y       z     vdW  Elec       q    Type
REMARK                         _______ _______ _______ _____ _____    ______ ____
ROOT
ATOM      1  N   UNL     1       2.096  -3.210   3.401  0.00  0.00    -0.279 N 
ATOM      2  C   UNL     1       2.994  -3.311   4.401  0.00  0.00    +0.216 C 
ATOM      3  O   UNL     1       3.661  -2.348   4.716  0.00  0.00    -0.276 OA
ATOM      4  H   UNL     1       1.563  -3.980   3.148  0.00  0.00    +0.155 HD
ENDROOT
BRANCH   1  11
ATOM      5  C   UNL     1       0.183   1.658   0.052  0.00  0.00    +0.005 C 
ATOM      6  C   UNL     1       1.614   2.203   0.083  0.00  0.00    +0.005 C 
ATOM      7  C   UNL     1       2.236   1.891   1.452  0.00  0.00    +0.043 C 
ATOM      8  C   UNL     1       1.976   0.450   1.769  0.00  0.00    -0.004 A 
ATOM      9  C   UNL     1       1.089  -0.367   1.160  0.00  0.00    -0.023 A 
ATOM     10  C   UNL     1       1.067  -1.719   1.691  0.00  0.00    +0.068 A 
ATOM     11  C   UNL     1       1.934  -2.005   2.733  0.00  0.00    +0.084 A 
ATOM     12  S   UNL     1       2.743  -0.559   3.003  0.00  0.00    -0.077 S 
ATOM     13  C   UNL     1       0.210   0.128   0.022  0.00  0.00    +0.037 C 
BRANCH  10  14
ATOM     14  C   UNL     1       0.164  -2.738   1.147  0.00  0.00    +0.244 C 
ATOM     15  O   UNL     1       0.529  -3.446   0.226  0.00  0.00    -0.270 OA
ATOM     16  N   UNL     1      -1.071  -2.890   1.665  0.00  0.00    -0.325 N 
ATOM     17  H   UNL     1      -1.362  -2.326   2.399  0.00  0.00    +0.145 HD
ATOM     18  H   UNL     1      -1.669  -3.564   1.305  0.00  0.00    +0.145 HD
ENDBRANCH  10  14
ENDBRANCH   1  11
BRANCH   2  19
ATOM     19  C   UNL     1       3.170  -4.620   5.126  0.00  0.00    +0.077 C 
BRANCH  19  20
ATOM     20  C   UNL     1       4.243  -4.464   6.206  0.00  0.00    -0.069 C 
BRANCH  20  21
ATOM     21  N   UNL     1       4.415  -5.740   6.913  0.00  0.00    +0.382 N 
ATOM     22  C   UNL     1       3.179  -6.070   7.635  0.00  0.00    -0.063 C 
ATOM     23  C   UNL     1       3.351  -7.408   8.357  0.00  0.00    +0.066 C 
ATOM     24  N   UNL     1       4.477  -7.314   9.296  0.00  0.00    -0.298 NA
ATOM     25  C   UNL     1       5.717  -6.960   8.591  0.00  0.00    +0.066 C 
ATOM     26  C   UNL     1       5.525  -5.625   7.867  0.00  0.00    -0.063 C 
ATOM     27  H   UNL     1       4.619  -6.469   6.246  0.00  0.00    -0.082 HD
BRANCH  24  28
ATOM     28  C   UNL     1       4.639  -8.564  10.051  0.00  0.00    +0.198 C 
BRANCH  28  29
ATOM     29  C   UNL     1       3.569  -8.643  11.142  0.00  0.00    +0.402 C 
ATOM     30  F   UNL     1       2.306  -8.752  10.549  0.00  0.00    -0.169 F 
ATOM     31  F   UNL     1       3.804  -9.764  11.945  0.00  0.00    -0.169 F 
ATOM     32  F   UNL     1       3.617  -7.487  11.928  0.00  0.00    -0.169 F 
ENDBRANCH  28  29
ENDBRANCH  24  28
ENDBRANCH  20  21
ENDBRANCH  19  20
ENDBRANCH   2  19
TORSDOF 7
