REMARK  Name = ZINC09505029
REMARK  6 active torsions:
REMARK  status: ('A' for Active; 'I' for Inactive)
REMARK    1  A    between atoms: C_1  and  N_54
REMARK    2  A    between atoms: C_7  and  N_12
REMARK    3  A    between atoms: C_8  and  C_9
REMARK    4  A    between atoms: C_13  and  C_15
REMARK    5  A    between atoms: N_18  and  S_21
REMARK    6  A    between atoms: S_21  and  C_24
REMARK                            x       y       z     vdW  Elec       q    Type
REMARK                         _______ _______ _______ _____ _____    ______ ____
ROOT
ATOM      1  N   UNL     1      -0.011   0.966   0.007  0.00  0.00    -0.279 N 
ATOM      2  C   UNL     1      -1.187   1.624   0.017  0.00  0.00    +0.221 C 
ATOM      3  O   UNL     1      -1.204   2.836   0.023  0.00  0.00    -0.275 OA
ATOM      4  H   UNL     1       0.002  -0.004   0.002  0.00  0.00    +0.155 HD
ENDROOT
BRANCH   1  11
ATOM      5  C   UNL     1       6.414   5.278   0.191  0.00  0.00    -0.096 C 
ATOM      6  C   UNL     1       5.828   3.026  -0.480  0.00  0.00    -0.074 C 
ATOM      7  C   UNL     1       5.042   1.787  -0.041  0.00  0.00    +0.018 C 
ATOM      8  C   UNL     1       3.561   2.147  -0.021  0.00  0.00    -0.027 A 
ATOM      9  C   UNL     1       3.178   3.445  -0.009  0.00  0.00    -0.021 A 
ATOM     10  S   UNL     1       1.410   3.393  -0.001  0.00  0.00    -0.079 S 
ATOM     11  C   UNL     1       1.180   1.675  -0.000  0.00  0.00    +0.084 A 
ATOM     12  C   UNL     1       2.478   1.182  -0.015  0.00  0.00    +0.068 A 
ATOM     13  C   UNL     1       4.082   4.638  -0.009  0.00  0.00    -0.036 C 
ATOM     14  N   UNL     1       5.442   4.176   0.362  0.00  0.00    +0.381 N 
ATOM     15  H   UNL     1       5.439   3.884   1.346  0.00  0.00    -0.082 HD
BRANCH  12  16
ATOM     16  C   UNL     1       2.744  -0.260  -0.025  0.00  0.00    +0.244 C 
ATOM     17  O   UNL     1       2.845  -0.853  -1.083  0.00  0.00    -0.270 OA
ATOM     18  N   UNL     1       2.877  -0.928   1.138  0.00  0.00    -0.325 N 
ATOM     19  H   UNL     1       2.797  -0.456   1.981  0.00  0.00    +0.145 HD
ATOM     20  H   UNL     1       3.053  -1.882   1.132  0.00  0.00    +0.145 HD
ENDBRANCH  12  16
ENDBRANCH   1  11
BRANCH   2  21
ATOM     21  C   UNL     1      -2.482   0.853   0.018  0.00  0.00    +0.078 C 
ATOM     22  C   UNL     1      -2.556  -0.023  -1.235  0.00  0.00    +0.030 C 
ATOM     23  C   UNL     1      -3.857  -0.831  -1.212  0.00  0.00    +0.110 C 
ATOM     24  N   UNL     1      -4.987   0.096  -1.056  0.00  0.00    -0.176 NA
ATOM     25  C   UNL     1      -4.972   1.044   0.066  0.00  0.00    +0.110 C 
ATOM     26  C   UNL     1      -3.658   1.831   0.029  0.00  0.00    +0.030 C 
BRANCH  24  27
ATOM     27  S   UNL     1      -6.253   0.071  -2.123  0.00  0.00    +0.067 S 
ATOM     28  O   UNL     1      -6.273  -1.228  -2.699  0.00  0.00    -0.152 OA
ATOM     29  O   UNL     1      -7.371   0.619  -1.439  0.00  0.00    -0.152 OA
BRANCH  27  30
ATOM     30  C   UNL     1      -5.859   1.192  -3.424  0.00  0.00    +0.144 A 
ATOM     31  C   UNL     1      -5.204   0.955  -4.586  0.00  0.00    +0.038 A 
ATOM     32  C   UNL     1      -5.006   1.999  -5.470  0.00  0.00    +0.030 A 
ATOM     33  C   UNL     1      -5.474   3.231  -5.147  0.00  0.00    +0.080 A 
ATOM     34  S   UNL     1      -6.226   2.934  -3.556  0.00  0.00    -0.057 S 
ATOM     35 CL   UNL     1      -5.373   4.710  -6.051  0.00  0.00    -0.076 Cl
ENDBRANCH  27  30
ENDBRANCH  24  27
ENDBRANCH   2  21
TORSDOF 5
