REMARK  Name = ZINC64838145
REMARK  9 active torsions:
REMARK  status: ('A' for Active; 'I' for Inactive)
REMARK    1  A    between atoms: C_1  and  O_2
REMARK    2  A    between atoms: O_2  and  C_3
REMARK    3  A    between atoms: C_6  and  N_9
REMARK    4  A    between atoms: N_12  and  C_15
REMARK    5  A    between atoms: C_15  and  C_16
REMARK    6  A    between atoms: C_16  and  C_17
REMARK    7  A    between atoms: C_17  and  N_18
REMARK    8  A    between atoms: C_22  and  C_25
REMARK    9  A    between atoms: C_23  and  N_24
REMARK                            x       y       z     vdW  Elec       q    Type
REMARK                         _______ _______ _______ _____ _____    ______ ____
ROOT
ATOM      1  C   UNL     1       2.515  -6.003   9.688  0.00  0.00    +0.105 C 
ENDROOT
BRANCH   1   2
ATOM      2  N   UNL     1       2.803  -7.431   9.842  0.00  0.00    -0.311 N 
ATOM      3  C   UNL     1       1.876  -8.534   9.556  0.00  0.00    +0.186 C 
ATOM      4  C   UNL     1       2.655  -9.793   9.876  0.00  0.00    +0.186 C 
ATOM      5  O   UNL     1       2.266 -10.940   9.781  0.00  0.00    -0.290 OA
ATOM      6  C   UNL     1       3.921  -9.358  10.306  0.00  0.00    +0.086 C 
ATOM      7  C   UNL     1       3.977  -7.967  10.269  0.00  0.00    +0.097 C 
BRANCH   6   8
ATOM      8  C   UNL     1       5.023 -10.240  10.726  0.00  0.00    +0.116 A 
ATOM      9  N   UNL     1       6.229  -9.914  11.145  0.00  0.00    -0.239 NA
ATOM     10  C   UNL     1       7.145 -10.838  11.500  0.00  0.00    +0.079 A 
ATOM     11  C   UNL     1       8.465 -10.625  11.963  0.00  0.00    +0.029 A 
ATOM     12  C   UNL     1       9.274 -11.684  12.283  0.00  0.00    +0.002 A 
ATOM     13  C   UNL     1       8.833 -12.994  12.167  0.00  0.00    +0.001 A 
ATOM     14  C   UNL     1       7.548 -13.239  11.718  0.00  0.00    +0.017 A 
ATOM     15  C   UNL     1       6.730 -12.186  11.394  0.00  0.00    +0.040 A 
ATOM     16  S   UNL     1       5.062 -12.025  10.804  0.00  0.00    -0.067 S 
ENDBRANCH   6   8
BRANCH   7  17
ATOM     17  N   UNL     1       5.072  -7.234  10.620  0.00  0.00    -0.346 N 
ATOM     18  H   UNL     1       5.043  -6.265  10.573  0.00  0.00    +0.143 HD
ATOM     19  H   UNL     1       5.880  -7.681  10.917  0.00  0.00    +0.143 HD
ENDBRANCH   7  17
ENDBRANCH   1   2
BRANCH   1  20
ATOM     20  C   UNL     1       2.887  -5.557   8.272  0.00  0.00    +0.000 C 
BRANCH  20  21
ATOM     21  C   UNL     1       2.586  -4.066   8.111  0.00  0.00    -0.077 C 
BRANCH  21  25
ATOM     22  N   UNL     1       2.540  -2.503   4.230  0.00  0.00    -0.333 N 
ATOM     23  C   UNL     1       3.247  -1.722   5.257  0.00  0.00    +0.086 C 
ATOM     24  C   UNL     1       2.766  -2.185   6.636  0.00  0.00    -0.060 C 
ATOM     25  N   UNL     1       2.943  -3.638   6.752  0.00  0.00    +0.382 N 
ATOM     26  C   UNL     1       2.081  -4.325   5.782  0.00  0.00    -0.060 C 
ATOM     27  C   UNL     1       2.522  -3.968   4.364  0.00  0.00    +0.086 C 
ATOM     28  H   UNL     1       3.907  -3.874   6.570  0.00  0.00    -0.082 HD
BRANCH  22  32
ATOM     29  C   UNL     1       0.625  -0.619   1.043  0.00  0.00    +0.120 A 
ATOM     30  C   UNL     1       0.698  -2.003   1.087  0.00  0.00    +0.047 A 
ATOM     31  C   UNL     1       1.332  -2.628   2.143  0.00  0.00    +0.027 A 
ATOM     32  C   UNL     1       1.897  -1.870   3.160  0.00  0.00    +0.030 A 
ATOM     33  C   UNL     1       1.823  -0.484   3.115  0.00  0.00    +0.027 A 
ATOM     34  C   UNL     1       1.194   0.139   2.056  0.00  0.00    +0.047 A 
BRANCH  29  36
ATOM     35  C   UNL     1      -0.564  -0.846  -1.004  0.00  0.00    +0.277 C 
ATOM     36  O   UNL     1      -0.000  -0.004   0.003  0.00  0.00    -0.495 OA
ENDBRANCH  29  36
ENDBRANCH  22  32
ENDBRANCH  21  25
ENDBRANCH  20  21
ENDBRANCH   1  20
TORSDOF 8
