REMARK  Name = ZINC37909766
REMARK  6 active torsions:
REMARK  status: ('A' for Active; 'I' for Inactive)
REMARK    1  A    between atoms: C_1  and  C_2
REMARK    2  A    between atoms: N_7  and  C_8
REMARK    3  A    between atoms: C_8  and  C_10
REMARK    4  A    between atoms: C_8  and  C_11
REMARK    5  A    between atoms: N_13  and  C_14
REMARK    6  A    between atoms: C_15  and  N_22
REMARK                            x       y       z     vdW  Elec       q    Type
REMARK                         _______ _______ _______ _____ _____    ______ ____
ROOT
ATOM      1  C   UNL     1      -2.357  -1.501   1.922  0.00  0.00    +0.203 C 
ATOM      2  O   UNL     1      -3.330  -1.285   1.231  0.00  0.00    -0.277 OA
ATOM      3  N   UNL     1      -2.327  -1.069   3.198  0.00  0.00    -0.284 N 
ATOM      4  H   UNL     1      -1.582  -1.305   3.773  0.00  0.00    +0.155 HD
ENDROOT
BRANCH   3   5
ATOM      5  C   UNL     1      -3.374  -0.279   3.696  0.00  0.00    +0.073 A 
ATOM      6  C   UNL     1      -4.475  -0.879   4.306  0.00  0.00    +0.049 A 
ATOM      7  C   UNL     1      -5.506  -0.092   4.796  0.00  0.00    +0.044 A 
ATOM      8  C   UNL     1      -5.442   1.285   4.679  0.00  0.00    +0.044 A 
ATOM      9  C   UNL     1      -4.350   1.881   4.074  0.00  0.00    +0.042 A 
ATOM     10  C   UNL     1      -3.314   1.103   3.587  0.00  0.00    +0.065 A 
ATOM     11 CL   UNL     1      -1.942   1.856   2.835  0.00  0.00    -0.082 Cl
ATOM     12 CL   UNL     1      -6.734   2.267   5.293  0.00  0.00    -0.083 Cl
BRANCH   6  13
ATOM     13  N   UNL     1      -4.538  -2.272   4.422  0.00  0.00    -0.356 N 
ATOM     14  H   UNL     1      -3.817  -2.821   4.079  0.00  0.00    +0.142 HD
ATOM     15  H   UNL     1      -5.305  -2.688   4.847  0.00  0.00    +0.142 HD
ENDBRANCH   6  13
ENDBRANCH   3   5
BRANCH   1  16
ATOM     16  C   UNL     1      -1.181  -2.253   1.353  0.00  0.00    +0.017 C 
ATOM     17  C   UNL     1       0.067  -1.370   1.416  0.00  0.00    -0.004 C 
BRANCH  16  23
ATOM     18  C   UNL     1      -3.733  -2.782  -0.963  0.00  0.00    -0.013 C 
ATOM     19  C   UNL     1      -2.661  -3.462  -0.110  0.00  0.00    -0.071 C 
ATOM     20  C   UNL     1      -2.244  -4.799  -0.757  0.00  0.00    -0.017 C 
ATOM     21  C   UNL     1      -0.960  -4.422  -1.542  0.00  0.00    -0.020 C 
ATOM     22  C   UNL     1      -0.316  -3.372  -0.603  0.00  0.00    -0.077 C 
ATOM     23  N   UNL     1      -1.458  -2.611  -0.044  0.00  0.00    +0.389 N 
ATOM     24  H   UNL     1      -1.606  -1.772  -0.585  0.00  0.00    -0.080 HD
ENDBRANCH  16  23
ENDBRANCH   1  16
TORSDOF 4
