REMARK  Name = ZINC39404355
REMARK  9 active torsions:
REMARK  status: ('A' for Active; 'I' for Inactive)
REMARK    1  A    between atoms: C_2  and  C_3
REMARK    2  A    between atoms: C_3  and  S_4
REMARK    3  A    between atoms: S_4  and  C_5
REMARK    4  A    between atoms: C_11  and  C_13
REMARK    5  A    between atoms: C_13  and  S_14
REMARK    6  A    between atoms: S_14  and  C_15
REMARK    7  A    between atoms: N_21  and  N_22
REMARK    8  A    between atoms: C_23  and  C_24
REMARK    9  A    between atoms: C_27  and  O_30
REMARK                            x       y       z     vdW  Elec       q    Type
REMARK                         _______ _______ _______ _____ _____    ______ ____
ROOT
ATOM      1  C   UNL     1     -11.065  -6.644  -0.024  0.00  0.00    +0.303 C 
ATOM      2  N   UNL     1     -11.686  -6.193  -1.282  0.00  0.00    -0.213 NA
ATOM      3  C   UNL     1     -11.540  -7.190  -2.110  0.00  0.00    +0.227 C 
ATOM      4  N   UNL     1     -10.891  -8.231  -1.513  0.00  0.00    -0.249 N 
ATOM      5  N   UNL     1     -10.590  -8.002  -0.333  0.00  0.00    -0.171 NA
ATOM      6  N   UNL     1     -11.983  -7.191  -3.414  0.00  0.00    -0.206 N 
ATOM      7  H   UNL     1     -11.840  -7.970  -3.974  0.00  0.00    +0.177 HD
ATOM      8  H   UNL     1     -10.688  -9.065  -1.965  0.00  0.00    +0.192 HD
ENDROOT
BRANCH   6   9
ATOM      9  N   UNL     1     -12.641  -6.068  -3.932  0.00  0.00    -0.188 NA
ATOM     10  C   UNL     1     -13.059  -6.069  -5.161  0.00  0.00    +0.138 C 
BRANCH  10  11
ATOM     11  C   UNL     1     -13.751  -4.888  -5.706  0.00  0.00    -0.005 A 
ATOM     12  C   UNL     1     -13.954  -3.762  -4.903  0.00  0.00    +0.013 A 
ATOM     13  C   UNL     1     -14.601  -2.659  -5.417  0.00  0.00    +0.046 A 
ATOM     14  C   UNL     1     -15.052  -2.665  -6.730  0.00  0.00    +0.117 A 
ATOM     15  C   UNL     1     -14.854  -3.782  -7.532  0.00  0.00    +0.046 A 
ATOM     16  C   UNL     1     -14.202  -4.887  -7.029  0.00  0.00    +0.013 A 
BRANCH  14  17
ATOM     17  O   UNL     1     -15.690  -1.576  -7.232  0.00  0.00    -0.507 OA
ATOM     18  H   UNL     1     -15.101  -0.930  -7.645  0.00  0.00    +0.292 HD
ENDBRANCH  14  17
ENDBRANCH  10  11
ENDBRANCH   6   9
BRANCH   1  19
ATOM     19  S   UNL     1      -9.674  -5.569   0.422  0.00  0.00    -0.100 S 
BRANCH  19  20
ATOM     20  C   UNL     1      -8.563  -5.673  -1.008  0.00  0.00    +0.169 C 
BRANCH  20  27
ATOM     21  C   UNL     1      -2.999  -2.535  -1.381  0.00  0.00    +0.160 A 
ATOM     22  N   UNL     1      -3.874  -2.524  -0.386  0.00  0.00    -0.133 NA
ATOM     23  N   UNL     1      -4.944  -3.190  -0.431  0.00  0.00    -0.125 NA
ATOM     24  C   UNL     1      -5.259  -3.940  -1.474  0.00  0.00    +0.189 A 
ATOM     25  S   UNL     1      -3.835  -3.638  -2.517  0.00  0.00    -0.024 S 
ATOM     26  N   UNL     1      -6.380  -4.735  -1.698  0.00  0.00    -0.263 N 
ATOM     27  C   UNL     1      -7.349  -4.813  -0.764  0.00  0.00    +0.229 C 
ATOM     28  O   UNL     1      -7.244  -4.191   0.272  0.00  0.00    -0.275 OA
ATOM     29  H   UNL     1      -6.465  -5.232  -2.527  0.00  0.00    +0.157 HD
BRANCH  21  30
ATOM     30  S   UNL     1      -1.457  -1.697  -1.543  0.00  0.00    -0.093 S 
BRANCH  30  31
ATOM     31  C   UNL     1      -1.293  -0.775   0.010  0.00  0.00    +0.103 C 
BRANCH  31  33
ATOM     32  C   UNL     1      -0.016   1.306   0.009  0.00  0.00    +0.005 C 
ATOM     33  C   UNL     1       0.002  -0.004   0.002  0.00  0.00    -0.023 C 
ENDBRANCH  31  33
ENDBRANCH  30  31
ENDBRANCH  21  30
ENDBRANCH  20  27
ENDBRANCH  19  20
ENDBRANCH   1  19
TORSDOF 9
