REMARK  Name = ZINC14023369
REMARK  9 active torsions:
REMARK  status: ('A' for Active; 'I' for Inactive)
REMARK    1  A    between atoms: C_1  and  C_2
REMARK    2  A    between atoms: C_5  and  S_8
REMARK    3  A    between atoms: S_8  and  N_11
REMARK    4  A    between atoms: C_15  and  C_18
REMARK    5  A    between atoms: N_20  and  C_21
REMARK    6  A    between atoms: C_22  and  C_32
REMARK    7  A    between atoms: C_29  and  C_30
REMARK    8  A    between atoms: C_29  and  C_31
REMARK    9  A    between atoms: C_29  and  N_66
REMARK                            x       y       z     vdW  Elec       q    Type
REMARK                         _______ _______ _______ _____ _____    ______ ____
ROOT
ATOM      1  C   UNL     1      -2.433  -0.267   4.425  0.00  0.00    +0.222 C 
ATOM      2  O   UNL     1      -3.235  -1.079   4.014  0.00  0.00    -0.275 OA
ATOM      3  N   UNL     1      -2.631   0.333   5.615  0.00  0.00    -0.279 N 
ATOM      4  H   UNL     1      -1.989   0.982   5.944  0.00  0.00    +0.155 HD
ENDROOT
BRANCH   3   5
ATOM      5  C   UNL     1      -3.751   0.022   6.370  0.00  0.00    +0.084 A 
ATOM      6  C   UNL     1      -4.125   0.529   7.608  0.00  0.00    +0.068 A 
ATOM      7  C   UNL     1      -5.359   0.034   8.189  0.00  0.00    -0.027 A 
ATOM      8  C   UNL     1      -6.018  -0.885   7.447  0.00  0.00    -0.021 A 
ATOM      9  S   UNL     1      -5.029  -1.087   5.995  0.00  0.00    -0.079 S 
ATOM     10  C   UNL     1      -7.305  -1.559   7.806  0.00  0.00    -0.035 C 
ATOM     11  C   UNL     1      -7.402   0.085   9.584  0.00  0.00    -0.073 C 
ATOM     12  C   UNL     1      -5.923   0.480   9.533  0.00  0.00    +0.018 C 
ATOM     13  N   UNL     1      -7.537  -1.350   9.257  0.00  0.00    +0.384 N 
ATOM     14  H   UNL     1      -6.838  -1.881   9.787  0.00  0.00    -0.081 HD
BRANCH   6  15
ATOM     15  C   UNL     1      -3.305   1.528   8.301  0.00  0.00    +0.244 C 
ATOM     16  O   UNL     1      -3.500   2.714   8.111  0.00  0.00    -0.270 OA
ATOM     17  N   UNL     1      -2.335   1.131   9.149  0.00  0.00    -0.325 N 
ATOM     18  H   UNL     1      -2.179   0.186   9.300  0.00  0.00    +0.145 HD
ATOM     19  H   UNL     1      -1.792   1.792   9.607  0.00  0.00    +0.145 HD
ENDBRANCH   6  15
BRANCH  13  20
ATOM     20  C   UNL     1      -8.887  -1.828   9.627  0.00  0.00    -0.074 C 
ATOM     21  C   UNL     1      -9.958  -1.069   8.840  0.00  0.00    -0.014 C 
ATOM     22  C   UNL     1      -8.988  -3.322   9.315  0.00  0.00    -0.014 C 
ENDBRANCH  13  20
ENDBRANCH   3   5
BRANCH   1  27
ATOM     23  N   UNL     1       0.024  -0.502   1.581  0.00  0.00    -0.176 NA
ATOM     24  C   UNL     1       1.298  -0.716   2.281  0.00  0.00    +0.109 C 
ATOM     25  C   UNL     1       1.285   0.104   3.580  0.00  0.00    +0.018 C 
ATOM     26  C   UNL     1       0.048  -0.269   4.400  0.00  0.00    +0.015 C 
ATOM     27  C   UNL     1      -1.215   0.070   3.604  0.00  0.00    +0.091 C 
ATOM     28  C   UNL     1      -1.230  -0.745   2.307  0.00  0.00    +0.122 C 
BRANCH  23  29
ATOM     29  S   UNL     1       0.002  -0.004   0.002  0.00  0.00    +0.061 S 
ATOM     30  O   UNL     1      -1.243  -0.424  -0.539  0.00  0.00    -0.153 OA
ATOM     31  O   UNL     1       1.248  -0.390  -0.563  0.00  0.00    -0.153 OA
BRANCH  29  36
ATOM     32  C   UNL     1      -0.080   6.029   0.033  0.00  0.00    +0.044 C 
ATOM     33  C   UNL     1      -0.059   4.522   0.026  0.00  0.00    -0.050 A 
ATOM     34  C   UNL     1       1.147   3.847   0.011  0.00  0.00    +0.005 A 
ATOM     35  C   UNL     1       1.166   2.465   0.004  0.00  0.00    +0.029 A 
ATOM     36  C   UNL     1      -0.022   1.758   0.012  0.00  0.00    +0.105 A 
ATOM     37  C   UNL     1      -1.228   2.433   0.021  0.00  0.00    +0.029 A 
ATOM     38  C   UNL     1      -1.247   3.815   0.034  0.00  0.00    +0.005 A 
ENDBRANCH  29  36
ENDBRANCH  23  29
ENDBRANCH   1  27
TORSDOF 6
