REMARK  Name = ZINC63494722
REMARK  9 active torsions:
REMARK  status: ('A' for Active; 'I' for Inactive)
REMARK    1  A    between atoms: C_1  and  C_2
REMARK    2  A    between atoms: C_5  and  C_8
REMARK    3  A    between atoms: C_8  and  N_9
REMARK    4  A    between atoms: C_14  and  C_25
REMARK    5  A    between atoms: C_25  and  C_26
REMARK    6  A    between atoms: C_26  and  C_27
REMARK    7  A    between atoms: N_29  and  C_30
REMARK    8  A    between atoms: C_30  and  C_31
REMARK    9  A    between atoms: C_31  and  C_32
REMARK                            x       y       z     vdW  Elec       q    Type
REMARK                         _______ _______ _______ _____ _____    ______ ____
ROOT
ATOM      1  N   UNL     1       1.447  -4.746  -0.032  0.00  0.00    -0.254 N 
ATOM      2  C   UNL     1       2.127  -4.966  -1.307  0.00  0.00    +0.311 C 
ATOM      3  N   UNL     1       1.715  -4.015  -2.333  0.00  0.00    -0.147 NA
ATOM      4  N   UNL     1       2.681  -3.421  -2.821  0.00  0.00    -0.166 NA
ATOM      5  C   UNL     1       3.946  -3.837  -2.199  0.00  0.00    +0.217 C 
ATOM      6  N   UNL     1       3.575  -4.742  -1.096  0.00  0.00    -0.267 N 
ATOM      7  C   UNL     1       4.258  -5.258  -0.019  0.00  0.00    +0.047 A 
ATOM      8  C   UNL     1       5.590  -5.616  -0.032  0.00  0.00    +0.024 A 
ATOM      9  C   UNL     1       6.167  -6.142   1.109  0.00  0.00    +0.002 A 
ATOM     10  C   UNL     1       5.418  -6.311   2.263  0.00  0.00    +0.001 A 
ATOM     11  C   UNL     1       4.086  -5.951   2.296  0.00  0.00    +0.015 A 
ATOM     12  C   UNL     1       3.491  -5.414   1.159  0.00  0.00    +0.058 A 
ATOM     13  C   UNL     1       2.087  -4.967   1.138  0.00  0.00    +0.251 C 
ATOM     14  O   UNL     1       1.496  -4.799   2.187  0.00  0.00    -0.270 OA
ENDROOT
BRANCH   1  15
ATOM     15  C   UNL     1       0.059  -4.275  -0.021  0.00  0.00    +0.147 C 
BRANCH  15  20
ATOM     16  C   UNL     1      -0.018   1.503   0.010  0.00  0.00    +0.044 C 
ATOM     17  C   UNL     1       0.002  -0.004   0.002  0.00  0.00    -0.050 A 
ATOM     18  C   UNL     1       0.006  -0.689  -1.199  0.00  0.00    +0.003 A 
ATOM     19  C   UNL     1       0.025  -2.071  -1.206  0.00  0.00    +0.005 A 
ATOM     20  C   UNL     1       0.040  -2.768  -0.013  0.00  0.00    -0.030 A 
ATOM     21  C   UNL     1       0.037  -2.084   1.188  0.00  0.00    +0.005 A 
ATOM     22  C   UNL     1       0.023  -0.702   1.195  0.00  0.00    +0.003 A 
ENDBRANCH  15  20
ENDBRANCH   1  15
BRANCH   5  23
ATOM     23  C   UNL     1       4.698  -2.616  -1.665  0.00  0.00    +0.058 C 
BRANCH  23  24
ATOM     24  C   UNL     1       5.031  -1.675  -2.824  0.00  0.00    +0.099 C 
BRANCH  24  25
ATOM     25  C   UNL     1       5.772  -0.473  -2.298  0.00  0.00    +0.213 C 
ATOM     26  O   UNL     1       6.010  -0.378  -1.113  0.00  0.00    -0.276 OA
ATOM     27  N   UNL     1       6.170   0.497  -3.145  0.00  0.00    -0.315 N 
ATOM     28  H   UNL     1       5.980   0.421  -4.093  0.00  0.00    +0.149 HD
BRANCH  27  29
ATOM     29  C   UNL     1       6.891   1.665  -2.634  0.00  0.00    +0.108 C 
BRANCH  29  30
ATOM     30  C   UNL     1       7.224   2.606  -3.794  0.00  0.00    +0.052 C 
BRANCH  30  31
ATOM     31  C   UNL     1       7.965   3.809  -3.268  0.00  0.00    -0.040 C 
ATOM     32  C   UNL     1       9.306   3.982  -3.223  0.00  0.00    -0.001 A 
ATOM     33  C   UNL     1      10.432   3.135  -3.634  0.00  0.00    +0.010 A 
ATOM     34  C   UNL     1      11.693   3.591  -3.459  0.00  0.00    +0.001 A 
ATOM     35  C   UNL     1      11.951   4.849  -2.896  0.00  0.00    +0.002 A 
ATOM     36  C   UNL     1      10.969   5.683  -2.494  0.00  0.00    +0.026 A 
ATOM     37  C   UNL     1       9.605   5.306  -2.632  0.00  0.00    +0.043 A 
ATOM     38  N   UNL     1       8.492   5.927  -2.323  0.00  0.00    -0.380 N 
ATOM     39  C   UNL     1       7.360   5.068  -2.689  0.00  0.00    +0.144 C 
ATOM     40  H   UNL     1       8.428   6.808  -1.922  0.00  0.00    +0.160 HD
ENDBRANCH  30  31
ENDBRANCH  29  30
ENDBRANCH  27  29
ENDBRANCH  24  25
ENDBRANCH  23  24
ENDBRANCH   5  23
TORSDOF 8
