REMARK  Name = ZINC09798527
REMARK  8 active torsions:
REMARK  status: ('A' for Active; 'I' for Inactive)
REMARK    1  A    between atoms: C_3  and  C_6
REMARK    2  A    between atoms: C_6  and  N_52
REMARK    3  A    between atoms: C_7  and  C_8
REMARK    4  A    between atoms: C_7  and  N_52
REMARK    5  A    between atoms: C_13  and  C_14
REMARK    6  A    between atoms: C_13  and  N_52
REMARK    7  A    between atoms: N_16  and  C_17
REMARK    8  A    between atoms: C_18  and  C_26
REMARK                            x       y       z     vdW  Elec       q    Type
REMARK                         _______ _______ _______ _____ _____    ______ ____
ROOT
ATOM      1  C   UNL     1       0.903   0.283  -2.440  0.00  0.00    +0.201 C 
ATOM      2  O   UNL     1       0.483   1.372  -2.110  0.00  0.00    -0.278 OA
ATOM      3  N   UNL     1       0.104  -0.575  -3.105  0.00  0.00    -0.281 N 
ATOM      4  H   UNL     1       0.441  -1.446  -3.368  0.00  0.00    +0.155 HD
ENDROOT
BRANCH   3   5
ATOM      5  C   UNL     1      -1.198  -0.213  -3.412  0.00  0.00    +0.084 A 
ATOM      6  C   UNL     1      -2.161  -0.949  -4.088  0.00  0.00    +0.068 A 
ATOM      7  C   UNL     1      -3.465  -0.335  -4.278  0.00  0.00    -0.023 A 
ATOM      8  C   UNL     1      -3.592   0.912  -3.774  0.00  0.00    -0.004 A 
ATOM      9  S   UNL     1      -2.017   1.271  -3.051  0.00  0.00    -0.077 S 
ATOM     10  C   UNL     1      -4.807   1.786  -3.825  0.00  0.00    +0.043 C 
ATOM     11  C   UNL     1      -5.778   1.206  -4.864  0.00  0.00    +0.005 C 
ATOM     12  C   UNL     1      -5.924  -0.299  -4.616  0.00  0.00    +0.005 C 
ATOM     13  C   UNL     1      -4.626  -1.016  -4.992  0.00  0.00    +0.037 C 
BRANCH   6  14
ATOM     14  C   UNL     1      -1.875  -2.297  -4.589  0.00  0.00    +0.244 C 
ATOM     15  O   UNL     1      -2.086  -3.265  -3.883  0.00  0.00    -0.270 OA
ATOM     16  N   UNL     1      -1.379  -2.463  -5.830  0.00  0.00    -0.325 N 
ATOM     17  H   UNL     1      -1.211  -1.691  -6.393  0.00  0.00    +0.145 HD
ATOM     18  H   UNL     1      -1.189  -3.355  -6.162  0.00  0.00    +0.145 HD
ENDBRANCH   6  14
ENDBRANCH   3   5
BRANCH   1  19
ATOM     19  C   UNL     1       2.319  -0.110  -2.106  0.00  0.00    +0.020 C 
BRANCH  19  20
ATOM     20  N   UNL     1       2.999   1.045  -1.483  0.00  0.00    +0.393 N 
ATOM     21  H   UNL     1       2.376   1.459  -0.780  0.00  0.00    -0.080 HD
BRANCH  20  22
ATOM     22  C   UNL     1       3.307   2.063  -2.510  0.00  0.00    -0.002 C 
BRANCH  22  25
ATOM     23  C   UNL     1       5.076   4.866  -0.899  0.00  0.00    +0.041 A 
ATOM     24  C   UNL     1       5.076   3.605  -1.538  0.00  0.00    +0.042 A 
ATOM     25  C   UNL     1       3.794   3.313  -1.824  0.00  0.00    +0.089 A 
ATOM     26  O   UNL     1       3.023   4.328  -1.400  0.00  0.00    -0.470 OA
ATOM     27  C   UNL     1       3.794   5.270  -0.833  0.00  0.00    +0.195 A 
ENDBRANCH  22  25
ENDBRANCH  20  22
BRANCH  20  28
ATOM     28  C   UNL     1       4.244   0.603  -0.821  0.00  0.00    -0.034 C 
BRANCH  28  29
ATOM     29  C   UNL     1       3.883  -0.156   0.430  0.00  0.00    -0.027 A 
ATOM     30  C   UNL     1       3.763  -1.494   0.613  0.00  0.00    +0.009 A 
ATOM     31  C   UNL     1       3.413  -1.971   1.862  0.00  0.00    +0.008 A 
ATOM     32  C   UNL     1       3.211  -1.088   2.870  0.00  0.00    +0.045 A 
ATOM     33  S   UNL     1       3.504   0.474   2.057  0.00  0.00    -0.103 S 
ENDBRANCH  28  29
ENDBRANCH  20  28
ENDBRANCH  19  20
ENDBRANCH   1  19
TORSDOF 8
