REMARK  Name = ZINC64730366
REMARK  8 active torsions:
REMARK  status: ('A' for Active; 'I' for Inactive)
REMARK    1  A    between atoms: C_1  and  C_2
REMARK    2  A    between atoms: C_2  and  C_4
REMARK    3  A    between atoms: C_2  and  N_16
REMARK    4  A    between atoms: C_7  and  C_10
REMARK    5  A    between atoms: C_17  and  C_19
REMARK    6  A    between atoms: C_19  and  N_20
REMARK    7  A    between atoms: C_23  and  C_28
REMARK    8  A    between atoms: C_28  and  C_29
REMARK                            x       y       z     vdW  Elec       q    Type
REMARK                         _______ _______ _______ _____ _____    ______ ____
ROOT
ATOM      1  C   UNL     1       0.712  -1.094  -3.598  0.00  0.00    +0.213 C 
ENDROOT
BRANCH   1   2
ATOM      2  N   UNL     1      -0.240  -1.150  -4.711  0.00  0.00    -0.216 N 
ATOM      3  C   UNL     1      -0.988  -2.230  -5.014  0.00  0.00    +0.244 C 
ATOM      4  O   UNL     1      -1.000  -3.297  -4.439  0.00  0.00    -0.273 OA
ATOM      5  C   UNL     1      -1.811  -1.831  -6.223  0.00  0.00    +0.165 C 
ATOM      6  N   UNL     1      -1.392  -0.444  -6.485  0.00  0.00    -0.287 N 
ATOM      7  C   UNL     1      -0.477  -0.134  -5.549  0.00  0.00    +0.310 C 
ATOM      8  O   UNL     1       0.074   0.946  -5.474  0.00  0.00    -0.252 OA
ATOM      9  H   UNL     1      -1.716   0.135  -7.193  0.00  0.00    +0.151 HD
BRANCH   5  10
ATOM     10  C   UNL     1      -1.484  -2.731  -7.417  0.00  0.00    +0.065 C 
BRANCH  10  11
ATOM     11  C   UNL     1      -2.401  -2.394  -8.565  0.00  0.00    -0.039 C 
ATOM     12  C   UNL     1      -2.143  -1.555  -9.593  0.00  0.00    -0.001 A 
ATOM     13  C   UNL     1      -0.975  -0.735  -9.938  0.00  0.00    +0.010 A 
ATOM     14  C   UNL     1      -1.013   0.021 -11.059  0.00  0.00    +0.001 A 
ATOM     15  C   UNL     1      -2.136   0.041 -11.897  0.00  0.00    +0.002 A 
ATOM     16  C   UNL     1      -3.245  -0.685 -11.647  0.00  0.00    +0.026 A 
ATOM     17  C   UNL     1      -3.316  -1.517 -10.495  0.00  0.00    +0.043 A 
ATOM     18  N   UNL     1      -4.263  -2.302 -10.042  0.00  0.00    -0.380 N 
ATOM     19  C   UNL     1      -3.795  -2.932  -8.803  0.00  0.00    +0.144 C 
ATOM     20  H   UNL     1      -5.127  -2.445 -10.458  0.00  0.00    +0.160 HD
ENDBRANCH  10  11
ENDBRANCH   5  10
ENDBRANCH   1   2
BRANCH   1  22
ATOM     21  N   UNL     1       0.688  -0.476  -1.203  0.00  0.00    -0.307 N 
ATOM     22  C   UNL     1       0.006  -0.608  -2.358  0.00  0.00    +0.231 C 
ATOM     23  O   UNL     1      -1.175  -0.336  -2.400  0.00  0.00    -0.274 OA
ATOM     24  H   UNL     1       1.632  -0.695  -1.170  0.00  0.00    +0.149 HD
BRANCH  21  26
ATOM     25  C   UNL     1      -0.019   1.526   0.010  0.00  0.00    +0.033 C 
ATOM     26  C   UNL     1       0.002  -0.004   0.002  0.00  0.00    +0.100 C 
BRANCH  26  27
ATOM     27  C   UNL     1       0.731  -0.503   1.223  0.00  0.00    -0.027 A 
ATOM     28  C   UNL     1       2.114  -0.513   1.244  0.00  0.00    +0.006 A 
ATOM     29  C   UNL     1       2.787  -0.969   2.359  0.00  0.00    +0.009 A 
ATOM     30  C   UNL     1       2.070  -1.420   3.466  0.00  0.00    -0.018 A 
ATOM     31  C   UNL     1       0.677  -1.409   3.439  0.00  0.00    +0.009 A 
ATOM     32  C   UNL     1       0.015  -0.945   2.321  0.00  0.00    +0.006 A 
BRANCH  30  33
ATOM     33  C   UNL     1       2.788  -1.912   4.668  0.00  0.00    -0.018 A 
ATOM     34  C   UNL     1       4.181  -1.919   4.696  0.00  0.00    +0.008 A 
ATOM     35  C   UNL     1       4.843  -2.377   5.817  0.00  0.00    +0.001 A 
ATOM     36  C   UNL     1       4.127  -2.830   6.910  0.00  0.00    +0.000 A 
ATOM     37  C   UNL     1       2.744  -2.826   6.887  0.00  0.00    +0.001 A 
ATOM     38  C   UNL     1       2.071  -2.364   5.774  0.00  0.00    +0.008 A 
ENDBRANCH  30  33
ENDBRANCH  26  27
ENDBRANCH  21  26
ENDBRANCH   1  22
TORSDOF 7
