REMARK  Name = ZINC07915324
REMARK  11 active torsions:
REMARK  status: ('A' for Active; 'I' for Inactive)
REMARK    1  A    between atoms: C_1  and  C_2
REMARK    2  A    between atoms: C_2  and  C_4
REMARK    3  A    between atoms: C_2  and  N_14
REMARK    4  A    between atoms: C_15  and  C_17
REMARK    5  A    between atoms: C_17  and  N_61
REMARK    6  A    between atoms: C_18  and  N_61
REMARK    7  A    between atoms: C_19  and  C_20
REMARK    8  A    between atoms: C_19  and  N_61
REMARK    9  A    between atoms: N_22  and  C_23
REMARK   10  A    between atoms: C_28  and  S_29
REMARK   11  A    between atoms: S_29  and  C_30
REMARK                            x       y       z     vdW  Elec       q    Type
REMARK                         _______ _______ _______ _____ _____    ______ ____
ROOT
ATOM      1  C   UNL     1      -2.241   4.942   2.424  0.00  0.00    +0.019 C 
ENDROOT
BRANCH   1   3
ATOM      2  N   UNL     1      -1.230   3.233   0.949  0.00  0.00    -0.310 N 
ATOM      3  C   UNL     1      -2.342   3.748   1.509  0.00  0.00    +0.197 C 
ATOM      4  O   UNL     1      -3.424   3.252   1.277  0.00  0.00    -0.278 OA
ATOM      5  H   UNL     1      -0.364   3.630   1.135  0.00  0.00    +0.149 HD
BRANCH   2   7
ATOM      6  C   UNL     1      -1.647   2.545  -1.360  0.00  0.00    +0.033 C 
ATOM      7  C   UNL     1      -1.328   2.073   0.060  0.00  0.00    +0.100 C 
BRANCH   7   8
ATOM      8  C   UNL     1      -0.017   1.328   0.059  0.00  0.00    -0.027 A 
ATOM      9  C   UNL     1       1.177   2.025   0.055  0.00  0.00    +0.006 A 
ATOM     10  C   UNL     1       2.372   1.337   0.046  0.00  0.00    +0.004 A 
ATOM     11  C   UNL     1       2.386  -0.052   0.041  0.00  0.00    -0.044 A 
ATOM     12  C   UNL     1       1.197  -0.746   0.049  0.00  0.00    -0.044 A 
ATOM     13  C   UNL     1      -0.005  -0.051   0.057  0.00  0.00    +0.009 A 
ATOM     14  C   UNL     1       1.137  -2.251   0.053  0.00  0.00    +0.035 C 
ATOM     15  C   UNL     1       2.474  -2.844  -0.387  0.00  0.00    +0.005 C 
ATOM     16  C   UNL     1       3.587  -2.200   0.449  0.00  0.00    +0.005 C 
ATOM     17  C   UNL     1       3.726  -0.740   0.022  0.00  0.00    +0.035 C 
ENDBRANCH   7   8
ENDBRANCH   2   7
ENDBRANCH   1   3
BRANCH   1  19
ATOM     18  C   UNL     1      -4.421   5.786   1.794  0.00  0.00    -0.095 C 
ATOM     19  N   UNL     1      -3.594   5.285   2.911  0.00  0.00    +0.389 N 
ATOM     20  H   UNL     1      -4.032   4.441   3.299  0.00  0.00    -0.081 HD
BRANCH  19  21
ATOM     21  C   UNL     1      -3.504   6.309   3.973  0.00  0.00    +0.019 C 
BRANCH  21  22
ATOM     22  C   UNL     1      -4.863   6.479   4.601  0.00  0.00    +0.201 C 
ATOM     23  O   UNL     1      -5.804   5.830   4.196  0.00  0.00    -0.278 OA
ATOM     24  N   UNL     1      -5.033   7.352   5.614  0.00  0.00    -0.286 N 
ATOM     25  H   UNL     1      -4.269   7.823   5.981  0.00  0.00    +0.155 HD
BRANCH  24  26
ATOM     26  C   UNL     1      -6.314   7.579   6.136  0.00  0.00    +0.047 A 
ATOM     27  C   UNL     1      -7.231   6.542   6.201  0.00  0.00    +0.024 A 
ATOM     28  C   UNL     1      -8.493   6.767   6.721  0.00  0.00    +0.002 A 
ATOM     29  C   UNL     1      -8.847   8.027   7.168  0.00  0.00    +0.001 A 
ATOM     30  C   UNL     1      -7.941   9.068   7.101  0.00  0.00    +0.016 A 
ATOM     31  C   UNL     1      -6.670   8.850   6.586  0.00  0.00    +0.029 A 
BRANCH  31  32
ATOM     32  S   UNL     1      -5.513  10.176   6.499  0.00  0.00    -0.127 S 
ATOM     33  C   UNL     1      -6.415  11.592   7.184  0.00  0.00    +0.090 C 
ENDBRANCH  31  32
ENDBRANCH  24  26
ENDBRANCH  21  22
ENDBRANCH  19  21
ENDBRANCH   1  19
TORSDOF 8
