REMARK  Name = ZINC10940479
REMARK  10 active torsions:
REMARK  status: ('A' for Active; 'I' for Inactive)
REMARK    1  A    between atoms: C_1  and  C_2
REMARK    2  A    between atoms: C_2  and  O_3
REMARK    3  A    between atoms: O_3  and  C_4
REMARK    4  A    between atoms: C_4  and  C_6
REMARK    5  A    between atoms: C_9  and  N_12
REMARK    6  A    between atoms: N_12  and  C_13
REMARK    7  A    between atoms: C_13  and  N_15
REMARK    8  A    between atoms: N_15  and  C_16
REMARK    9  A    between atoms: C_16  and  C_17
REMARK   10  A    between atoms: C_27  and  N_57
REMARK                            x       y       z     vdW  Elec       q    Type
REMARK                         _______ _______ _______ _____ _____    ______ ____
ROOT
ATOM      1  N   UNL     1      -6.131   5.957   0.269  0.00  0.00    -0.322 N 
ATOM      2  H   UNL     1      -6.963   5.457   0.270  0.00  0.00    +0.148 HD
ENDROOT
BRANCH   1   3
ATOM      3  C   UNL     1      -4.956   5.307   0.158  0.00  0.00    +0.135 C 
ATOM      4  S   UNL     1      -3.488   6.188   0.156  0.00  0.00    -0.019 S 
BRANCH   3   5
ATOM      5  N   UNL     1      -4.936   3.964   0.048  0.00  0.00    -0.297 N 
ATOM      6  H   UNL     1      -5.768   3.471  -0.031  0.00  0.00    +0.154 HD
BRANCH   5  10
ATOM      7  C   UNL     1      -1.303   1.928   0.052  0.00  0.00    +0.059 A 
ATOM      8  C   UNL     1      -2.310   1.561  -0.845  0.00  0.00    +0.017 A 
ATOM      9  C   UNL     1      -3.512   2.232  -0.840  0.00  0.00    +0.024 A 
ATOM     10  C   UNL     1      -3.720   3.283   0.050  0.00  0.00    +0.033 A 
ATOM     11  C   UNL     1      -2.717   3.654   0.941  0.00  0.00    +0.024 A 
ATOM     12  C   UNL     1      -1.516   2.983   0.945  0.00  0.00    +0.017 A 
BRANCH   7  13
ATOM     13  C   UNL     1      -0.016   1.208   0.054  0.00  0.00    +0.339 C 
ATOM     14  O   UNL     1       0.860   1.530   0.831  0.00  0.00    -0.245 OA
BRANCH  13  15
ATOM     15  O   UNL     1       0.185   0.187  -0.803  0.00  0.00    -0.461 OA
BRANCH  15  17
ATOM     16  C   UNL     1       1.516  -1.603  -1.781  0.00  0.00    +0.048 C 
ATOM     17  C   UNL     1       1.473  -0.480  -0.742  0.00  0.00    +0.229 C 
ENDBRANCH  15  17
ENDBRANCH  13  15
ENDBRANCH   7  13
ENDBRANCH   5  10
ENDBRANCH   3   5
ENDBRANCH   1   3
BRANCH   1  18
ATOM     18  C   UNL     1      -6.153   7.417   0.388  0.00  0.00    +0.140 C 
BRANCH  18  19
ATOM     19  C   UNL     1      -7.579   7.890   0.498  0.00  0.00    -0.014 A 
ATOM     20  C   UNL     1      -8.184   8.015   1.742  0.00  0.00    +0.010 A 
ATOM     21  C   UNL     1      -9.494   8.453   1.798  0.00  0.00    +0.042 A 
ATOM     22  C   UNL     1     -10.159   8.754   0.613  0.00  0.00    +0.099 A 
ATOM     23  C   UNL     1      -8.296   8.211  -0.637  0.00  0.00    +0.089 A 
ATOM     24  N   UNL     1     -11.476   9.196   0.655  0.00  0.00    -0.320 N 
ATOM     25  C   UNL     1     -12.332   8.234   1.363  0.00  0.00    +0.088 C 
ATOM     26  C   UNL     1     -13.753   8.793   1.457  0.00  0.00    -0.060 C 
ATOM     27  C   UNL     1     -13.409  10.014  -0.604  0.00  0.00    -0.060 C 
ATOM     28  C   UNL     1     -11.987   9.455  -0.698  0.00  0.00    +0.088 C 
ATOM     29  C   UNL     1     -15.657   9.519   0.149  0.00  0.00    -0.096 C 
ATOM     30  N   UNL     1      -9.587   8.639  -0.620  0.00  0.00    -0.349 N 
ATOM     31  H   UNL     1     -10.099   8.862  -1.482  0.00  0.00    +0.167 HD
ATOM     32  N   UNL     1     -14.264   9.028   0.090  0.00  0.00    +0.380 N 
ATOM     33  H   UNL     1     -14.244   8.144  -0.431  0.00  0.00    -0.082 HD
ENDBRANCH  18  19
ENDBRANCH   1  18
TORSDOF 8
