REMARK  Name = ZINC08770901
REMARK  10 active torsions:
REMARK  status: ('A' for Active; 'I' for Inactive)
REMARK    1  A    between atoms: C_1  and  C_2
REMARK    2  A    between atoms: C_2  and  C_3
REMARK    3  A    between atoms: C_3  and  C_4
REMARK    4  A    between atoms: C_7  and  C_10
REMARK    5  A    between atoms: C_10  and  C_12
REMARK    6  A    between atoms: C_14  and  C_36
REMARK    7  A    between atoms: C_36  and  C_38
REMARK    8  A    between atoms: C_38  and  C_39
REMARK    9  A    between atoms: C_38  and  C_40
REMARK   10  A    between atoms: C_38  and  C_41
REMARK                            x       y       z     vdW  Elec       q    Type
REMARK                         _______ _______ _______ _____ _____    ______ ____
ROOT
ATOM      1  C   UNL     1      -0.131   1.078  -0.050  0.00  0.00    +0.108 C 
ATOM      2  C   UNL     1      -0.899   2.041  -0.994  0.00  0.00    +0.136 C 
ATOM      3  C   UNL     1      -3.409   2.543  -1.171  0.00  0.00    +0.054 C 
ATOM      4  C   UNL     1      -4.324   3.131  -0.372  0.00  0.00    +0.022 C 
ATOM      5  C   UNL     1      -4.074   3.200   1.082  0.00  0.00    -0.019 A 
ATOM      6  C   UNL     1      -4.788   4.100   1.875  0.00  0.00    +0.008 A 
ATOM      7  C   UNL     1      -4.559   4.148   3.235  0.00  0.00    +0.001 A 
ATOM      8  C   UNL     1      -3.624   3.308   3.816  0.00  0.00    +0.000 A 
ATOM      9  C   UNL     1      -2.909   2.415   3.037  0.00  0.00    +0.006 A 
ATOM     10  C   UNL     1      -3.127   2.359   1.680  0.00  0.00    -0.020 A 
ATOM     11  C   UNL     1      -2.361   1.402   0.805  0.00  0.00    +0.107 C 
ATOM     12  C   UNL     1      -0.916   1.236   1.269  0.00  0.00    +0.107 C 
ATOM     13  C   UNL     1      -0.723   0.076   2.180  0.00  0.00    -0.008 A 
ATOM     14  C   UNL     1      -0.979  -1.270   2.030  0.00  0.00    +0.006 A 
ATOM     15  C   UNL     1      -0.671  -2.097   3.105  0.00  0.00    +0.000 A 
ATOM     16  C   UNL     1      -0.134  -1.590   4.271  0.00  0.00    +0.002 A 
ATOM     17  C   UNL     1       0.126  -0.238   4.431  0.00  0.00    +0.023 A 
ATOM     18  C   UNL     1      -0.177   0.603   3.360  0.00  0.00    +0.038 A 
ATOM     19  N   UNL     1      -0.022   1.974   3.248  0.00  0.00    -0.284 N 
ATOM     20  C   UNL     1      -0.432   2.433   2.044  0.00  0.00    +0.231 C 
ATOM     21  O   UNL     1      -0.415   3.585   1.663  0.00  0.00    -0.274 OA
ATOM     22  H   UNL     1       0.339   2.538   3.950  0.00  0.00    +0.155 HD
ATOM     23  N   UNL     1      -2.295   1.671  -0.612  0.00  0.00    -0.384 NA
ATOM     24  H   UNL     1      -2.454   0.759  -1.054  0.00  0.00    +0.127 HD
ENDROOT
BRANCH   1  25
ATOM     25  C   UNL     1       1.301   1.515   0.118  0.00  0.00    +0.170 C 
ATOM     26  O   UNL     1       1.560   2.505   0.768  0.00  0.00    -0.292 OA
BRANCH  25  30
ATOM     27  C   UNL     1       4.426  -0.720  -1.680  0.00  0.00    -0.047 A 
ATOM     28  C   UNL     1       4.729   0.384  -0.902  0.00  0.00    +0.004 A 
ATOM     29  C   UNL     1       3.718   1.116  -0.315  0.00  0.00    +0.011 A 
ATOM     30  C   UNL     1       2.385   0.740  -0.506  0.00  0.00    +0.018 A 
ATOM     31  C   UNL     1       2.088  -0.380  -1.289  0.00  0.00    +0.011 A 
ATOM     32  C   UNL     1       3.109  -1.098  -1.875  0.00  0.00    +0.004 A 
BRANCH  27  33
ATOM     33  C   UNL     1       5.536  -1.514  -2.318  0.00  0.00    +0.035 C 
BRANCH  33  35
ATOM     34  C   UNL     1       7.109  -3.431  -2.014  0.00  0.00    +0.004 C 
ATOM     35  C   UNL     1       5.982  -2.625  -1.366  0.00  0.00    +0.001 C 
ENDBRANCH  33  35
ENDBRANCH  27  33
ENDBRANCH  25  30
ENDBRANCH   1  25
BRANCH   2  36
ATOM     36  C   UNL     1      -0.809   1.556  -2.417  0.00  0.00    +0.158 C 
ATOM     37  O   UNL     1      -1.113   0.419  -2.688  0.00  0.00    -0.295 OA
BRANCH  36  38
ATOM     38  C   UNL     1      -0.340   2.489  -3.504  0.00  0.00    +0.022 C 
ATOM     39  C   UNL     1      -0.263   1.730  -4.830  0.00  0.00    +0.018 C 
ATOM     40  C   UNL     1      -1.325   3.652  -3.638  0.00  0.00    +0.018 C 
ATOM     41  C   UNL     1       1.045   3.032  -3.146  0.00  0.00    +0.018 C 
ENDBRANCH  36  38
ENDBRANCH   2  36
TORSDOF 6
