REMARK  Name = ZINC67223641
REMARK  6 active torsions:
REMARK  status: ('A' for Active; 'I' for Inactive)
REMARK    1  A    between atoms: C_3  and  O_21
REMARK    2  A    between atoms: C_6  and  C_7
REMARK    3  A    between atoms: C_7  and  N_8
REMARK    4  A    between atoms: N_8  and  C_9
REMARK    5  A    between atoms: O_21  and  C_22
REMARK    6  A    between atoms: C_22  and  C_23
REMARK                            x       y       z     vdW  Elec       q    Type
REMARK                         _______ _______ _______ _____ _____    ______ ____
ROOT
ATOM      1  C   UNL     1      -1.356  -0.686   0.011  0.00  0.00    -0.046 C 
ENDROOT
BRANCH   1   7
ATOM      2  C   UNL     1      -0.072   1.461  -0.070  0.00  0.00    +0.005 A 
ATOM      3  C   UNL     1       1.116   2.166  -0.069  0.00  0.00    +0.046 A 
ATOM      4  C   UNL     1       2.323   1.488   0.015  0.00  0.00    +0.121 A 
ATOM      5  C   UNL     1       2.334   0.103   0.098  0.00  0.00    +0.046 A 
ATOM      6  C   UNL     1       1.143  -0.597   0.096  0.00  0.00    +0.005 A 
ATOM      7  C   UNL     1      -0.059   0.081   0.012  0.00  0.00    -0.064 A 
BRANCH   4   8
ATOM      8  O   UNL     1       3.493   2.179   0.016  0.00  0.00    -0.483 OA
BRANCH   8   9
ATOM      9  C   UNL     1       4.698   1.416   0.105  0.00  0.00    +0.324 C 
BRANCH   9  10
ATOM     10  C   UNL     1       5.884   2.345   0.093  0.00  0.00    +0.248 C 
ATOM     11  O   UNL     1       5.714   3.544   0.015  0.00  0.00    -0.272 OA
ATOM     12  N   UNL     1       7.133   1.845   0.168  0.00  0.00    -0.327 N 
ATOM     13  H   UNL     1       7.269   0.886   0.230  0.00  0.00    +0.145 HD
ATOM     14  H   UNL     1       7.896   2.443   0.160  0.00  0.00    +0.145 HD
ENDBRANCH   9  10
ENDBRANCH   8   9
ENDBRANCH   4   8
ENDBRANCH   1   7
BRANCH   1  15
ATOM     15  N   UNL     1      -1.728  -1.017  -1.371  0.00  0.00    +0.386 N 
ATOM     16  H   UNL     1      -1.922  -0.167  -1.880  0.00  0.00    -0.085 HD
ATOM     17  H   UNL     1      -0.967  -1.508  -1.816  0.00  0.00    -0.085 HD
BRANCH  15  18
ATOM     18  C   UNL     1      -2.925  -1.869  -1.366  0.00  0.00    -0.034 C 
ATOM     19  C   UNL     1      -4.112  -1.075  -0.813  0.00  0.00    +0.030 C 
ATOM     20  C   UNL     1      -5.394  -1.871  -1.090  0.00  0.00    +0.228 C 
ATOM     21  O   UNL     1      -5.579  -1.949  -2.504  0.00  0.00    -0.492 OA
ATOM     22  C   UNL     1      -4.521  -2.339  -3.262  0.00  0.00    +0.122 A 
ATOM     23  C   UNL     1      -3.227  -2.319  -2.773  0.00  0.00    -0.019 A 
ATOM     24  C   UNL     1      -2.178  -2.720  -3.583  0.00  0.00    +0.020 A 
ATOM     25  C   UNL     1      -2.419  -3.142  -4.877  0.00  0.00    +0.018 A 
ATOM     26  C   UNL     1      -3.712  -3.165  -5.367  0.00  0.00    +0.019 A 
ATOM     27  C   UNL     1      -4.759  -2.767  -4.564  0.00  0.00    +0.047 A 
ATOM     28 BR   UNL     1      -0.980  -3.688  -5.977  0.00  0.00    -0.050 Br
ENDBRANCH  15  18
ENDBRANCH   1  15
TORSDOF 6
