REMARK  Name = ZINC20927347
REMARK  6 active torsions:
REMARK  status: ('A' for Active; 'I' for Inactive)
REMARK    1  A    between atoms: C_1  and  N_2
REMARK    2  A    between atoms: C_8  and  N_25
REMARK    3  A    between atoms: C_9  and  C_10
REMARK    4  A    between atoms: C_10  and  N_11
REMARK    5  A    between atoms: N_14  and  C_15
REMARK    6  A    between atoms: C_19  and  C_21
REMARK                            x       y       z     vdW  Elec       q    Type
REMARK                         _______ _______ _______ _____ _____    ______ ____
ROOT
ATOM      1  C   UNL     1       2.645   8.114   0.321  0.00  0.00    +0.144 C 
ENDROOT
BRANCH   1  10
ATOM      2  C   UNL     1       1.408  12.186   5.360  0.00  0.00    -0.096 C 
ATOM      3  N   UNL     1       1.424  11.393   4.123  0.00  0.00    +0.381 N 
ATOM      4  C   UNL     1       2.594  10.505   4.082  0.00  0.00    -0.074 C 
ATOM      5  C   UNL     1       2.407   9.434   3.004  0.00  0.00    +0.018 C 
ATOM      6  C   UNL     1       2.049  10.132   1.695  0.00  0.00    -0.034 A 
ATOM      7  C   UNL     1       1.597  11.417   1.724  0.00  0.00    -0.021 A 
ATOM      8  S   UNL     1       1.320  11.808   0.019  0.00  0.00    -0.077 S 
ATOM      9  C   UNL     1       1.822  10.239  -0.673  0.00  0.00    +0.089 A 
ATOM     10  C   UNL     1       2.156   9.534   0.442  0.00  0.00    +0.004 A 
ATOM     11  C   UNL     1       1.394  12.268   2.934  0.00  0.00    -0.036 C 
ATOM     12  H   UNL     1       0.520  10.767   4.116  0.00  0.00    -0.082 HD
BRANCH   9  13
ATOM     13  N   UNL     1       1.860   9.838  -2.013  0.00  0.00    -0.317 N 
ATOM     14  C   UNL     1       2.400  10.553  -3.043  0.00  0.00    +0.092 A 
ATOM     15  C   UNL     1       2.249   9.838  -4.178  0.00  0.00    +0.019 A 
ATOM     16  C   UNL     1       1.583   8.643  -3.839  0.00  0.00    +0.019 A 
ATOM     17  C   UNL     1       1.357   8.669  -2.509  0.00  0.00    +0.092 A 
ENDBRANCH   9  13
ENDBRANCH   1  10
BRANCH   1  18
ATOM     18  N   UNL     1       1.513   7.194   0.459  0.00  0.00    -0.295 N 
ATOM     19  C   UNL     1       1.713   5.864   0.385  0.00  0.00    +0.304 C 
ATOM     20  O   UNL     1       2.833   5.427   0.202  0.00  0.00    -0.252 OA
ATOM     21  N   UNL     1       0.672   5.017   0.512  0.00  0.00    -0.269 N 
ATOM     22  H   UNL     1       0.500   7.590   0.624  0.00  0.00    +0.151 HD
ATOM     23  H   UNL     1      -0.351   5.412   0.592  0.00  0.00    +0.156 HD
BRANCH  21  24
ATOM     24  C   UNL     1       0.893   3.636   0.543  0.00  0.00    +0.035 A 
ATOM     25  C   UNL     1       2.063   3.130   1.095  0.00  0.00    +0.023 A 
ATOM     26  C   UNL     1       2.278   1.766   1.125  0.00  0.00    +0.002 A 
ATOM     27  C   UNL     1       1.330   0.904   0.605  0.00  0.00    +0.012 A 
ATOM     28  C   UNL     1       0.167   1.405   0.049  0.00  0.00    +0.057 A 
ATOM     29  C   UNL     1      -0.057   2.767   0.022  0.00  0.00    +0.035 A 
BRANCH  28  30
ATOM     30  C   UNL     1      -0.861   0.462  -0.522  0.00  0.00    +0.417 C 
ATOM     31  F   UNL     1      -0.417  -0.857  -0.375  0.00  0.00    -0.166 F 
ATOM     32  F   UNL     1      -2.072   0.625   0.159  0.00  0.00    -0.166 F 
ATOM     33  F   UNL     1      -1.047   0.742  -1.880  0.00  0.00    -0.166 F 
ENDBRANCH  28  30
ENDBRANCH  21  24
ENDBRANCH   1  18
TORSDOF 5
