REMARK  Name = ZINC15103653
REMARK  9 active torsions:
REMARK  status: ('A' for Active; 'I' for Inactive)
REMARK    1  A    between atoms: C_1  and  N_52
REMARK    2  A    between atoms: C_2  and  C_3
REMARK    3  A    between atoms: C_2  and  N_52
REMARK    4  A    between atoms: C_3  and  O_4
REMARK    5  A    between atoms: O_4  and  C_5
REMARK    6  A    between atoms: C_12  and  C_13
REMARK    7  A    between atoms: C_12  and  N_52
REMARK    8  A    between atoms: N_15  and  C_16
REMARK    9  A    between atoms: C_17  and  C_25
REMARK                            x       y       z     vdW  Elec       q    Type
REMARK                         _______ _______ _______ _____ _____    ______ ____
ROOT
ATOM      1  C   UNL     1      -0.723   1.951   1.250  0.00  0.00    +0.201 C 
ATOM      2  O   UNL     1      -1.166   1.152   2.048  0.00  0.00    -0.278 OA
ATOM      3  N   UNL     1      -0.862   3.273   1.472  0.00  0.00    -0.281 N 
ATOM      4  H   UNL     1      -0.508   3.912   0.833  0.00  0.00    +0.155 HD
ENDROOT
BRANCH   3   5
ATOM      5  C   UNL     1      -1.511   3.720   2.612  0.00  0.00    +0.084 A 
ATOM      6  C   UNL     1      -1.746   5.027   3.015  0.00  0.00    +0.068 A 
ATOM      7  C   UNL     1      -2.460   5.228   4.264  0.00  0.00    -0.023 A 
ATOM      8  C   UNL     1      -2.814   4.097   4.912  0.00  0.00    -0.004 A 
ATOM      9  S   UNL     1      -2.220   2.782   3.886  0.00  0.00    -0.077 S 
ATOM     10  C   UNL     1      -3.547   3.993   6.214  0.00  0.00    +0.043 C 
ATOM     11  C   UNL     1      -3.514   5.368   6.898  0.00  0.00    +0.005 C 
ATOM     12  C   UNL     1      -3.909   6.437   5.876  0.00  0.00    +0.005 C 
ATOM     13  C   UNL     1      -2.799   6.599   4.836  0.00  0.00    +0.037 C 
BRANCH   6  14
ATOM     14  C   UNL     1      -1.293   6.164   2.207  0.00  0.00    +0.244 C 
ATOM     15  O   UNL     1      -2.022   6.632   1.352  0.00  0.00    -0.270 OA
ATOM     16  N   UNL     1      -0.069   6.691   2.411  0.00  0.00    -0.325 N 
ATOM     17  H   UNL     1       0.512   6.318   3.093  0.00  0.00    +0.145 HD
ATOM     18  H   UNL     1       0.230   7.443   1.877  0.00  0.00    +0.145 HD
ENDBRANCH   6  14
ENDBRANCH   3   5
BRANCH   1  19
ATOM     19  C   UNL     1      -0.018   1.465   0.010  0.00  0.00    +0.019 C 
BRANCH  19  21
ATOM     20  C   UNL     1       0.827  -0.525   1.100  0.00  0.00    -0.095 C 
ATOM     21  N   UNL     1      -0.025  -0.013   0.006  0.00  0.00    +0.386 N 
ATOM     22  H   UNL     1      -0.987  -0.343   0.150  0.00  0.00    -0.081 HD
BRANCH  21  23
ATOM     23  C   UNL     1       0.466  -0.517  -1.294  0.00  0.00    -0.037 C 
BRANCH  23  24
ATOM     24  C   UNL     1       0.239  -2.029  -1.355  0.00  0.00    +0.211 C 
BRANCH  24  25
ATOM     25  O   UNL     1      -1.163  -2.302  -1.320  0.00  0.00    -0.492 OA
BRANCH  25  26
ATOM     26  C   UNL     1      -1.539  -3.608  -1.366  0.00  0.00    +0.139 A 
ATOM     27  C   UNL     1      -0.578  -4.605  -1.449  0.00  0.00    +0.047 A 
ATOM     28  C   UNL     1      -0.962  -5.931  -1.490  0.00  0.00    +0.004 A 
ATOM     29  C   UNL     1      -2.303  -6.266  -1.460  0.00  0.00    +0.002 A 
ATOM     30  C   UNL     1      -3.264  -5.274  -1.383  0.00  0.00    +0.023 A 
ATOM     31  C   UNL     1      -2.885  -3.945  -1.336  0.00  0.00    +0.083 A 
ATOM     32 CL   UNL     1      -4.091  -2.701  -1.240  0.00  0.00    -0.080 Cl
ENDBRANCH  25  26
ENDBRANCH  24  25
ENDBRANCH  23  24
ENDBRANCH  21  23
ENDBRANCH  19  21
ENDBRANCH   1  19
TORSDOF 8
