REMARK  Name = ZINC40757131
REMARK  10 active torsions:
REMARK  status: ('A' for Active; 'I' for Inactive)
REMARK    1  A    between atoms: C_1  and  O_2
REMARK    2  A    between atoms: O_2  and  C_3
REMARK    3  A    between atoms: C_3  and  C_4
REMARK    4  A    between atoms: C_4  and  C_5
REMARK    5  A    between atoms: C_5  and  N_6
REMARK    6  A    between atoms: C_8  and  N_27
REMARK    7  A    between atoms: C_9  and  N_13
REMARK    8  A    between atoms: N_13  and  N_14
REMARK    9  A    between atoms: N_14  and  C_15
REMARK   10  A    between atoms: N_14  and  C_21
REMARK                            x       y       z     vdW  Elec       q    Type
REMARK                         _______ _______ _______ _____ _____    ______ ____
ROOT
ATOM      1  N   UNL     1      -0.239 -11.667   1.195  0.00  0.00    -0.327 N 
ATOM      2  C   UNL     1      -1.354 -11.301   0.451  0.00  0.00    +0.145 A 
ATOM      3  C   UNL     1      -2.431 -10.654   1.060  0.00  0.00    +0.105 A 
ATOM      4  C   UNL     1      -3.526 -10.308   0.267  0.00  0.00    +0.139 A 
ATOM      5  N   UNL     1      -3.502 -10.605  -1.030  0.00  0.00    -0.332 N 
ATOM      6  C   UNL     1      -2.465 -11.216  -1.566  0.00  0.00    +0.200 A 
ATOM      7  N   UNL     1      -1.409 -11.555  -0.854  0.00  0.00    -0.221 NA
ATOM      8  H   UNL     1      -0.207 -11.478   2.146  0.00  0.00    +0.148 HD
ATOM      9  H   UNL     1      -4.259 -10.368  -1.589  0.00  0.00    +0.168 HD
ENDROOT
BRANCH   3  10
ATOM     10  N   UNL     1      -2.414 -10.361   2.434  0.00  0.00    -0.353 N 
ATOM     11  H   UNL     1      -1.646 -10.608   2.973  0.00  0.00    +0.143 HD
ATOM     12  H   UNL     1      -3.170  -9.912   2.843  0.00  0.00    +0.143 HD
ENDBRANCH   3  10
BRANCH   4  13
ATOM     13  N   UNL     1      -4.625  -9.664   0.823  0.00  0.00    -0.243 N 
ATOM     14  H   UNL     1      -4.635  -9.451   1.770  0.00  0.00    +0.172 HD
BRANCH  13  15
ATOM     15  N   UNL     1      -5.718  -9.321   0.017  0.00  0.00    -0.221 N 
BRANCH  15  16
ATOM     16  C   UNL     1      -6.900 -10.062   0.091  0.00  0.00    +0.053 A 
ATOM     17  C   UNL     1      -6.871 -11.439  -0.090  0.00  0.00    +0.025 A 
ATOM     18  C   UNL     1      -8.041 -12.169  -0.016  0.00  0.00    +0.002 A 
ATOM     19  C   UNL     1      -9.242 -11.530   0.238  0.00  0.00    +0.000 A 
ATOM     20  C   UNL     1      -9.274 -10.159   0.417  0.00  0.00    +0.002 A 
ATOM     21  C   UNL     1      -8.107  -9.424   0.351  0.00  0.00    +0.025 A 
ENDBRANCH  15  16
BRANCH  15  22
ATOM     22  C   UNL     1      -5.627  -8.238  -0.861  0.00  0.00    +0.053 A 
ATOM     23  C   UNL     1      -4.527  -7.390  -0.808  0.00  0.00    +0.025 A 
ATOM     24  C   UNL     1      -4.440  -6.321  -1.678  0.00  0.00    +0.002 A 
ATOM     25  C   UNL     1      -5.445  -6.093  -2.600  0.00  0.00    +0.000 A 
ATOM     26  C   UNL     1      -6.540  -6.936  -2.655  0.00  0.00    +0.002 A 
ATOM     27  C   UNL     1      -6.631  -8.010  -1.793  0.00  0.00    +0.025 A 
ENDBRANCH  15  22
ENDBRANCH  13  15
ENDBRANCH   4  13
BRANCH   1  28
ATOM     28  C   UNL     1       0.887 -12.340   0.543  0.00  0.00    +0.105 C 
BRANCH  28  29
ATOM     29  C   UNL     1       1.976 -12.631   1.578  0.00  0.00    +0.047 C 
BRANCH  29  30
ATOM     30  C   UNL     1       3.152 -13.333   0.897  0.00  0.00    +0.161 C 
BRANCH  30  32
ATOM     31  C   UNL     1       5.319 -14.264   1.329  0.00  0.00    +0.193 C 
ATOM     32  O   UNL     1       4.169 -13.606   1.864  0.00  0.00    -0.383 OA
ENDBRANCH  30  32
ENDBRANCH  29  30
ENDBRANCH  28  29
ENDBRANCH   1  28
TORSDOF 9
