REMARK  Name = ZINC09716360
REMARK  7 active torsions:
REMARK  status: ('A' for Active; 'I' for Inactive)
REMARK    1  A    between atoms: C_1  and  C_2
REMARK    2  A    between atoms: C_2  and  O_3
REMARK    3  A    between atoms: O_3  and  C_4
REMARK    4  A    between atoms: C_7  and  N_10
REMARK    5  A    between atoms: C_19  and  C_21
REMARK    6  A    between atoms: C_21  and  S_22
REMARK    7  A    between atoms: S_22  and  C_23
REMARK                            x       y       z     vdW  Elec       q    Type
REMARK                         _______ _______ _______ _____ _____    ______ ____
ROOT
ATOM      1  N   UNL     1       2.404  -5.656   3.733  0.00  0.00    -0.328 N 
ATOM      2  C   UNL     1       1.739  -6.495   2.868  0.00  0.00    +0.180 C 
ATOM      3  N   UNL     1       1.141  -6.007   1.819  0.00  0.00    -0.371 N 
ATOM      4  N   UNL     1       1.706  -7.853   3.113  0.00  0.00    -0.298 N 
ATOM      5  C   UNL     1       2.439  -8.382   4.146  0.00  0.00    +0.211 A 
ATOM      6  N   UNL     1       2.529  -9.733   4.278  0.00  0.00    -0.293 N 
ATOM      7  C   UNL     1       3.249 -10.262   5.291  0.00  0.00    +0.253 A 
ATOM      8  O   UNL     1       3.341 -11.471   5.424  0.00  0.00    -0.268 OA
ATOM      9  C   UNL     1       3.890  -9.391   6.190  0.00  0.00    +0.094 A 
ATOM     10  C   UNL     1       3.764  -8.045   6.008  0.00  0.00    +0.060 A 
ATOM     11  N   UNL     1       3.047  -7.573   4.990  0.00  0.00    -0.218 NA
ATOM     12  H   UNL     1       2.918  -6.026   4.467  0.00  0.00    +0.169 HD
ATOM     13  H   UNL     1       0.619  -6.589   1.244  0.00  0.00    +0.159 HD
ATOM     14  H   UNL     1       1.217  -5.063   1.612  0.00  0.00    +0.159 HD
ATOM     15  H   UNL     1       1.165  -8.433   2.555  0.00  0.00    +0.172 HD
ATOM     16  H   UNL     1       2.078 -10.315   3.646  0.00  0.00    +0.172 HD
ENDROOT
BRANCH   1  20
ATOM     17  C   UNL     1       2.206  -1.526   3.195  0.00  0.00    +0.121 A 
ATOM     18  C   UNL     1       2.514  -2.351   2.123  0.00  0.00    +0.047 A 
ATOM     19  C   UNL     1       2.580  -3.719   2.300  0.00  0.00    +0.029 A 
ATOM     20  C   UNL     1       2.338  -4.268   3.552  0.00  0.00    +0.042 A 
ATOM     21  C   UNL     1       2.029  -3.442   4.625  0.00  0.00    +0.029 A 
ATOM     22  C   UNL     1       1.968  -2.074   4.447  0.00  0.00    +0.047 A 
BRANCH  17  23
ATOM     23  O   UNL     1       2.141  -0.179   3.019  0.00  0.00    -0.492 OA
BRANCH  23  25
ATOM     24  C   UNL     1       2.279   1.842   1.702  0.00  0.00    +0.048 C 
ATOM     25  C   UNL     1       2.397   0.317   1.704  0.00  0.00    +0.225 C 
ENDBRANCH  23  25
ENDBRANCH  17  23
ENDBRANCH   1  20
BRANCH  10  26
ATOM     26  C   UNL     1       4.441  -7.090   6.957  0.00  0.00    +0.133 C 
BRANCH  26  27
ATOM     27  S   UNL     1       5.897  -6.367   6.151  0.00  0.00    -0.080 S 
BRANCH  27  28
ATOM     28  C   UNL     1       6.569  -5.289   7.372  0.00  0.00    +0.189 A 
ATOM     29  N   UNL     1       5.972  -5.196   8.552  0.00  0.00    -0.230 NA
ATOM     30  C   UNL     1       6.451  -4.396   9.491  0.00  0.00    +0.115 A 
ATOM     31  C   UNL     1       7.590  -3.652   9.228  0.00  0.00    +0.039 A 
ATOM     32  C   UNL     1       8.190  -3.774   7.984  0.00  0.00    +0.115 A 
ATOM     33  N   UNL     1       7.662  -4.595   7.091  0.00  0.00    -0.230 NA
ENDBRANCH  27  28
ENDBRANCH  26  27
ENDBRANCH  10  26
TORSDOF 6
