REMARK  Name = ZINC45104595
REMARK  9 active torsions:
REMARK  status: ('A' for Active; 'I' for Inactive)
REMARK    1  A    between atoms: C_1  and  C_2
REMARK    2  A    between atoms: C_10  and  C_11
REMARK    3  A    between atoms: N_13  and  N_14
REMARK    4  A    between atoms: N_17  and  C_18
REMARK    5  A    between atoms: C_18  and  C_19
REMARK    6  A    between atoms: C_24  and  C_25
REMARK    7  A    between atoms: C_25  and  N_26
REMARK    8  A    between atoms: N_26  and  C_27
REMARK    9  A    between atoms: N_26  and  C_28
REMARK                            x       y       z     vdW  Elec       q    Type
REMARK                         _______ _______ _______ _____ _____    ______ ____
ROOT
ATOM      1  N   UNL     1       0.038  -1.060   5.699  0.00  0.00    -0.218 N 
ATOM      2  C   UNL     1       0.121  -2.123   6.525  0.00  0.00    +0.316 C 
ATOM      3  O   UNL     1       0.292  -1.954   7.717  0.00  0.00    -0.251 OA
ATOM      4  N   UNL     1       0.016  -3.371   6.029  0.00  0.00    -0.294 N 
ATOM      5  H   UNL     1       0.113  -0.162   6.056  0.00  0.00    +0.174 HD
ATOM      6  H   UNL     1      -0.120  -3.506   5.078  0.00  0.00    +0.151 HD
ENDROOT
BRANCH   1   9
ATOM      7  C   UNL     1      -0.243  -0.192   3.501  0.00  0.00    +0.296 C 
ATOM      8  O   UNL     1      -0.148   0.935   3.948  0.00  0.00    -0.265 OA
ATOM      9  N   UNL     1      -0.159  -1.254   4.326  0.00  0.00    -0.227 N 
ATOM     10  H   UNL     1      -0.235  -2.153   3.969  0.00  0.00    +0.173 HD
BRANCH   7  20
ATOM     11  C   UNL     1      -0.470   2.079   1.389  0.00  0.00    +0.048 C 
ATOM     12  C   UNL     1      -0.549   0.596   1.137  0.00  0.00    +0.008 A 
ATOM     13  C   UNL     1      -0.741  -0.069  -0.152  0.00  0.00    +0.024 A 
ATOM     14  C   UNL     1      -0.903   0.381  -1.465  0.00  0.00    +0.012 A 
ATOM     15  C   UNL     1      -1.065  -0.524  -2.475  0.00  0.00    +0.001 A 
ATOM     16  C   UNL     1      -1.070  -1.886  -2.206  0.00  0.00    +0.004 A 
ATOM     17  C   UNL     1      -0.912  -2.350  -0.918  0.00  0.00    +0.047 A 
ATOM     18  C   UNL     1      -0.745  -1.448   0.127  0.00  0.00    +0.136 A 
ATOM     19  O   UNL     1      -0.572  -1.596   1.454  0.00  0.00    -0.450 OA
ATOM     20  C   UNL     1      -0.449  -0.396   2.059  0.00  0.00    +0.195 A 
ENDBRANCH   7  20
ENDBRANCH   1   9
BRANCH   4  21
ATOM     21  C   UNL     1       0.107  -4.526   6.926  0.00  0.00    +0.141 C 
BRANCH  21  22
ATOM     22  C   UNL     1       0.102  -5.795   6.113  0.00  0.00    -0.029 A 
ATOM     23  C   UNL     1      -1.069  -6.514   5.963  0.00  0.00    +0.005 A 
ATOM     24  C   UNL     1      -1.074  -7.678   5.218  0.00  0.00    +0.000 A 
ATOM     25  C   UNL     1       0.092  -8.123   4.622  0.00  0.00    +0.000 A 
ATOM     26  C   UNL     1       1.262  -7.404   4.772  0.00  0.00    +0.002 A 
ATOM     27  C   UNL     1       1.266  -6.237   5.514  0.00  0.00    -0.059 A 
BRANCH  27  28
ATOM     28  C   UNL     1       2.541  -5.449   5.673  0.00  0.00    -0.043 C 
BRANCH  28  29
ATOM     29  N   UNL     1       2.556  -4.342   4.708  0.00  0.00    +0.379 N 
ATOM     30  C   UNL     1       3.737  -3.501   4.947  0.00  0.00    -0.096 C 
ATOM     31  C   UNL     1       2.607  -4.882   3.343  0.00  0.00    -0.096 C 
ATOM     32  H   UNL     1       1.721  -3.787   4.820  0.00  0.00    -0.082 HD
ENDBRANCH  28  29
ENDBRANCH  27  28
ENDBRANCH  21  22
ENDBRANCH   4  21
TORSDOF 6
