REMARK  Name = ZINC62507245
REMARK  10 active torsions:
REMARK  status: ('A' for Active; 'I' for Inactive)
REMARK    1  A    between atoms: C_1  and  C_2
REMARK    2  A    between atoms: C_2  and  C_3
REMARK    3  A    between atoms: C_2  and  N_4
REMARK    4  A    between atoms: N_4  and  S_5
REMARK    5  A    between atoms: S_5  and  N_8
REMARK    6  A    between atoms: N_8  and  C_9
REMARK    7  A    between atoms: C_9  and  C_10
REMARK    8  A    between atoms: C_10  and  C_11
REMARK    9  A    between atoms: C_10  and  C_12
REMARK   10  A    between atoms: C_10  and  O_19
REMARK                            x       y       z     vdW  Elec       q    Type
REMARK                         _______ _______ _______ _____ _____    ______ ____
ROOT
ATOM      1  C   UNL     1      -0.447  -3.485   1.809  0.00  0.00    +0.146 C 
ENDROOT
BRANCH   1   2
ATOM      2  N   UNL     1      -1.077  -2.211   2.162  0.00  0.00    -0.177 NA
ATOM      3  H   UNL     1      -2.044  -2.133   2.169  0.00  0.00    +0.149 HD
BRANCH   2   4
ATOM      4  S   UNL     1      -0.139  -0.902   2.549  0.00  0.00    +0.095 S 
ATOM      5  O   UNL     1       0.814  -1.354   3.502  0.00  0.00    -0.141 OA
ATOM      6  O   UNL     1      -1.030   0.173   2.814  0.00  0.00    -0.141 OA
BRANCH   4   7
ATOM      7  N   UNL     1       0.711  -0.489   1.189  0.00  0.00    -0.177 NA
ATOM      8  H   UNL     1       1.677  -0.569   1.178  0.00  0.00    +0.149 HD
BRANCH   7  10
ATOM      9  C   UNL     1      -0.019   1.526   0.010  0.00  0.00    +0.025 C 
ATOM     10  C   UNL     1       0.002  -0.004   0.002  0.00  0.00    +0.071 C 
ATOM     11  C   UNL     1       0.718  -0.497  -1.257  0.00  0.00    +0.025 C 
ENDBRANCH   7  10
ENDBRANCH   4   7
ENDBRANCH   2   4
ENDBRANCH   1   2
BRANCH   1  12
ATOM     12  C   UNL     1      -1.491  -4.602   1.863  0.00  0.00    +0.102 C 
ATOM     13  C   UNL     1      -2.616  -4.297   0.872  0.00  0.00    +0.048 C 
BRANCH  12  14
ATOM     14  C   UNL     1      -0.843  -5.913   1.499  0.00  0.00    -0.015 A 
ATOM     15  C   UNL     1       0.234  -5.935   0.633  0.00  0.00    +0.007 A 
ATOM     16  C   UNL     1       0.829  -7.137   0.300  0.00  0.00    +0.015 A 
ATOM     17  C   UNL     1       0.346  -8.319   0.833  0.00  0.00    +0.018 A 
ATOM     18  C   UNL     1      -0.732  -8.297   1.699  0.00  0.00    +0.015 A 
ATOM     19  C   UNL     1      -1.323  -7.093   2.036  0.00  0.00    +0.007 A 
ATOM     20 BR   UNL     1       1.159  -9.964   0.377  0.00  0.00    -0.050 Br
ENDBRANCH  12  14
BRANCH  12  21
ATOM     21  O   UNL     1      -2.030  -4.687   3.183  0.00  0.00    -0.383 OA
ATOM     22  H   UNL     1      -1.372  -4.879   3.865  0.00  0.00    +0.211 HD
ENDBRANCH  12  21
ENDBRANCH   1  12
TORSDOF 7
