REMARK  Name = ZINC63687953
REMARK  10 active torsions:
REMARK  status: ('A' for Active; 'I' for Inactive)
REMARK    1  A    between atoms: C_1  and  C_2
REMARK    2  A    between atoms: C_2  and  O_3
REMARK    3  A    between atoms: O_3  and  C_4
REMARK    4  A    between atoms: C_4  and  C_6
REMARK    5  A    between atoms: C_8  and  N_22
REMARK    6  A    between atoms: N_13  and  C_15
REMARK    7  A    between atoms: C_18  and  C_21
REMARK    8  A    between atoms: N_22  and  C_23
REMARK    9  A    between atoms: C_23  and  C_24
REMARK   10  A    between atoms: C_24  and  C_25
REMARK                            x       y       z     vdW  Elec       q    Type
REMARK                         _______ _______ _______ _____ _____    ______ ____
ROOT
ATOM      1  C   UNL     1       1.534  -2.528  -2.279  0.00  0.00    +0.199 C 
ATOM      2  C   UNL     1       3.049  -2.311  -2.390  0.00  0.00    +0.092 C 
ATOM      3  C   UNL     1       3.454  -2.541  -3.851  0.00  0.00    +0.118 C 
ATOM      4  C   UNL     1       2.796  -3.798  -4.352  0.00  0.00    +0.235 C 
ATOM      5  O   UNL     1       3.216  -4.311  -5.367  0.00  0.00    -0.274 OA
ATOM      6  N   UNL     1       1.768  -4.372  -3.723  0.00  0.00    -0.204 N 
ATOM      7  N   UNL     1       1.233  -3.936  -2.555  0.00  0.00    -0.218 NA
ATOM      8  H   UNL     1       1.518  -4.524  -1.787  0.00  0.00    +0.146 HD
ENDROOT
BRANCH   6   9
ATOM      9  C   UNL     1       1.198  -5.505  -4.312  0.00  0.00    +0.053 A 
ATOM     10  C   UNL     1       0.848  -5.489  -5.656  0.00  0.00    +0.025 A 
ATOM     11  C   UNL     1       0.285  -6.609  -6.236  0.00  0.00    +0.005 A 
ATOM     12  C   UNL     1       0.070  -7.747  -5.479  0.00  0.00    -0.050 A 
ATOM     13  C   UNL     1       0.416  -7.766  -4.141  0.00  0.00    +0.005 A 
ATOM     14  C   UNL     1       0.985  -6.651  -3.557  0.00  0.00    +0.025 A 
ATOM     15  C   UNL     1      -0.544  -8.967  -6.114  0.00  0.00    +0.044 C 
ENDBRANCH   6   9
BRANCH   1  16
ATOM     16  C   UNL     1       1.075  -2.176  -0.888  0.00  0.00    +0.327 C 
ATOM     17  O   UNL     1       0.885  -3.050  -0.075  0.00  0.00    -0.249 OA
BRANCH  16  18
ATOM     18  O   UNL     1       0.876  -0.892  -0.550  0.00  0.00    -0.464 OA
BRANCH  18  20
ATOM     19  C   UNL     1       0.269   0.875   0.982  0.00  0.00    +0.048 C 
ATOM     20  C   UNL     1       0.440  -0.632   0.785  0.00  0.00    +0.229 C 
ENDBRANCH  18  20
ENDBRANCH  16  18
ENDBRANCH   1  16
BRANCH   2  21
ATOM     21  N   UNL     1       3.752  -3.265  -1.522  0.00  0.00    -0.310 NA
ATOM     22  H   UNL     1       3.198  -3.490  -0.710  0.00  0.00    +0.122 HD
BRANCH  21  23
ATOM     23  C   UNL     1       5.072  -2.750  -1.134  0.00  0.00    +0.085 C 
BRANCH  23  24
ATOM     24  C   UNL     1       5.772  -3.769  -0.233  0.00  0.00    +0.048 C 
BRANCH  24  25
ATOM     25  C   UNL     1       7.126  -3.241   0.165  0.00  0.00    -0.040 C 
ATOM     26  C   UNL     1       7.436  -2.573   1.299  0.00  0.00    -0.001 A 
ATOM     27  C   UNL     1       6.637  -2.152   2.457  0.00  0.00    +0.010 A 
ATOM     28  C   UNL     1       7.242  -1.481   3.463  0.00  0.00    +0.001 A 
ATOM     29  C   UNL     1       8.610  -1.177   3.428  0.00  0.00    +0.002 A 
ATOM     30  C   UNL     1       9.409  -1.530   2.399  0.00  0.00    +0.026 A 
ATOM     31  C   UNL     1       8.879  -2.240   1.287  0.00  0.00    +0.043 A 
ATOM     32  N   UNL     1       9.438  -2.685   0.188  0.00  0.00    -0.380 N 
ATOM     33  C   UNL     1       8.414  -3.357  -0.619  0.00  0.00    +0.144 C 
ATOM     34  H   UNL     1      10.373  -2.590  -0.050  0.00  0.00    +0.160 HD
ENDBRANCH  24  25
ENDBRANCH  23  24
ENDBRANCH  21  23
ENDBRANCH   2  21
TORSDOF 8
