REMARK  Name = ZINC37172258
REMARK  11 active torsions:
REMARK  status: ('A' for Active; 'I' for Inactive)
REMARK    1  A    between atoms: C_1  and  C_2
REMARK    2  A    between atoms: C_2  and  C_3
REMARK    3  A    between atoms: C_3  and  C_5
REMARK    4  A    between atoms: C_3  and  C_6
REMARK    5  A    between atoms: C_6  and  N_7
REMARK    6  A    between atoms: N_7  and  C_8
REMARK    7  A    between atoms: N_7  and  C_9
REMARK    8  A    between atoms: C_9  and  C_10
REMARK    9  A    between atoms: C_10  and  C_11
REMARK   10  A    between atoms: N_13  and  C_14
REMARK   11  A    between atoms: C_15  and  N_22
REMARK                            x       y       z     vdW  Elec       q    Type
REMARK                         _______ _______ _______ _____ _____    ______ ____
ROOT
ATOM      1  C   UNL     1       3.326  -5.839  -4.103  0.00  0.00    +0.215 C 
ATOM      2  O   UNL     1       4.045  -6.364  -3.279  0.00  0.00    -0.276 OA
ATOM      3  N   UNL     1       2.566  -6.599  -4.916  0.00  0.00    -0.283 N 
ATOM      4  H   UNL     1       1.938  -6.179  -5.524  0.00  0.00    +0.155 HD
ENDROOT
BRANCH   3   5
ATOM      5  C   UNL     1       2.683  -7.996  -4.882  0.00  0.00    +0.073 A 
ATOM      6  C   UNL     1       3.625  -8.638  -5.685  0.00  0.00    +0.049 A 
ATOM      7  C   UNL     1       3.737 -10.020  -5.647  0.00  0.00    +0.044 A 
ATOM      8  C   UNL     1       2.914 -10.758  -4.815  0.00  0.00    +0.044 A 
ATOM      9  C   UNL     1       1.979 -10.121  -4.019  0.00  0.00    +0.042 A 
ATOM     10  C   UNL     1       1.865  -8.742  -4.047  0.00  0.00    +0.065 A 
ATOM     11 CL   UNL     1       0.695  -7.947  -3.040  0.00  0.00    -0.082 Cl
ATOM     12 CL   UNL     1       3.055 -12.488  -4.770  0.00  0.00    -0.083 Cl
BRANCH   6  13
ATOM     13  N   UNL     1       4.456  -7.890  -6.526  0.00  0.00    -0.356 N 
ATOM     14  H   UNL     1       4.377  -6.924  -6.552  0.00  0.00    +0.142 HD
ATOM     15  H   UNL     1       5.111  -8.338  -7.084  0.00  0.00    +0.142 HD
ENDBRANCH   6  13
ENDBRANCH   3   5
BRANCH   1  16
ATOM     16  C   UNL     1       3.284  -4.337  -4.217  0.00  0.00    +0.077 C 
BRANCH  16  17
ATOM     17  C   UNL     1       4.233  -3.720  -3.188  0.00  0.00    -0.070 C 
BRANCH  17  18
ATOM     18  N   UNL     1       4.191  -2.256  -3.299  0.00  0.00    +0.378 N 
ATOM     19  C   UNL     1       2.853  -1.774  -2.932  0.00  0.00    -0.096 C 
ATOM     20  H   UNL     1       4.397  -1.985  -4.249  0.00  0.00    -0.082 HD
BRANCH  18  21
ATOM     21  C   UNL     1       5.189  -1.667  -2.396  0.00  0.00    -0.076 C 
BRANCH  21  22
ATOM     22  C   UNL     1       5.233  -0.152  -2.602  0.00  0.00    -0.031 C 
ATOM     23  C   UNL     1       5.734   0.156  -4.014  0.00  0.00    +0.005 C 
BRANCH  22  25
ATOM     24  C   UNL     1       6.129   1.999  -1.700  0.00  0.00    +0.004 C 
ATOM     25  C   UNL     1       6.180   0.475  -1.576  0.00  0.00    -0.002 C 
ENDBRANCH  22  25
ENDBRANCH  21  22
ENDBRANCH  18  21
ENDBRANCH  17  18
ENDBRANCH  16  17
ENDBRANCH   1  16
TORSDOF 8
