REMARK  Name = ZINC63732003
REMARK  7 active torsions:
REMARK  status: ('A' for Active; 'I' for Inactive)
REMARK    1  A    between atoms: C_6  and  C_11
REMARK    2  A    between atoms: C_11  and  C_12
REMARK    3  A    between atoms: C_12  and  C_14
REMARK    4  A    between atoms: C_12  and  N_24
REMARK    5  A    between atoms: N_16  and  C_17
REMARK    6  A    between atoms: N_24  and  S_25
REMARK    7  A    between atoms: S_25  and  C_28
REMARK                            x       y       z     vdW  Elec       q    Type
REMARK                         _______ _______ _______ _____ _____    ______ ____
ROOT
ATOM      1  C   UNL     1       5.330  -2.802   1.296  0.00  0.00    +0.165 C 
ENDROOT
BRANCH   1   2
ATOM      2  C   UNL     1       5.595  -3.647   2.516  0.00  0.00    +0.236 C 
ATOM      3  O   UNL     1       6.044  -4.766   2.393  0.00  0.00    -0.274 OA
ATOM      4  N   UNL     1       5.333  -3.157   3.744  0.00  0.00    -0.284 N 
ATOM      5  H   UNL     1       5.038  -2.239   3.848  0.00  0.00    +0.155 HD
BRANCH   4   6
ATOM      6  C   UNL     1       5.488  -3.974   4.871  0.00  0.00    +0.034 A 
ATOM      7  C   UNL     1       4.617  -3.849   5.945  0.00  0.00    +0.025 A 
ATOM      8  C   UNL     1       4.771  -4.656   7.055  0.00  0.00    +0.022 A 
ATOM      9  C   UNL     1       5.792  -5.589   7.097  0.00  0.00    +0.041 A 
ATOM     10  C   UNL     1       6.661  -5.716   6.028  0.00  0.00    +0.022 A 
ATOM     11  C   UNL     1       6.508  -4.915   4.913  0.00  0.00    +0.025 A 
ATOM     12 CL   UNL     1       5.984  -6.602   8.494  0.00  0.00    -0.084 Cl
ENDBRANCH   4   6
ENDBRANCH   1   2
BRANCH   1  13
ATOM     13  N   UNL     1       5.694  -3.554   0.093  0.00  0.00    -0.178 NA
ATOM     14  H   UNL     1       5.581  -4.517   0.070  0.00  0.00    +0.149 HD
BRANCH  13  15
ATOM     15  S   UNL     1       6.300  -2.760  -1.228  0.00  0.00    +0.059 S 
ATOM     16  O   UNL     1       6.623  -3.757  -2.188  0.00  0.00    -0.153 OA
ATOM     17  O   UNL     1       5.401  -1.696  -1.509  0.00  0.00    -0.153 OA
BRANCH  15  18
ATOM     18  C   UNL     1       7.821  -2.019  -0.738  0.00  0.00    +0.106 A 
ATOM     19  C   UNL     1       7.829  -0.739  -0.215  0.00  0.00    +0.030 A 
ATOM     20  C   UNL     1       9.019  -0.155   0.171  0.00  0.00    +0.025 A 
ATOM     21  C   UNL     1      10.210  -0.855   0.031  0.00  0.00    +0.037 A 
ATOM     22  C   UNL     1      10.200  -2.140  -0.495  0.00  0.00    -0.024 A 
ATOM     23  C   UNL     1       9.005  -2.721  -0.873  0.00  0.00    +0.034 A 
ATOM     24  C   UNL     1      11.492  -2.900  -0.645  0.00  0.00    +0.046 C 
ATOM     25  C   UNL     1      12.621  -1.925  -0.982  0.00  0.00    +0.101 C 
ATOM     26  C   UNL     1      12.589  -0.756  -0.035  0.00  0.00    +0.218 C 
ATOM     27  O   UNL     1      13.630  -0.246   0.323  0.00  0.00    -0.275 OA
ATOM     28  N   UNL     1      11.419  -0.270   0.419  0.00  0.00    -0.285 N 
ATOM     29  H   UNL     1      11.415   0.492   1.020  0.00  0.00    +0.155 HD
ENDBRANCH  15  18
ENDBRANCH  13  15
ENDBRANCH   1  13
BRANCH   1  30
ATOM     30  C   UNL     1       3.845  -2.439   1.241  0.00  0.00    +0.058 C 
BRANCH  30  36
ATOM     31  C   UNL     1      -0.626  -4.642  -1.428  0.00  0.00    +0.001 A 
ATOM     32  C   UNL     1       0.393  -5.303  -2.127  0.00  0.00    +0.002 A 
ATOM     33  C   UNL     1       1.676  -5.318  -1.705  0.00  0.00    +0.026 A 
ATOM     34  C   UNL     1       2.046  -4.647  -0.507  0.00  0.00    +0.043 A 
ATOM     35  N   UNL     1       3.200  -4.519   0.100  0.00  0.00    -0.378 N 
ATOM     36  C   UNL     1       3.005  -3.716   1.312  0.00  0.00    +0.105 C 
ATOM     37  C   UNL     1       1.532  -3.371   1.348  0.00  0.00    +0.007 C 
ATOM     38  C   UNL     1       0.987  -3.941   0.249  0.00  0.00    -0.004 A 
ATOM     39  C   UNL     1      -0.382  -3.974  -0.278  0.00  0.00    +0.010 A 
ATOM     40  H   UNL     1       4.043  -4.892  -0.201  0.00  0.00    +0.160 HD
ENDBRANCH  30  36
ENDBRANCH   1  30
TORSDOF 7
