REMARK  Name = ZINC37918463
REMARK  8 active torsions:
REMARK  status: ('A' for Active; 'I' for Inactive)
REMARK    1  A    between atoms: C_1  and  C_2
REMARK    2  A    between atoms: C_5  and  C_21
REMARK    3  A    between atoms: C_6  and  N_8
REMARK    4  A    between atoms: N_8  and  S_9
REMARK    5  A    between atoms: S_9  and  C_12
REMARK    6  A    between atoms: C_12  and  C_13
REMARK    7  A    between atoms: C_17  and  C_19
REMARK    8  A    between atoms: C_19  and  N_20
REMARK                            x       y       z     vdW  Elec       q    Type
REMARK                         _______ _______ _______ _____ _____    ______ ____
ROOT
ATOM      1  S   UNL     1      -0.668  -2.154   3.737  0.00  0.00    +0.047 S 
ATOM      2  O   UNL     1      -0.341  -3.055   4.787  0.00  0.00    -0.155 OA
ATOM      3  O   UNL     1      -0.225  -0.805   3.776  0.00  0.00    -0.155 OA
ENDROOT
BRANCH   1   4
ATOM      4  N   UNL     1       0.051  -2.796   2.390  0.00  0.00    -0.220 N 
ATOM      5  H   UNL     1       0.604  -3.590   2.467  0.00  0.00    +0.173 HD
BRANCH   4  11
ATOM      6  C   UNL     1      -0.548   1.276  -0.295  0.00  0.00    +0.044 C 
ATOM      7  C   UNL     1      -0.432  -0.223  -0.188  0.00  0.00    -0.049 A 
ATOM      8  C   UNL     1      -0.513  -1.005  -1.326  0.00  0.00    +0.004 A 
ATOM      9  C   UNL     1      -0.408  -2.381  -1.232  0.00  0.00    +0.005 A 
ATOM     10  C   UNL     1      -0.221  -2.978  -0.001  0.00  0.00    -0.028 A 
ATOM     11  C   UNL     1      -0.138  -2.196   1.144  0.00  0.00    +0.051 A 
ATOM     12  C   UNL     1      -0.239  -0.814   1.045  0.00  0.00    +0.028 A 
ATOM     13  C   UNL     1      -0.107  -4.478   0.101  0.00  0.00    +0.046 C 
ENDBRANCH   4  11
ENDBRANCH   1   4
BRANCH   1  14
ATOM     14  C   UNL     1      -2.447  -2.218   3.390  0.00  0.00    +0.223 C 
BRANCH  14  15
ATOM     15  C   UNL     1      -3.208  -1.652   4.562  0.00  0.00    -0.025 A 
ATOM     16  C   UNL     1      -3.608  -2.483   5.592  0.00  0.00    +0.005 A 
ATOM     17  C   UNL     1      -4.306  -1.964   6.666  0.00  0.00    +0.001 A 
ATOM     18  C   UNL     1      -4.603  -0.614   6.711  0.00  0.00    +0.002 A 
ATOM     19  C   UNL     1      -4.201   0.216   5.682  0.00  0.00    -0.065 A 
ATOM     20  C   UNL     1      -3.500  -0.302   4.609  0.00  0.00    +0.007 A 
BRANCH  19  21
ATOM     21  C   UNL     1      -4.525   1.687   5.730  0.00  0.00    -0.051 C 
BRANCH  21  22
ATOM     22  N   UNL     1      -3.437   2.406   6.406  0.00  0.00    +0.381 N 
ATOM     23  H   UNL     1      -3.333   2.053   7.345  0.00  0.00    -0.090 HD
ATOM     24  H   UNL     1      -2.576   2.268   5.898  0.00  0.00    -0.090 HD
ATOM     25  H   UNL     1      -3.654   3.391   6.438  0.00  0.00    -0.090 HD
ENDBRANCH  21  22
ENDBRANCH  19  21
ENDBRANCH  14  15
ENDBRANCH   1  14
TORSDOF 6
