REMARK  Name = ZINC54649206
REMARK  7 active torsions:
REMARK  status: ('A' for Active; 'I' for Inactive)
REMARK    1  A    between atoms: C_3  and  C_6
REMARK    2  A    between atoms: C_6  and  C_8
REMARK    3  A    between atoms: C_6  and  N_24
REMARK    4  A    between atoms: C_8  and  N_9
REMARK    5  A    between atoms: N_12  and  C_13
REMARK    6  A    between atoms: C_13  and  C_14
REMARK    7  A    between atoms: N_16  and  C_17
REMARK                            x       y       z     vdW  Elec       q    Type
REMARK                         _______ _______ _______ _____ _____    ______ ____
ROOT
ATOM      1  N   UNL     1       5.538   0.105  -1.629  0.00  0.00    -0.301 N 
ATOM      2  C   UNL     1       6.118  -0.233  -2.797  0.00  0.00    +0.300 C 
ATOM      3  O   UNL     1       5.436  -0.397  -3.790  0.00  0.00    -0.253 OA
ATOM      4  N   UNL     1       7.455  -0.390  -2.865  0.00  0.00    -0.291 N 
ATOM      5  H   UNL     1       6.082   0.236  -0.837  0.00  0.00    +0.150 HD
ATOM      6  H   UNL     1       8.000  -0.260  -2.073  0.00  0.00    +0.151 HD
ENDROOT
BRANCH   1   7
ATOM      7  C   UNL     1       4.085   0.276  -1.555  0.00  0.00    +0.098 C 
BRANCH   7   8
ATOM      8  C   UNL     1       3.674   0.531  -0.104  0.00  0.00    +0.016 C 
BRANCH   8   9
ATOM      9  N   UNL     1       4.179  -0.555   0.746  0.00  0.00    +0.387 N 
ATOM     10  C   UNL     1       3.702  -1.843   0.227  0.00  0.00    -0.078 C 
ATOM     11  C   UNL     1       4.291  -2.983   1.060  0.00  0.00    -0.019 C 
ATOM     12  C   UNL     1       3.849  -2.824   2.518  0.00  0.00    -0.004 C 
ATOM     13  C   UNL     1       4.287  -1.447   3.026  0.00  0.00    -0.019 C 
ATOM     14  C   UNL     1       3.698  -0.364   2.120  0.00  0.00    -0.078 C 
ATOM     15  H   UNL     1       5.188  -0.545   0.740  0.00  0.00    -0.081 HD
ENDBRANCH   8   9
BRANCH   8  18
ATOM     16  C   UNL     1       0.080   1.291   0.196  0.00  0.00    +0.041 A 
ATOM     17  C   UNL     1       1.434   1.698   0.164  0.00  0.00    +0.043 A 
ATOM     18  C   UNL     1       2.171   0.586  -0.009  0.00  0.00    +0.093 A 
ATOM     19  O   UNL     1       1.340  -0.467  -0.083  0.00  0.00    -0.469 OA
ATOM     20  C   UNL     1       0.071  -0.045   0.040  0.00  0.00    +0.195 A 
ENDBRANCH   8  18
ENDBRANCH   7   8
ENDBRANCH   1   7
BRANCH   4  21
ATOM     21  C   UNL     1       8.086  -0.758  -4.135  0.00  0.00    +0.202 C 
BRANCH  21  22
ATOM     22  C   UNL     1       9.576  -0.870  -3.942  0.00  0.00    +0.234 C 
ATOM     23  O   UNL     1      10.064  -0.662  -2.851  0.00  0.00    -0.274 OA
ATOM     24  N   UNL     1      10.368  -1.200  -4.981  0.00  0.00    -0.284 N 
ATOM     25  H   UNL     1       9.988  -1.297  -5.869  0.00  0.00    +0.155 HD
BRANCH  24  26
ATOM     26  C   UNL     1      11.738  -1.403  -4.781  0.00  0.00    +0.034 A 
ATOM     27  C   UNL     1      12.646  -1.039  -5.766  0.00  0.00    +0.025 A 
ATOM     28  C   UNL     1      13.998  -1.240  -5.566  0.00  0.00    +0.022 A 
ATOM     29  C   UNL     1      14.447  -1.804  -4.385  0.00  0.00    +0.041 A 
ATOM     30  C   UNL     1      13.544  -2.167  -3.401  0.00  0.00    +0.022 A 
ATOM     31  C   UNL     1      12.192  -1.963  -3.594  0.00  0.00    +0.025 A 
ATOM     32 CL   UNL     1      16.147  -2.056  -4.137  0.00  0.00    -0.084 Cl
ENDBRANCH  24  26
ENDBRANCH  21  22
ENDBRANCH   4  21
TORSDOF 7
