REMARK  Name = ZINC35148184
REMARK  9 active torsions:
REMARK  status: ('A' for Active; 'I' for Inactive)
REMARK    1  A    between atoms: C_1  and  O_2
REMARK    2  A    between atoms: O_2  and  C_3
REMARK    3  A    between atoms: C_6  and  C_11
REMARK    4  A    between atoms: C_8  and  O_9
REMARK    5  A    between atoms: O_9  and  C_10
REMARK    6  A    between atoms: C_17  and  N_20
REMARK    7  A    between atoms: N_20  and  C_21
REMARK    8  A    between atoms: C_24  and  O_28
REMARK    9  A    between atoms: O_28  and  C_29
REMARK                            x       y       z     vdW  Elec       q    Type
REMARK                         _______ _______ _______ _____ _____    ______ ____
ROOT
ATOM      1  C   UNL     1       2.498  -2.492  -4.372  0.00  0.00    +0.096 A 
ATOM      2  C   UNL     1       3.197  -1.840  -5.398  0.00  0.00    +0.074 A 
ATOM      3  C   UNL     1       3.662  -2.792  -6.284  0.00  0.00    +0.132 A 
ATOM      4  N   UNL     1       3.246  -3.985  -5.792  0.00  0.00    -0.188 N 
ATOM      5  N   UNL     1       2.534  -3.785  -4.609  0.00  0.00    -0.159 NA
ATOM      6  S   UNL     1       3.791  -5.168  -6.841  0.00  0.00    +0.020 S 
ATOM      7  C   UNL     1       4.646  -4.090  -8.057  0.00  0.00    +0.241 C 
ATOM      8  N   UNL     1       4.398  -2.765  -7.463  0.00  0.00    -0.301 N 
ATOM      9  H   UNL     1       4.722  -1.942  -7.862  0.00  0.00    +0.150 HD
ENDROOT
BRANCH   1  13
ATOM     10  C   UNL     1       0.606  -0.607  -1.056  0.00  0.00    +0.162 A 
ATOM     11  C   UNL     1       1.172   0.162  -2.061  0.00  0.00    +0.050 A 
ATOM     12  C   UNL     1       1.787  -0.447  -3.137  0.00  0.00    +0.014 A 
ATOM     13  C   UNL     1       1.839  -1.837  -3.215  0.00  0.00    +0.006 A 
ATOM     14  C   UNL     1       1.270  -2.611  -2.206  0.00  0.00    +0.059 A 
ATOM     15  C   UNL     1       0.660  -1.997  -1.126  0.00  0.00    +0.162 A 
BRANCH  10  17
ATOM     16  C   UNL     1      -0.017   1.425   0.010  0.00  0.00    +0.277 C 
ATOM     17  O   UNL     1       0.002  -0.004   0.002  0.00  0.00    -0.491 OA
ENDBRANCH  10  17
BRANCH  15  18
ATOM     18  O   UNL     1       0.109  -2.750  -0.137  0.00  0.00    -0.491 OA
ATOM     19  C   UNL     1       0.202  -4.170  -0.274  0.00  0.00    +0.277 C 
ENDBRANCH  15  18
ENDBRANCH   1  13
BRANCH   7  20
ATOM     20  N   UNL     1       6.080  -4.387  -8.111  0.00  0.00    -0.316 N 
ATOM     21  H   UNL     1       6.715  -3.794  -7.681  0.00  0.00    +0.149 HD
BRANCH  20  22
ATOM     22  C   UNL     1       6.533  -5.527  -8.785  0.00  0.00    +0.031 A 
ATOM     23  C   UNL     1       5.625  -6.373  -9.407  0.00  0.00    +0.026 A 
ATOM     24  C   UNL     1       6.072  -7.498 -10.072  0.00  0.00    +0.049 A 
ATOM     25  C   UNL     1       7.429  -7.783 -10.120  0.00  0.00    +0.138 A 
ATOM     26  C   UNL     1       8.338  -6.937  -9.498  0.00  0.00    +0.084 A 
ATOM     27  C   UNL     1       7.891  -5.809  -8.837  0.00  0.00    +0.046 A 
ATOM     28 CL   UNL     1      10.035  -7.295  -9.558  0.00  0.00    -0.080 Cl
BRANCH  25  29
ATOM     29  O   UNL     1       7.868  -8.891 -10.774  0.00  0.00    -0.494 OA
ATOM     30  C   UNL     1       6.878  -9.716 -11.390  0.00  0.00    +0.277 C 
ENDBRANCH  25  29
ENDBRANCH  20  22
ENDBRANCH   7  20
TORSDOF 6
