REMARK  Name = ZINC39361917
REMARK  9 active torsions:
REMARK  status: ('A' for Active; 'I' for Inactive)
REMARK    1  A    between atoms: C_1  and  C_2
REMARK    2  A    between atoms: C_5  and  C_32
REMARK    3  A    between atoms: C_6  and  N_8
REMARK    4  A    between atoms: C_9  and  C_23
REMARK    5  A    between atoms: C_13  and  S_14
REMARK    6  A    between atoms: S_14  and  C_15
REMARK    7  A    between atoms: C_15  and  C_16
REMARK    8  A    between atoms: C_21  and  C_22
REMARK    9  A    between atoms: C_23  and  C_24
REMARK                            x       y       z     vdW  Elec       q    Type
REMARK                         _______ _______ _______ _____ _____    ______ ____
ROOT
ATOM      1  N   UNL     1       0.051  -2.797   2.391  0.00  0.00    -0.258 N 
ATOM      2  C   UNL     1       1.241  -3.223   3.147  0.00  0.00    +0.187 C 
ATOM      3  N   UNL     1       0.684  -3.920   4.319  0.00  0.00    -0.246 N 
ATOM      4  N   UNL     1      -0.708  -3.862   4.183  0.00  0.00    -0.162 NA
ATOM      5  C   UNL     1      -1.052  -3.231   3.111  0.00  0.00    +0.180 C 
ATOM      6  H   UNL     1       1.182  -4.336   5.041  0.00  0.00    +0.170 HD
ENDROOT
BRANCH   1  12
ATOM      7  C   UNL     1      -0.018   1.503   0.010  0.00  0.00    +0.044 C 
ATOM      8  C   UNL     1       0.002  -0.004   0.002  0.00  0.00    -0.049 A 
ATOM      9  C   UNL     1       0.006  -0.688  -1.200  0.00  0.00    +0.004 A 
ATOM     10  C   UNL     1       0.025  -2.071  -1.212  0.00  0.00    +0.005 A 
ATOM     11  C   UNL     1       0.040  -2.773  -0.023  0.00  0.00    -0.029 A 
ATOM     12  C   UNL     1       0.036  -2.089   1.186  0.00  0.00    +0.041 A 
ATOM     13  C   UNL     1       0.023  -0.700   1.194  0.00  0.00    +0.027 A 
ATOM     14  C   UNL     1       0.059  -4.280  -0.037  0.00  0.00    +0.045 C 
ENDBRANCH   1  12
BRANCH   5  15
ATOM     15  S   UNL     1      -2.722  -2.958   2.620  0.00  0.00    -0.084 S 
BRANCH  15  16
ATOM     16  C   UNL     1      -3.700  -3.739   3.933  0.00  0.00    +0.112 C 
BRANCH  16  17
ATOM     17  C   UNL     1      -5.167  -3.576   3.632  0.00  0.00    -0.034 A 
ATOM     18  C   UNL     1      -5.849  -2.466   4.096  0.00  0.00    +0.005 A 
ATOM     19  C   UNL     1      -7.195  -2.316   3.820  0.00  0.00    +0.000 A 
ATOM     20  C   UNL     1      -7.859  -3.276   3.079  0.00  0.00    +0.000 A 
ATOM     21  C   UNL     1      -7.178  -4.385   2.615  0.00  0.00    +0.003 A 
ATOM     22  C   UNL     1      -5.830  -4.533   2.887  0.00  0.00    -0.046 A 
ATOM     23  C   UNL     1      -5.086  -5.739   2.377  0.00  0.00    +0.044 C 
ENDBRANCH  16  17
ENDBRANCH  15  16
ENDBRANCH   5  15
BRANCH   2  24
ATOM     24  C   UNL     1       2.098  -4.174   2.310  0.00  0.00    +0.097 C 
BRANCH  24  25
ATOM     25  C   UNL     1       3.307  -4.593   3.106  0.00  0.00    +0.029 A 
ATOM     26  N   UNL     1       4.425  -3.805   3.124  0.00  0.00    -0.311 N 
ATOM     27  C   UNL     1       5.509  -4.171   3.832  0.00  0.00    +0.327 A 
ATOM     28  O   UNL     1       6.493  -3.455   3.834  0.00  0.00    -0.247 OA
ATOM     29  N   UNL     1       5.521  -5.317   4.538  0.00  0.00    -0.275 N 
ATOM     30  C   UNL     1       4.439  -6.121   4.545  0.00  0.00    +0.254 A 
ATOM     31  O   UNL     1       4.448  -7.158   5.184  0.00  0.00    -0.268 OA
ATOM     32  C   UNL     1       3.289  -5.746   3.809  0.00  0.00    +0.091 A 
ATOM     33  H   UNL     1       6.311  -5.565   5.043  0.00  0.00    +0.173 HD
ATOM     34  H   UNL     1       4.437  -2.976   2.622  0.00  0.00    +0.170 HD
ENDBRANCH  24  25
ENDBRANCH   2  24
TORSDOF 6
