REMARK  Name = ZINC06502942
REMARK  4 active torsions:
REMARK  status: ('A' for Active; 'I' for Inactive)
REMARK    1  A    between atoms: C_6  and  C_7
REMARK    2  A    between atoms: C_6  and  N_50
REMARK    3  A    between atoms: C_18  and  S_20
REMARK    4  A    between atoms: S_20  and  C_21
REMARK                            x       y       z     vdW  Elec       q    Type
REMARK                         _______ _______ _______ _____ _____    ______ ____
ROOT
ATOM      1  C   UNL     1       4.435  -0.185   1.993  0.00  0.00    +0.115 A 
ATOM      2  N   UNL     1       4.910   0.930   2.515  0.00  0.00    -0.227 NA
ATOM      3  C   UNL     1       6.170   1.270   2.324  0.00  0.00    +0.113 A 
ATOM      4  C   UNL     1       7.043   0.465   1.565  0.00  0.00    +0.043 A 
ATOM      5  C   UNL     1       8.414   0.961   1.432  0.00  0.00    -0.025 A 
ATOM      6  C   UNL     1       8.704   2.127   2.043  0.00  0.00    -0.004 A 
ATOM      7  S   UNL     1       7.193   2.631   2.821  0.00  0.00    -0.073 S 
ATOM      8  C   UNL     1      10.022   2.841   2.058  0.00  0.00    +0.043 C 
ATOM      9  C   UNL     1      11.107   1.865   1.581  0.00  0.00    +0.005 C 
ATOM     10  C   UNL     1      10.619   1.171   0.306  0.00  0.00    +0.005 C 
ATOM     11  C   UNL     1       9.481   0.207   0.643  0.00  0.00    +0.037 C 
ATOM     12  C   UNL     1       6.471  -0.723   1.031  0.00  0.00    +0.116 A 
ATOM     13  N   UNL     1       5.197  -0.990   1.276  0.00  0.00    -0.227 NA
ENDROOT
BRANCH   1  14
ATOM     14  C   UNL     1       2.991  -0.550   2.226  0.00  0.00    -0.001 C 
BRANCH  14  20
ATOM     15  C   UNL     1      -0.019   1.527   0.010  0.00  0.00    -0.004 C 
ATOM     16  C   UNL     1       1.421   2.049  -0.001  0.00  0.00    -0.019 C 
ATOM     17  C   UNL     1       2.171   1.488   1.210  0.00  0.00    -0.078 C 
ATOM     18  C   UNL     1       0.793  -0.505   1.212  0.00  0.00    -0.078 C 
ATOM     19  C   UNL     1       0.002  -0.004   0.002  0.00  0.00    -0.019 C 
ATOM     20  N   UNL     1       2.176   0.012   1.129  0.00  0.00    +0.384 N 
ATOM     21  H   UNL     1       2.584  -0.271   0.231  0.00  0.00    -0.081 HD
ENDBRANCH  14  20
ENDBRANCH   1  14
BRANCH  12  22
ATOM     22  S   UNL     1       7.444  -1.827   0.062  0.00  0.00    -0.028 S 
BRANCH  22  23
ATOM     23  C   UNL     1       6.239  -3.060  -0.301  0.00  0.00    +0.216 A 
ATOM     24  N   UNL     1       6.448  -4.159  -1.034  0.00  0.00    -0.188 NA
ATOM     25  C   UNL     1       5.338  -4.863  -1.102  0.00  0.00    +0.209 A 
ATOM     26  N   UNL     1       4.385  -4.207  -0.409  0.00  0.00    -0.246 N 
ATOM     27  H   UNL     1       3.463  -4.482  -0.286  0.00  0.00    +0.192 HD
ATOM     28  N   UNL     1       4.990  -3.046   0.099  0.00  0.00    -0.144 NA
ATOM     29  N   UNL     1       5.176  -6.063  -1.772  0.00  0.00    -0.328 N 
ATOM     30  H   UNL     1       4.314  -6.507  -1.768  0.00  0.00    +0.145 HD
ATOM     31  H   UNL     1       5.925  -6.459  -2.244  0.00  0.00    +0.145 HD
ENDBRANCH  22  23
ENDBRANCH  12  22
TORSDOF 4
