REMARK  Name = ZINC66160717
REMARK  3 active torsions:
REMARK  status: ('A' for Active; 'I' for Inactive)
REMARK    1  A    between atoms: C_2  and  C_23
REMARK    2  A    between atoms: C_8  and  N_9
REMARK    3  A    between atoms: C_15  and  N_18
REMARK                            x       y       z     vdW  Elec       q    Type
REMARK                         _______ _______ _______ _____ _____    ______ ____
ROOT
ATOM      1  N   UNL     1      -1.198  -0.730   0.010  0.00  0.00    -0.265 N 
ATOM      2  C   UNL     1      -1.173  -2.073  -0.099  0.00  0.00    +0.307 C 
ATOM      3  O   UNL     1      -0.110  -2.663  -0.113  0.00  0.00    -0.252 OA
ATOM      4  N   UNL     1      -2.327  -2.763  -0.193  0.00  0.00    -0.287 N 
ATOM      5  C   UNL     1      -3.676  -2.179  -0.195  0.00  0.00    +0.108 C 
ATOM      6  C   UNL     1      -4.679  -3.342  -0.348  0.00  0.00    +0.005 C 
ATOM      7  C   UNL     1      -3.818  -4.460  -0.992  0.00  0.00    -0.049 C 
ATOM      8  C   UNL     1      -2.446  -4.227  -0.317  0.00  0.00    +0.094 C 
ATOM      9  H   UNL     1      -2.045  -0.265   0.090  0.00  0.00    +0.157 HD
ENDROOT
BRANCH   1  17
ATOM     10  C   UNL     1       0.236   0.944  -0.950  0.00  0.00    +0.042 A 
ATOM     11  C   UNL     1       1.444   1.655  -0.929  0.00  0.00    +0.073 A 
ATOM     12  C   UNL     1       2.363   1.401   0.031  0.00  0.00    +0.098 A 
ATOM     13  N   UNL     1       2.132   0.459   0.984  0.00  0.00    -0.327 N 
ATOM     14  H   UNL     1       2.803   0.291   1.664  0.00  0.00    +0.168 HD
ATOM     15  C   UNL     1       0.983  -0.243   0.995  0.00  0.00    +0.270 A 
ATOM     16  O   UNL     1       0.790  -1.085   1.857  0.00  0.00    -0.266 OA
ATOM     17  C   UNL     1       0.002  -0.004   0.008  0.00  0.00    +0.100 A 
BRANCH  11  18
ATOM     18  C   UNL     1       1.720   2.703  -1.976  0.00  0.00    +0.419 C 
ATOM     19  F   UNL     1       2.978   3.271  -1.748  0.00  0.00    -0.166 F 
ATOM     20  F   UNL     1       1.698   2.112  -3.244  0.00  0.00    -0.166 F 
ATOM     21  F   UNL     1       0.740   3.699  -1.909  0.00  0.00    -0.166 F 
ENDBRANCH  11  18
ENDBRANCH   1  17
BRANCH   7  22
ATOM     22  N   UNL     1      -4.350  -5.790  -0.664  0.00  0.00    +0.383 N 
ATOM     23  C   UNL     1      -5.708  -5.955  -1.243  0.00  0.00    -0.078 C 
ATOM     24  C   UNL     1      -5.878  -7.493  -1.315  0.00  0.00    -0.020 C 
ATOM     25  C   UNL     1      -4.464  -7.979  -1.708  0.00  0.00    -0.020 C 
ATOM     26  C   UNL     1      -3.516  -6.841  -1.286  0.00  0.00    -0.078 C 
ATOM     27  H   UNL     1      -4.380  -5.916   0.337  0.00  0.00    -0.081 HD
ENDBRANCH   7  22
TORSDOF 3
