REMARK  Name = ZINC30743117
REMARK  9 active torsions:
REMARK  status: ('A' for Active; 'I' for Inactive)
REMARK    1  A    between atoms: C_1  and  C_2
REMARK    2  A    between atoms: C_5  and  S_8
REMARK    3  A    between atoms: S_8  and  N_11
REMARK    4  A    between atoms: N_14  and  C_17
REMARK    5  A    between atoms: C_17  and  C_18
REMARK    6  A    between atoms: N_20  and  N_21
REMARK    7  A    between atoms: C_22  and  C_23
REMARK    8  A    between atoms: C_26  and  O_30
REMARK    9  A    between atoms: C_27  and  O_29
REMARK                            x       y       z     vdW  Elec       q    Type
REMARK                         _______ _______ _______ _____ _____    ______ ____
ROOT
ATOM      1  N   UNL     1       0.309  -7.240   0.160  0.00  0.00    -0.180 NA
ATOM      2  C   UNL     1      -0.574  -6.662   1.184  0.00  0.00    +0.091 C 
ATOM      3  C   UNL     1      -0.926  -5.229   0.771  0.00  0.00    -0.061 C 
ATOM      4  N   UNL     1       0.311  -4.477   0.520  0.00  0.00    +0.387 N 
ATOM      5  C   UNL     1       1.065  -5.051  -0.601  0.00  0.00    -0.061 C 
ATOM      6  C   UNL     1       1.499  -6.477  -0.244  0.00  0.00    +0.091 C 
ATOM      7  H   UNL     1       0.938  -4.555   1.421  0.00  0.00    -0.081 HD
ENDROOT
BRANCH   1   8
ATOM      8  S   UNL     1      -0.029  -8.711  -0.521  0.00  0.00    +0.061 S 
ATOM      9  O   UNL     1       1.204  -9.230  -0.999  0.00  0.00    -0.153 OA
ATOM     10  O   UNL     1      -0.841  -9.413   0.410  0.00  0.00    -0.153 OA
BRANCH   8  15
ATOM     11  C   UNL     1      -3.464  -7.684  -5.375  0.00  0.00    +0.044 C 
ATOM     12  C   UNL     1      -2.606  -7.941  -4.162  0.00  0.00    -0.050 A 
ATOM     13  C   UNL     1      -1.229  -7.970  -4.284  0.00  0.00    +0.005 A 
ATOM     14  C   UNL     1      -0.442  -8.206  -3.172  0.00  0.00    +0.029 A 
ATOM     15  C   UNL     1      -1.032  -8.411  -1.939  0.00  0.00    +0.105 A 
ATOM     16  C   UNL     1      -2.409  -8.387  -1.818  0.00  0.00    +0.029 A 
ATOM     17  C   UNL     1      -3.196  -8.147  -2.929  0.00  0.00    +0.005 A 
ENDBRANCH   8  15
ENDBRANCH   1   8
BRANCH   4  18
ATOM     18  C   UNL     1       0.024  -3.055   0.289  0.00  0.00    +0.020 C 
BRANCH  18  19
ATOM     19  C   UNL     1       1.315  -2.277   0.281  0.00  0.00    +0.216 C 
ATOM     20  O   UNL     1       2.370  -2.852   0.451  0.00  0.00    -0.276 OA
ATOM     21  N   UNL     1       1.298  -0.944   0.085  0.00  0.00    -0.209 N 
ATOM     22  H   UNL     1       0.341  -0.423  -0.069  0.00  0.00    +0.177 HD
BRANCH  21  23
ATOM     23  N   UNL     1       2.498  -0.221   0.077  0.00  0.00    -0.188 NA
ATOM     24  C   UNL     1       2.475   1.075   0.015  0.00  0.00    +0.138 C 
BRANCH  24  25
ATOM     25  C   UNL     1       1.300   1.815   0.510  0.00  0.00    -0.002 A 
ATOM     26  C   UNL     1       1.126   3.160   0.173  0.00  0.00    +0.013 A 
ATOM     27  C   UNL     1       0.029   3.852   0.641  0.00  0.00    +0.050 A 
ATOM     28  C   UNL     1      -0.910   3.213   1.437  0.00  0.00    +0.158 A 
ATOM     29  C   UNL     1      -0.744   1.873   1.778  0.00  0.00    +0.159 A 
ATOM     30  C   UNL     1       0.356   1.174   1.317  0.00  0.00    +0.058 A 
BRANCH  29  31
ATOM     31  O   UNL     1      -1.664   1.251   2.563  0.00  0.00    -0.503 OA
ATOM     32  H   UNL     1      -1.533   0.193   2.831  0.00  0.00    +0.292 HD
ENDBRANCH  29  31
BRANCH  28  33
ATOM     33  O   UNL     1      -1.993   3.899   1.891  0.00  0.00    -0.503 OA
ATOM     34  H   UNL     1      -2.738   3.394   2.523  0.00  0.00    +0.292 HD
ENDBRANCH  28  33
ENDBRANCH  24  25
ENDBRANCH  21  23
ENDBRANCH  18  19
ENDBRANCH   4  18
TORSDOF 8
