REMARK  Name = ZINC10699595
REMARK  8 active torsions:
REMARK  status: ('A' for Active; 'I' for Inactive)
REMARK    1  A    between atoms: C_1  and  C_2
REMARK    2  A    between atoms: C_4  and  C_25
REMARK    3  A    between atoms: C_5  and  C_9
REMARK    4  A    between atoms: C_6  and  C_8
REMARK    5  A    between atoms: C_9  and  C_10
REMARK    6  A    between atoms: N_12  and  C_13
REMARK    7  A    between atoms: C_14  and  C_22
REMARK    8  A    between atoms: C_21  and  N_51
REMARK                            x       y       z     vdW  Elec       q    Type
REMARK                         _______ _______ _______ _____ _____    ______ ____
ROOT
ATOM      1  C   UNL     1      -0.467  -2.628   0.130  0.00  0.00    +0.084 A 
ATOM      2  C   UNL     1       0.812  -2.218  -0.224  0.00  0.00    +0.068 A 
ATOM      3  C   UNL     1       1.062  -0.791  -0.293  0.00  0.00    -0.027 A 
ATOM      4  C   UNL     1       0.002  -0.004   0.002  0.00  0.00    -0.021 A 
ATOM      5  S   UNL     1      -1.311  -1.132   0.364  0.00  0.00    -0.079 S 
ATOM      6  C   UNL     1      -0.018   1.492   0.010  0.00  0.00    -0.036 C 
ATOM      7  C   UNL     1       2.151   1.297  -1.051  0.00  0.00    -0.074 C 
ATOM      8  C   UNL     1       2.400  -0.164  -0.665  0.00  0.00    +0.018 C 
ATOM      9  C   UNL     1       1.430   3.431  -0.162  0.00  0.00    -0.096 C 
ATOM     10  N   UNL     1       1.388   1.965   0.023  0.00  0.00    +0.381 N 
ATOM     11  H   UNL     1       1.811   1.731   0.929  0.00  0.00    -0.082 HD
ENDROOT
BRANCH   2  12
ATOM     12  C   UNL     1       1.869  -3.191  -0.517  0.00  0.00    +0.244 C 
ATOM     13  O   UNL     1       2.589  -3.595   0.378  0.00  0.00    -0.270 OA
ATOM     14  N   UNL     1       2.044  -3.638  -1.776  0.00  0.00    -0.325 N 
ATOM     15  H   UNL     1       1.471  -3.316  -2.489  0.00  0.00    +0.145 HD
ATOM     16  H   UNL     1       2.744  -4.282  -1.969  0.00  0.00    +0.145 HD
ENDBRANCH   2  12
BRANCH   1  19
ATOM     17  C   UNL     1      -2.235  -4.125   0.619  0.00  0.00    +0.222 C 
ATOM     18  O   UNL     1      -2.967  -3.180   0.821  0.00  0.00    -0.275 OA
ATOM     19  N   UNL     1      -0.951  -3.920   0.264  0.00  0.00    -0.279 N 
ATOM     20  H   UNL     1      -0.366  -4.677   0.102  0.00  0.00    +0.155 HD
BRANCH  17  21
ATOM     21  C   UNL     1      -2.761  -5.530   0.764  0.00  0.00    +0.131 C 
BRANCH  21  26
ATOM     22  C   UNL     1      -8.328  -5.352   2.304  0.00  0.00    +0.044 C 
ATOM     23  C   UNL     1      -6.877  -5.399   1.903  0.00  0.00    -0.050 A 
ATOM     24  C   UNL     1      -6.530  -5.419   0.565  0.00  0.00    +0.007 A 
ATOM     25  C   UNL     1      -5.198  -5.462   0.196  0.00  0.00    -0.046 A 
ATOM     26  C   UNL     1      -4.213  -5.484   1.166  0.00  0.00    -0.033 A 
ATOM     27  C   UNL     1      -4.560  -5.468   2.504  0.00  0.00    -0.046 A 
ATOM     28  C   UNL     1      -5.892  -5.421   2.872  0.00  0.00    +0.007 A 
ATOM     29  C   UNL     1      -3.486  -5.497   3.561  0.00  0.00    +0.044 C 
ATOM     30  C   UNL     1      -4.820  -5.485  -1.262  0.00  0.00    +0.044 C 
ENDBRANCH  21  26
ENDBRANCH  17  21
ENDBRANCH   1  19
TORSDOF 4
