REMARK  Name = ZINC53200412
REMARK  5 active torsions:
REMARK  status: ('A' for Active; 'I' for Inactive)
REMARK    1  A    between atoms: C_4  and  N_11
REMARK    2  A    between atoms: C_5  and  C_7
REMARK    3  A    between atoms: C_7  and  C_8
REMARK    4  A    between atoms: N_11  and  S_12
REMARK    5  A    between atoms: S_12  and  N_15
REMARK                            x       y       z     vdW  Elec       q    Type
REMARK                         _______ _______ _______ _____ _____    ______ ____
ROOT
ATOM      1  N   UNL     1       3.620  -0.649  -0.036  0.00  0.00    -0.206 N 
ATOM      2  H   UNL     1       3.710  -1.452  -0.573  0.00  0.00    +0.175 HD
ENDROOT
BRANCH   1   6
ATOM      3  C   UNL     1      -0.126   1.093   0.488  0.00  0.00    +0.000 A 
ATOM      4  C   UNL     1       0.999   1.892   0.384  0.00  0.00    +0.002 A 
ATOM      5  C   UNL     1       2.242   1.317   0.211  0.00  0.00    +0.025 A 
ATOM      6  C   UNL     1       2.363  -0.065   0.140  0.00  0.00    +0.053 A 
ATOM      7  C   UNL     1       1.232  -0.864   0.244  0.00  0.00    -0.014 A 
ATOM      8  C   UNL     1      -0.009  -0.283   0.418  0.00  0.00    +0.006 A 
BRANCH   7   9
ATOM      9  C   UNL     1       1.359  -2.364   0.168  0.00  0.00    +0.162 C 
BRANCH   9  10
ATOM     10  C   UNL     1       1.694  -2.910   1.532  0.00  0.00    +0.360 C 
ATOM     11  O   UNL     1       1.818  -2.152   2.478  0.00  0.00    -0.246 OA
ATOM     12  O   UNL     1       1.840  -4.110   1.689  0.00  0.00    -0.246 OA
ENDBRANCH   9  10
ENDBRANCH   7   9
ENDBRANCH   1   6
BRANCH   1  13
ATOM     13  S   UNL     1       4.955   0.028   0.671  0.00  0.00    +0.112 S 
ATOM     14  O   UNL     1       6.041  -0.850   0.412  0.00  0.00    -0.138 OA
ATOM     15  O   UNL     1       4.971   1.395   0.282  0.00  0.00    -0.138 OA
BRANCH  13  16
ATOM     16  N   UNL     1       4.707   0.005   2.308  0.00  0.00    -0.164 NA
ATOM     17  C   UNL     1       4.052   1.136   2.926  0.00  0.00    +0.111 C 
ATOM     18  C   UNL     1       5.111   2.188   3.338  0.00  0.00    +0.017 C 
ATOM     19  C   UNL     1       5.896   1.702   4.483  0.00  0.00    +0.001 C 
ATOM     20  C   UNL     1       6.707   0.441   4.199  0.00  0.00    +0.001 C 
ATOM     21  C   UNL     1       5.832  -0.772   4.404  0.00  0.00    +0.017 C 
ATOM     22  C   UNL     1       5.157  -1.173   3.075  0.00  0.00    +0.111 C 
ENDBRANCH  13  16
ENDBRANCH   1  13
TORSDOF 5
