REMARK  Name = ZINC16319423
REMARK  8 active torsions:
REMARK  status: ('A' for Active; 'I' for Inactive)
REMARK    1  A    between atoms: C_1  and  C_2
REMARK    2  A    between atoms: C_5  and  C_8
REMARK    3  A    between atoms: N_9  and  C_10
REMARK    4  A    between atoms: N_16  and  C_17
REMARK    5  A    between atoms: C_17  and  N_19
REMARK    6  A    between atoms: N_19  and  C_20
REMARK    7  A    between atoms: C_24  and  O_26
REMARK    8  A    between atoms: O_26  and  C_27
REMARK                            x       y       z     vdW  Elec       q    Type
REMARK                         _______ _______ _______ _____ _____    ______ ____
ROOT
ATOM      1  C   UNL     1      -0.437  -4.627   0.514  0.00  0.00    +0.101 C 
ATOM      2  N   UNL     1       0.597  -5.267   1.143  0.00  0.00    -0.302 N 
ATOM      3  N   UNL     1      -0.653  -4.828  -0.773  0.00  0.00    -0.284 N 
ATOM      4  H   UNL     1      -1.335  -4.317  -1.236  0.00  0.00    +0.155 HD
ATOM      5  H   UNL     1       0.948  -6.095   0.779  0.00  0.00    +0.153 HD
ENDROOT
BRANCH   1  10
ATOM      6  C   UNL     1      -3.845  -1.066   3.480  0.00  0.00    +0.044 C 
ATOM      7  C   UNL     1      -2.952  -1.999   2.703  0.00  0.00    -0.050 A 
ATOM      8  C   UNL     1      -2.634  -1.711   1.388  0.00  0.00    +0.004 A 
ATOM      9  C   UNL     1      -1.817  -2.560   0.671  0.00  0.00    +0.011 A 
ATOM     10  C   UNL     1      -1.311  -3.713   1.275  0.00  0.00    +0.011 A 
ATOM     11  C   UNL     1      -1.637  -3.998   2.603  0.00  0.00    +0.011 A 
ATOM     12  C   UNL     1      -2.451  -3.137   3.310  0.00  0.00    +0.004 A 
ENDBRANCH   1  10
BRANCH   2  13
ATOM     13  C   UNL     1       1.147  -4.728   2.309  0.00  0.00    +0.032 A 
ATOM     14  C   UNL     1       1.235  -3.350   2.465  0.00  0.00    +0.023 A 
ATOM     15  C   UNL     1       1.779  -2.821   3.619  0.00  0.00    +0.002 A 
ATOM     16  C   UNL     1       2.234  -3.660   4.619  0.00  0.00    +0.000 A 
ATOM     17  C   UNL     1       2.147  -5.032   4.467  0.00  0.00    +0.002 A 
ATOM     18  C   UNL     1       1.601  -5.568   3.318  0.00  0.00    +0.023 A 
ENDBRANCH   2  13
BRANCH   3  19
ATOM     19  C   UNL     1       0.073  -5.738  -1.441  0.00  0.00    +0.140 C 
ATOM     20  S   UNL     1       1.297  -5.229  -2.525  0.00  0.00    -0.018 S 
BRANCH  19  21
ATOM     21  N   UNL     1      -0.163  -7.053  -1.260  0.00  0.00    -0.297 N 
ATOM     22  H   UNL     1       0.416  -7.574  -0.681  0.00  0.00    +0.154 HD
BRANCH  21  23
ATOM     23  C   UNL     1      -1.242  -7.665  -1.904  0.00  0.00    +0.036 A 
ATOM     24  C   UNL     1      -1.999  -6.951  -2.824  0.00  0.00    +0.023 A 
ATOM     25  C   UNL     1      -3.065  -7.556  -3.461  0.00  0.00    +0.005 A 
ATOM     26  C   UNL     1      -3.381  -8.873  -3.184  0.00  0.00    +0.046 A 
ATOM     27  C   UNL     1      -2.628  -9.592  -2.267  0.00  0.00    +0.122 A 
ATOM     28  C   UNL     1      -1.554  -8.989  -1.629  0.00  0.00    +0.069 A 
BRANCH  27  29
ATOM     29  O   UNL     1      -2.940 -10.886  -1.996  0.00  0.00    -0.495 OA
ATOM     30  C   UNL     1      -4.056 -11.444  -2.693  0.00  0.00    +0.277 C 
ENDBRANCH  27  29
ENDBRANCH  21  23
ENDBRANCH  19  21
ENDBRANCH   3  19
TORSDOF 6
