REMARK  Name = ZINC00571512
REMARK  8 active torsions:
REMARK  status: ('A' for Active; 'I' for Inactive)
REMARK    1  A    between atoms: C_1  and  C_2
REMARK    2  A    between atoms: N_10  and  C_11
REMARK    3  A    between atoms: C_11  and  C_12
REMARK    4  A    between atoms: C_12  and  C_14
REMARK    5  A    between atoms: C_12  and  O_21
REMARK    6  A    between atoms: C_14  and  N_50
REMARK    7  A    between atoms: C_15  and  C_16
REMARK    8  A    between atoms: C_15  and  N_50
REMARK                            x       y       z     vdW  Elec       q    Type
REMARK                         _______ _______ _______ _____ _____    ______ ____
ROOT
ATOM      1  C   UNL     1       1.030  -4.163  -0.026  0.00  0.00    +0.044 C 
ATOM      2  C   UNL     1       0.679  -2.697  -0.017  0.00  0.00    -0.050 A 
ATOM      3  C   UNL     1      -0.653  -2.308  -0.005  0.00  0.00    +0.005 A 
ATOM      4  C   UNL     1      -0.995  -0.974   0.005  0.00  0.00    +0.026 A 
ATOM      5  C   UNL     1       0.002  -0.004   0.002  0.00  0.00    +0.050 A 
ATOM      6  C   UNL     1       1.353  -0.403  -0.011  0.00  0.00    +0.004 A 
ATOM      7  C   UNL     1       1.675  -1.762  -0.020  0.00  0.00    +0.013 A 
ATOM      8  C   UNL     1       2.132   0.830  -0.013  0.00  0.00    -0.019 A 
ATOM      9  C   UNL     1       1.261   1.857   0.000  0.00  0.00    +0.023 A 
ATOM     10  N   UNL     1      -0.017   1.374   0.010  0.00  0.00    -0.341 N 
ATOM     11  C   UNL     1       1.679   3.310   0.004  0.00  0.00    +0.054 C 
ATOM     12  C   UNL     1       3.154   3.391   0.412  0.00  0.00    +0.006 C 
ATOM     13  C   UNL     1       3.974   2.416  -0.438  0.00  0.00    +0.005 C 
ATOM     14  C   UNL     1       3.632   0.978  -0.030  0.00  0.00    +0.037 C 
ENDROOT
BRANCH  10  15
ATOM     15  C   UNL     1      -1.228   2.198   0.020  0.00  0.00    +0.151 C 
BRANCH  15  16
ATOM     16  C   UNL     1      -1.642   2.478   1.466  0.00  0.00    +0.117 C 
BRANCH  16  17
ATOM     17  O   UNL     1      -2.013   1.253   2.101  0.00  0.00    -0.392 OA
ATOM     18  H   UNL     1      -2.753   0.798   1.675  0.00  0.00    +0.210 HD
ENDBRANCH  16  17
BRANCH  16  19
ATOM     19  C   UNL     1      -2.831   3.440   1.479  0.00  0.00    -0.049 C 
BRANCH  19  20
ATOM     20  N   UNL     1      -3.147   3.799   2.874  0.00  0.00    +0.385 N 
ATOM     21  H   UNL     1      -2.330   4.250   3.302  0.00  0.00    -0.085 HD
ATOM     22  H   UNL     1      -3.382   2.948   3.398  0.00  0.00    -0.085 HD
BRANCH  20  23
ATOM     23  C   UNL     1      -4.293   4.728   2.917  0.00  0.00    -0.007 C 
BRANCH  23  24
ATOM     24  C   UNL     1      -4.593   5.076   4.353  0.00  0.00    +0.088 A 
ATOM     25  C   UNL     1      -4.064   6.105   5.039  0.00  0.00    +0.042 A 
ATOM     26  C   UNL     1      -4.618   6.058   6.339  0.00  0.00    +0.041 A 
ATOM     27  C   UNL     1      -5.452   5.003   6.369  0.00  0.00    +0.195 A 
ATOM     28  O   UNL     1      -5.437   4.415   5.161  0.00  0.00    -0.470 OA
ENDBRANCH  23  24
ENDBRANCH  20  23
ENDBRANCH  19  20
ENDBRANCH  16  19
ENDBRANCH  15  16
ENDBRANCH  10  15
TORSDOF 7
