REMARK  Name = ZINC60356763
REMARK  9 active torsions:
REMARK  status: ('A' for Active; 'I' for Inactive)
REMARK    1  A    between atoms: C_3  and  C_24
REMARK    2  A    between atoms: C_5  and  N_7
REMARK    3  A    between atoms: C_8  and  C_10
REMARK    4  A    between atoms: C_10  and  N_11
REMARK    5  A    between atoms: N_11  and  C_12
REMARK    6  A    between atoms: N_11  and  C_20
REMARK    7  A    between atoms: C_12  and  C_13
REMARK    8  A    between atoms: C_13  and  C_14
REMARK    9  A    between atoms: C_20  and  C_21
REMARK                            x       y       z     vdW  Elec       q    Type
REMARK                         _______ _______ _______ _____ _____    ______ ____
ROOT
ATOM      1  N   UNL     1       2.772  -4.602  -1.778  0.00  0.00    -0.287 N 
ATOM      2  C   UNL     1       1.564  -5.029  -1.360  0.00  0.00    +0.201 C 
ATOM      3  O   UNL     1       0.850  -5.660  -2.111  0.00  0.00    -0.278 OA
ATOM      4  H   UNL     1       3.371  -4.158  -1.157  0.00  0.00    +0.155 HD
ENDROOT
BRANCH   1   9
ATOM      5  C   UNL     1       2.594  -4.945  -5.439  0.00  0.00    +0.003 A 
ATOM      6  C   UNL     1       3.917  -5.186  -5.752  0.00  0.00    +0.013 A 
ATOM      7  C   UNL     1       4.876  -5.234  -4.739  0.00  0.00    +0.039 A 
ATOM      8  C   UNL     1       4.492  -5.039  -3.412  0.00  0.00    +0.036 A 
ATOM      9  C   UNL     1       3.162  -4.798  -3.108  0.00  0.00    +0.034 A 
ATOM     10  C   UNL     1       2.214  -4.752  -4.124  0.00  0.00    +0.023 A 
BRANCH   7  11
ATOM     11  C   UNL     1       6.293  -5.492  -5.071  0.00  0.00    +0.247 C 
ATOM     12  O   UNL     1       6.588  -6.425  -5.791  0.00  0.00    -0.270 OA
ATOM     13  N   UNL     1       7.258  -4.692  -4.575  0.00  0.00    -0.296 N 
ATOM     14  C   UNL     1       6.907  -3.648  -3.611  0.00  0.00    +0.119 C 
ATOM     15  C   UNL     1       7.547  -3.968  -2.255  0.00  0.00    +0.088 C 
ATOM     16  S   UNL     1       9.344  -4.119  -2.482  0.00  0.00    -0.158 S 
ATOM     17  C   UNL     1       9.491  -5.344  -3.817  0.00  0.00    +0.088 C 
ATOM     18  C   UNL     1       8.645  -4.881  -5.002  0.00  0.00    +0.119 C 
ENDBRANCH   7  11
ENDBRANCH   1   9
BRANCH   2  19
ATOM     19  C   UNL     1       1.099  -4.722   0.041  0.00  0.00    +0.020 C 
BRANCH  19  20
ATOM     20  N   UNL     1      -0.240  -5.288   0.247  0.00  0.00    +0.391 N 
ATOM     21  H   UNL     1      -0.861  -4.957  -0.476  0.00  0.00    -0.080 HD
BRANCH  20  22
ATOM     22  C   UNL     1      -0.165  -6.754   0.195  0.00  0.00    -0.077 C 
BRANCH  22  23
ATOM     23  C   UNL     1      -1.576  -7.340   0.286  0.00  0.00    -0.015 C 
BRANCH  23  24
ATOM     24  C   UNL     1      -1.498  -8.868   0.232  0.00  0.00    -0.013 C 
ATOM     25  C   UNL     1      -0.966  -9.303  -1.135  0.00  0.00    +0.003 C 
ATOM     26  C   UNL     1      -0.888 -10.830  -1.190  0.00  0.00    +0.000 C 
ATOM     27  C   UNL     1      -2.283 -11.420  -0.974  0.00  0.00    +0.000 C 
ATOM     28  C   UNL     1      -2.815 -10.985   0.393  0.00  0.00    +0.000 C 
ATOM     29  C   UNL     1      -2.893  -9.457   0.447  0.00  0.00    +0.003 C 
ENDBRANCH  23  24
ENDBRANCH  22  23
ENDBRANCH  20  22
BRANCH  20  30
ATOM     30  C   UNL     1      -0.751  -4.870   1.560  0.00  0.00    +0.019 C 
BRANCH  30  31
ATOM     31  C   UNL     1      -0.944  -3.376   1.571  0.00  0.00    +0.194 C 
ATOM     32  O   UNL     1      -0.796  -2.737   0.551  0.00  0.00    -0.278 OA
ATOM     33  N   UNL     1      -1.280  -2.748   2.716  0.00  0.00    -0.331 N 
ATOM     34  H   UNL     1      -1.398  -3.259   3.532  0.00  0.00    +0.145 HD
ATOM     35  H   UNL     1      -1.404  -1.786   2.723  0.00  0.00    +0.145 HD
ENDBRANCH  30  31
ENDBRANCH  20  30
ENDBRANCH  19  20
ENDBRANCH   2  19
TORSDOF 9
