REMARK  Name = ZINC12882498
REMARK  7 active torsions:
REMARK  status: ('A' for Active; 'I' for Inactive)
REMARK    1  A    between atoms: C_1  and  C_2
REMARK    2  A    between atoms: C_17  and  C_19
REMARK    3  A    between atoms: C_19  and  C_20
REMARK    4  A    between atoms: C_23  and  O_26
REMARK    5  A    between atoms: N_29  and  C_32
REMARK    6  A    between atoms: C_32  and  C_33
REMARK    7  A    between atoms: C_33  and  C_34
REMARK                            x       y       z     vdW  Elec       q    Type
REMARK                         _______ _______ _______ _____ _____    ______ ____
ROOT
ATOM      1  C   UNL     1       3.744  -1.822  -6.204  0.00  0.00    +0.044 C 
ATOM      2  C   UNL     1       2.303  -2.178  -5.946  0.00  0.00    -0.049 A 
ATOM      3  C   UNL     1       1.901  -2.574  -4.682  0.00  0.00    +0.008 A 
ATOM      4  C   UNL     1       0.584  -2.898  -4.447  0.00  0.00    -0.026 A 
ATOM      5  C   UNL     1      -0.356  -2.832  -5.471  0.00  0.00    +0.054 A 
ATOM      6  C   UNL     1       0.056  -2.434  -6.741  0.00  0.00    +0.063 A 
ATOM      7  C   UNL     1       1.378  -2.109  -6.972  0.00  0.00    +0.025 A 
ATOM      8 CL   UNL     1      -1.097  -2.344  -8.036  0.00  0.00    -0.082 Cl
ATOM      9  N   UNL     1      -1.616  -3.203  -4.994  0.00  0.00    -0.285 N 
ATOM     10  C   UNL     1      -1.590  -3.523  -3.686  0.00  0.00    +0.211 C 
ATOM     11  O   UNL     1      -2.531  -3.878  -3.008  0.00  0.00    -0.277 OA
ATOM     12  C   UNL     1      -0.167  -3.353  -3.228  0.00  0.00    +0.050 C 
ATOM     13  C   UNL     1       0.401  -4.666  -2.673  0.00  0.00    +0.088 C 
ATOM     14  C   UNL     1       1.324  -4.228  -1.502  0.00  0.00    +0.073 C 
ATOM     15  C   UNL     1       1.218  -2.689  -1.467  0.00  0.00    -0.053 C 
ATOM     16  C   UNL     1       0.653  -4.803  -0.275  0.00  0.00    +0.224 C 
ATOM     17  O   UNL     1       1.054  -4.685   0.863  0.00  0.00    -0.275 OA
ATOM     18  N   UNL     1      -0.462  -5.465  -0.663  0.00  0.00    -0.241 N 
ATOM     19  C   UNL     1      -0.689  -5.454  -1.982  0.00  0.00    +0.225 C 
ATOM     20  O   UNL     1      -1.623  -5.992  -2.536  0.00  0.00    -0.275 OA
ATOM     21  H   UNL     1      -2.416  -3.228  -5.542  0.00  0.00    +0.155 HD
ATOM     22  N   UNL     1      -0.058  -2.406  -2.126  0.00  0.00    +0.394 N 
ATOM     23  H   UNL     1      -0.835  -2.535  -1.467  0.00  0.00    -0.083 HD
ATOM     24  H   UNL     1      -0.068  -1.443  -2.482  0.00  0.00    -0.083 HD
ENDROOT
BRANCH  15  25
ATOM     25  C   UNL     1       1.226  -2.187  -0.022  0.00  0.00    +0.020 C 
BRANCH  25  26
ATOM     26  C   UNL     1       1.208  -0.680  -0.013  0.00  0.00    -0.049 A 
ATOM     27  C   UNL     1       0.002  -0.004   0.002  0.00  0.00    +0.007 A 
ATOM     28  C   UNL     1      -0.017   1.377   0.010  0.00  0.00    +0.045 A 
ATOM     29  C   UNL     1       1.176   2.086   0.002  0.00  0.00    +0.117 A 
ATOM     30  C   UNL     1       2.385   1.405  -0.013  0.00  0.00    +0.045 A 
ATOM     31  C   UNL     1       2.398   0.024  -0.021  0.00  0.00    +0.007 A 
BRANCH  29  32
ATOM     32  O   UNL     1       1.160   3.445   0.009  0.00  0.00    -0.507 OA
ATOM     33  H   UNL     1       1.164   3.834   0.894  0.00  0.00    +0.292 HD
ENDBRANCH  29  32
ENDBRANCH  25  26
ENDBRANCH  15  25
BRANCH  18  34
ATOM     34  C   UNL     1      -1.345  -6.144   0.287  0.00  0.00    +0.121 C 
BRANCH  34  35
ATOM     35  C   UNL     1      -0.878  -7.589   0.475  0.00  0.00    +0.054 C 
BRANCH  35  36
ATOM     36  C   UNL     1      -1.787  -8.287   1.453  0.00  0.00    -0.046 A 
ATOM     37  C   UNL     1      -1.495  -8.267   2.804  0.00  0.00    +0.004 A 
ATOM     38  C   UNL     1      -2.331  -8.905   3.702  0.00  0.00    +0.000 A 
ATOM     39  C   UNL     1      -3.454  -9.570   3.247  0.00  0.00    +0.000 A 
ATOM     40  C   UNL     1      -3.744  -9.595   1.896  0.00  0.00    +0.000 A 
ATOM     41  C   UNL     1      -2.910  -8.954   0.999  0.00  0.00    +0.004 A 
ENDBRANCH  35  36
ENDBRANCH  34  35
ENDBRANCH  18  34
TORSDOF 6
