REMARK  Name = ZINC05949479
REMARK  15 active torsions:
REMARK  status: ('A' for Active; 'I' for Inactive)
REMARK    1  A    between atoms: C_1  and  C_2
REMARK    2  A    between atoms: C_2  and  O_3
REMARK    3  A    between atoms: O_3  and  C_4
REMARK    4  A    between atoms: C_9  and  C_10
REMARK    5  A    between atoms: C_10  and  N_11
REMARK    6  A    between atoms: N_11  and  C_12
REMARK    7  A    between atoms: N_11  and  C_22
REMARK    8  A    between atoms: C_14  and  C_20
REMARK    9  A    between atoms: C_14  and  C_21
REMARK   10  A    between atoms: C_16  and  C_18
REMARK   11  A    between atoms: C_16  and  C_19
REMARK   12  A    between atoms: C_22  and  N_24
REMARK   13  A    between atoms: N_24  and  C_25
REMARK   14  A    between atoms: C_27  and  C_32
REMARK   15  A    between atoms: C_29  and  C_31
REMARK                            x       y       z     vdW  Elec       q    Type
REMARK                         _______ _______ _______ _____ _____    ______ ____
ROOT
ATOM      1  N   UNL     1      -4.774  -0.372  -1.479  0.00  0.00    -0.305 N 
ENDROOT
BRANCH   1   2
ATOM      2  C   UNL     1      -5.473  -1.376  -2.291  0.00  0.00    +0.073 C 
ATOM      3  C   UNL     1      -6.307  -0.667  -3.359  0.00  0.00    +0.009 C 
ATOM      4  C   UNL     1      -7.032  -1.700  -4.221  0.00  0.00    -0.072 C 
ATOM      5  N   UNL     1      -6.117  -2.680  -4.787  0.00  0.00    +0.386 N 
ATOM      6  C   UNL     1      -5.131  -3.276  -3.900  0.00  0.00    -0.072 C 
ATOM      7  C   UNL     1      -4.444  -2.260  -2.995  0.00  0.00    +0.009 C 
ATOM      8  C   UNL     1      -5.737  -4.401  -3.056  0.00  0.00    -0.010 C 
ATOM      9  C   UNL     1      -4.036  -3.917  -4.785  0.00  0.00    -0.010 C 
ATOM     10  C   UNL     1      -7.687  -0.938  -5.397  0.00  0.00    -0.010 C 
ATOM     11  C   UNL     1      -8.158  -2.357  -3.424  0.00  0.00    -0.010 C 
ATOM     12  H   UNL     1      -6.670  -3.431  -5.207  0.00  0.00    -0.084 HD
ATOM     13  H   UNL     1      -5.622  -2.243  -5.569  0.00  0.00    -0.084 HD
ENDBRANCH   1   2
BRANCH   1  14
ATOM     14  C   UNL     1      -3.956   0.521  -2.069  0.00  0.00    +0.138 C 
ATOM     15  S   UNL     1      -3.273   1.795  -1.151  0.00  0.00    -0.018 S 
BRANCH  14  16
ATOM     16  N   UNL     1      -3.674   0.411  -3.383  0.00  0.00    -0.297 N 
ATOM     17  H   UNL     1      -4.117  -0.265  -3.919  0.00  0.00    +0.154 HD
BRANCH  16  18
ATOM     18  C   UNL     1      -2.742   1.272  -3.973  0.00  0.00    +0.033 A 
ATOM     19  C   UNL     1      -1.653   1.726  -3.240  0.00  0.00    +0.026 A 
ATOM     20  C   UNL     1      -0.735   2.576  -3.826  0.00  0.00    -0.048 A 
ATOM     21  C   UNL     1      -0.899   2.975  -5.139  0.00  0.00    +0.006 A 
ATOM     22  C   UNL     1      -1.983   2.525  -5.871  0.00  0.00    -0.048 A 
ATOM     23  C   UNL     1      -2.901   1.670  -5.293  0.00  0.00    +0.026 A 
ATOM     24  C   UNL     1      -2.158   2.962  -7.303  0.00  0.00    +0.044 C 
ATOM     25  C   UNL     1       0.447   3.069  -3.032  0.00  0.00    +0.044 C 
ENDBRANCH  16  18
ENDBRANCH  14  16
ENDBRANCH   1  14
BRANCH   1  26
ATOM     26  C   UNL     1      -4.968  -0.340  -0.027  0.00  0.00    +0.145 C 
BRANCH  26  32
ATOM     27  C   UNL     1      -2.817  -1.174   0.956  0.00  0.00    +0.125 A 
ATOM     28  C   UNL     1      -2.057  -2.171   1.551  0.00  0.00    +0.046 A 
ATOM     29  C   UNL     1      -2.616  -3.410   1.796  0.00  0.00    +0.004 A 
ATOM     30  C   UNL     1      -3.932  -3.657   1.449  0.00  0.00    +0.001 A 
ATOM     31  C   UNL     1      -4.691  -2.665   0.856  0.00  0.00    +0.009 A 
ATOM     32  C   UNL     1      -4.138  -1.423   0.614  0.00  0.00    +0.011 A 
BRANCH  27  33
ATOM     33  O   UNL     1      -2.269   0.046   0.714  0.00  0.00    -0.492 OA
BRANCH  33  35
ATOM     34  C   UNL     1      -0.467   1.655   0.745  0.00  0.00    +0.048 C 
ATOM     35  C   UNL     1      -0.904   0.231   1.093  0.00  0.00    +0.225 C 
ENDBRANCH  33  35
ENDBRANCH  27  33
ENDBRANCH  26  32
ENDBRANCH   1  26
TORSDOF 8
