REMARK  Name = ZINC09543093
REMARK  10 active torsions:
REMARK  status: ('A' for Active; 'I' for Inactive)
REMARK    1  A    between atoms: C_1  and  C_2
REMARK    2  A    between atoms: C_2  and  O_3
REMARK    3  A    between atoms: O_3  and  C_4
REMARK    4  A    between atoms: C_9  and  C_10
REMARK    5  A    between atoms: C_12  and  C_24
REMARK    6  A    between atoms: C_15  and  C_17
REMARK    7  A    between atoms: C_28  and  O_31
REMARK    8  A    between atoms: C_29  and  O_30
REMARK    9  A    between atoms: O_31  and  C_32
REMARK   10  A    between atoms: C_32  and  C_33
REMARK                            x       y       z     vdW  Elec       q    Type
REMARK                         _______ _______ _______ _____ _____    ______ ____
ROOT
ATOM      1  C   UNL     1       2.456   3.933   0.000  0.00  0.00    +0.084 C 
ATOM      2  C   UNL     1       4.734   3.892  -0.791  0.00  0.00    -0.028 C 
ATOM      3  C   UNL     1       4.453   4.930  -1.881  0.00  0.00    +0.044 C 
ATOM      4  C   UNL     1       3.146   5.616  -1.596  0.00  0.00    +0.040 C 
ATOM      5  N   UNL     1       2.282   5.158  -0.769  0.00  0.00    -0.298 NA
ATOM      6  N   UNL     1       3.510   3.093  -0.588  0.00  0.00    +0.401 N 
ATOM      7  H   UNL     1       3.188   2.727  -1.492  0.00  0.00    -0.081 HD
ATOM      8  H   UNL     1       3.715   2.311   0.045  0.00  0.00    -0.081 HD
ENDROOT
BRANCH   4   9
ATOM      9  C   UNL     1       2.844   6.877  -2.302  0.00  0.00    -0.004 A 
ATOM     10  C   UNL     1       3.764   7.411  -3.207  0.00  0.00    +0.011 A 
ATOM     11  C   UNL     1       3.473   8.586  -3.868  0.00  0.00    +0.016 A 
ATOM     12  C   UNL     1       2.278   9.242  -3.627  0.00  0.00    +0.018 A 
ATOM     13  C   UNL     1       1.364   8.720  -2.727  0.00  0.00    +0.016 A 
ATOM     14  C   UNL     1       1.640   7.543  -2.063  0.00  0.00    +0.011 A 
ATOM     15 BR   UNL     1       1.891  10.857  -4.532  0.00  0.00    -0.050 Br
ENDBRANCH   4   9
BRANCH   1  21
ATOM     16  C   UNL     1      -0.050   3.842   0.023  0.00  0.00    +0.124 A 
ATOM     17  C   UNL     1      -1.242   3.131   0.031  0.00  0.00    +0.046 A 
ATOM     18  C   UNL     1      -1.220   1.750   0.017  0.00  0.00    +0.004 A 
ATOM     19  C   UNL     1      -0.013   1.076   0.008  0.00  0.00    +0.000 A 
ATOM     20  C   UNL     1       1.176   1.782   0.000  0.00  0.00    +0.007 A 
ATOM     21  C   UNL     1       1.160   3.164   0.008  0.00  0.00    +0.001 A 
BRANCH  16  22
ATOM     22  O   UNL     1      -0.069   5.201   0.031  0.00  0.00    -0.492 OA
BRANCH  22  24
ATOM     23  C   UNL     1      -1.171   7.351   0.054  0.00  0.00    +0.048 C 
ATOM     24  C   UNL     1      -1.350   5.832   0.047  0.00  0.00    +0.225 C 
ENDBRANCH  22  24
ENDBRANCH  16  22
ENDBRANCH   1  21
BRANCH   2  25
ATOM     25  C   UNL     1       5.859   2.990  -1.226  0.00  0.00    -0.016 A 
ATOM     26  C   UNL     1       5.580   1.782  -1.838  0.00  0.00    +0.006 A 
ATOM     27  C   UNL     1       6.610   0.952  -2.239  0.00  0.00    +0.004 A 
ATOM     28  C   UNL     1       7.925   1.325  -2.028  0.00  0.00    +0.049 A 
ATOM     29  C   UNL     1       8.211   2.534  -1.415  0.00  0.00    +0.162 A 
ATOM     30  C   UNL     1       7.174   3.373  -1.018  0.00  0.00    +0.160 A 
BRANCH  30  31
ATOM     31  O   UNL     1       7.451   4.563  -0.421  0.00  0.00    -0.503 OA
ATOM     32  H   UNL     1       7.521   4.513   0.542  0.00  0.00    +0.292 HD
ENDBRANCH  30  31
BRANCH  29  33
ATOM     33  O   UNL     1       9.504   2.903  -1.208  0.00  0.00    -0.489 OA
BRANCH  33  34
ATOM     34  C   UNL     1      10.516   1.995  -1.647  0.00  0.00    +0.226 C 
ATOM     35  C   UNL     1      11.895   2.577  -1.331  0.00  0.00    +0.048 C 
ENDBRANCH  33  34
ENDBRANCH  29  33
ENDBRANCH   2  25
TORSDOF 8
