REMARK  Name = ZINC59037913
REMARK  13 active torsions:
REMARK  status: ('A' for Active; 'I' for Inactive)
REMARK    1  A    between atoms: C_1  and  C_2
REMARK    2  A    between atoms: C_2  and  N_3
REMARK    3  A    between atoms: N_3  and  C_4
REMARK    4  A    between atoms: N_3  and  C_6
REMARK    5  A    between atoms: C_4  and  C_5
REMARK    6  A    between atoms: C_6  and  C_7
REMARK    7  A    between atoms: C_7  and  N_8
REMARK    8  A    between atoms: N_8  and  C_9
REMARK    9  A    between atoms: C_9  and  C_10
REMARK   10  A    between atoms: N_17  and  C_18
REMARK   11  A    between atoms: C_20  and  C_25
REMARK   12  A    between atoms: C_23  and  C_24
REMARK   13  A    between atoms: N_27  and  C_28
REMARK                            x       y       z     vdW  Elec       q    Type
REMARK                         _______ _______ _______ _____ _____    ______ ____
ROOT
ATOM      1  N   UNL     1       2.450  -3.836  -0.513  0.00  0.00    -0.282 N 
ATOM      2  C   UNL     1       3.622  -4.333  -0.068  0.00  0.00    +0.307 C 
ATOM      3  O   UNL     1       4.420  -3.603   0.487  0.00  0.00    -0.252 OA
ATOM      4  N   UNL     1       3.908  -5.639  -0.238  0.00  0.00    -0.269 N 
ATOM      5  H   UNL     1       3.299  -6.208  -0.733  0.00  0.00    +0.156 HD
ENDROOT
BRANCH   4   6
ATOM      6  C   UNL     1       5.084  -6.173   0.300  0.00  0.00    +0.038 A 
ATOM      7  C   UNL     1       6.181  -5.354   0.518  0.00  0.00    +0.036 A 
ATOM      8  C   UNL     1       7.351  -5.891   1.055  0.00  0.00    +0.039 A 
ATOM      9  C   UNL     1       7.410  -7.251   1.369  0.00  0.00    +0.013 A 
ATOM     10  C   UNL     1       6.312  -8.057   1.148  0.00  0.00    +0.006 A 
ATOM     11  C   UNL     1       5.151  -7.523   0.621  0.00  0.00    -0.029 A 
ATOM     12  C   UNL     1       3.955  -8.410   0.389  0.00  0.00    +0.045 C 
BRANCH   8  13
ATOM     13  C   UNL     1       8.525  -5.025   1.290  0.00  0.00    +0.248 C 
ATOM     14  O   UNL     1       8.472  -3.841   1.016  0.00  0.00    -0.270 OA
ATOM     15  N   UNL     1       9.655  -5.546   1.808  0.00  0.00    -0.282 N 
ATOM     16  H   UNL     1       9.723  -6.502   1.959  0.00  0.00    +0.155 HD
BRANCH  15  17
ATOM     17  C   UNL     1      10.728  -4.709   2.130  0.00  0.00    +0.034 A 
ATOM     18  C   UNL     1      12.033  -5.157   1.965  0.00  0.00    +0.023 A 
ATOM     19  C   UNL     1      13.091  -4.328   2.283  0.00  0.00    +0.002 A 
ATOM     20  C   UNL     1      12.852  -3.054   2.765  0.00  0.00    +0.000 A 
ATOM     21  C   UNL     1      11.555  -2.605   2.930  0.00  0.00    +0.002 A 
ATOM     22  C   UNL     1      10.492  -3.427   2.608  0.00  0.00    +0.023 A 
ENDBRANCH  15  17
ENDBRANCH   8  13
ENDBRANCH   4   6
BRANCH   1  23
ATOM     23  C   UNL     1       2.139  -2.417  -0.329  0.00  0.00    +0.091 C 
BRANCH  23  24
ATOM     24  C   UNL     1       1.420  -2.221   1.008  0.00  0.00    -0.060 C 
BRANCH  24  25
ATOM     25  N   UNL     1       1.108  -0.798   1.193  0.00  0.00    +0.380 N 
ATOM     26  H   UNL     1       1.954  -0.255   1.108  0.00  0.00    -0.082 HD
BRANCH  25  28
ATOM     27  C   UNL     1      -0.070   1.141   0.271  0.00  0.00    -0.017 C 
ATOM     28  C   UNL     1       0.146  -0.370   0.168  0.00  0.00    -0.082 C 
ENDBRANCH  25  28
BRANCH  25  29
ATOM     29  C   UNL     1       0.527  -0.594   2.526  0.00  0.00    -0.082 C 
ATOM     30  C   UNL     1       1.578  -0.902   3.594  0.00  0.00    -0.017 C 
ENDBRANCH  25  29
ENDBRANCH  24  25
ENDBRANCH  23  24
ENDBRANCH   1  23
BRANCH   1  31
ATOM     31  C   UNL     1       1.488  -4.716  -1.182  0.00  0.00    +0.151 C 
BRANCH  31  32
ATOM     32  C   UNL     1       1.760  -4.723  -2.664  0.00  0.00    +0.007 A 
ATOM     33  C   UNL     1       2.567  -5.543  -3.380  0.00  0.00    +0.013 A 
ATOM     34  C   UNL     1       2.662  -5.364  -4.747  0.00  0.00    +0.008 A 
ATOM     35  C   UNL     1       1.946  -4.372  -5.332  0.00  0.00    +0.045 A 
ATOM     36  S   UNL     1       1.096  -3.658  -3.933  0.00  0.00    -0.100 S 
ENDBRANCH  31  32
ENDBRANCH   1  31
TORSDOF 10
