REMARK  Name = ZINC36530959
REMARK  13 active torsions:
REMARK  status: ('A' for Active; 'I' for Inactive)
REMARK    1  A    between atoms: C_1  and  C_2
REMARK    2  A    between atoms: C_5  and  S_8
REMARK    3  A    between atoms: S_8  and  C_11
REMARK    4  A    between atoms: C_11  and  N_12
REMARK    5  A    between atoms: C_13  and  C_15
REMARK    6  A    between atoms: C_15  and  C_17
REMARK    7  A    between atoms: C_15  and  N_25
REMARK    8  A    between atoms: C_20  and  C_24
REMARK    9  A    between atoms: C_22  and  C_23
REMARK   10  A    between atoms: N_25  and  C_26
REMARK   11  A    between atoms: C_27  and  C_29
REMARK   12  A    between atoms: C_30  and  O_36
REMARK   13  A    between atoms: C_34  and  O_35
REMARK                            x       y       z     vdW  Elec       q    Type
REMARK                         _______ _______ _______ _____ _____    ______ ____
ROOT
ATOM      1  C   UNL     1       3.291  -5.324   3.540  0.00  0.00    +0.192 C 
ENDROOT
BRANCH   1   2
ATOM      2  C   UNL     1       4.602  -4.902   2.927  0.00  0.00    -0.015 A 
ATOM      3  C   UNL     1       4.867  -5.185   1.600  0.00  0.00    +0.006 A 
ATOM      4  C   UNL     1       6.069  -4.798   1.038  0.00  0.00    +0.004 A 
ATOM      5  C   UNL     1       7.005  -4.127   1.802  0.00  0.00    -0.050 A 
ATOM      6  C   UNL     1       6.740  -3.843   3.128  0.00  0.00    +0.007 A 
ATOM      7  C   UNL     1       5.536  -4.227   3.690  0.00  0.00    -0.045 A 
ATOM      8  C   UNL     1       5.244  -3.913   5.135  0.00  0.00    +0.044 C 
ATOM      9  C   UNL     1       8.316  -3.706   1.189  0.00  0.00    +0.044 C 
ENDBRANCH   1   2
BRANCH   1  11
ATOM     10  N   UNL     1       1.737  -4.668   1.732  0.00  0.00    -0.294 N 
ATOM     11  C   UNL     1       2.309  -5.656   2.447  0.00  0.00    +0.239 C 
ATOM     12  O   UNL     1       2.033  -6.813   2.211  0.00  0.00    -0.273 OA
ATOM     13  H   UNL     1       1.903  -3.741   1.966  0.00  0.00    +0.150 HD
BRANCH  10  14
ATOM     14  C   UNL     1       0.864  -4.992   0.601  0.00  0.00    +0.278 C 
BRANCH  14  15
ATOM     15  S   UNL     1      -0.864  -5.003   1.154  0.00  0.00    +0.013 S 
ATOM     16  O   UNL     1      -0.987  -5.748   2.358  0.00  0.00    -0.168 OA
ATOM     17  O   UNL     1      -1.728  -5.254   0.055  0.00  0.00    -0.168 OA
BRANCH  15  22
ATOM     18  C   UNL     1      -2.020   0.700   2.749  0.00  0.00    +0.044 C 
ATOM     19  C   UNL     1      -1.731  -0.724   2.350  0.00  0.00    -0.050 A 
ATOM     20  C   UNL     1      -1.957  -1.138   1.051  0.00  0.00    +0.005 A 
ATOM     21  C   UNL     1      -1.692  -2.445   0.686  0.00  0.00    +0.027 A 
ATOM     22  C   UNL     1      -1.200  -3.337   1.620  0.00  0.00    +0.090 A 
ATOM     23  C   UNL     1      -0.974  -2.923   2.919  0.00  0.00    +0.027 A 
ATOM     24  C   UNL     1      -1.235  -1.616   3.283  0.00  0.00    +0.005 A 
ENDBRANCH  15  22
ENDBRANCH  14  15
ENDBRANCH  10  14
ENDBRANCH   1  11
BRANCH   1  25
ATOM     25  N   UNL     1       3.504  -6.505   4.381  0.00  0.00    -0.285 N 
ATOM     26  C   UNL     1       4.129  -7.703   3.817  0.00  0.00    +0.133 C 
ATOM     27  C   UNL     1       3.124  -6.488   5.674  0.00  0.00    +0.254 C 
ATOM     28  O   UNL     1       2.605  -5.493   6.143  0.00  0.00    -0.270 OA
BRANCH  27  29
ATOM     29  C   UNL     1       3.337  -7.675   6.520  0.00  0.00    +0.119 A 
ATOM     30  C   UNL     1       4.529  -7.820   7.245  0.00  0.00    +0.133 A 
ATOM     31  C   UNL     1       4.719  -8.940   8.037  0.00  0.00    +0.046 A 
ATOM     32  C   UNL     1       3.739  -9.913   8.115  0.00  0.00    +0.007 A 
ATOM     33  C   UNL     1       2.561  -9.780   7.404  0.00  0.00    +0.046 A 
ATOM     34  C   UNL     1       2.348  -8.665   6.610  0.00  0.00    +0.133 A 
BRANCH  34  35
ATOM     35  O   UNL     1       1.188  -8.534   5.918  0.00  0.00    -0.506 OA
ATOM     36  H   UNL     1       1.214  -8.919   5.031  0.00  0.00    +0.292 HD
ENDBRANCH  34  35
BRANCH  30  37
ATOM     37  O   UNL     1       5.492  -6.867   7.170  0.00  0.00    -0.506 OA
ATOM     38  H   UNL     1       5.406  -6.169   7.833  0.00  0.00    +0.292 HD
ENDBRANCH  30  37
ENDBRANCH  27  29
ENDBRANCH   1  25
TORSDOF 9
