REMARK  Name = ZINC02146429
REMARK  7 active torsions:
REMARK  status: ('A' for Active; 'I' for Inactive)
REMARK    1  A    between atoms: C_1  and  N_53
REMARK    2  A    between atoms: C_8  and  O_28
REMARK    3  A    between atoms: C_10  and  C_12
REMARK    4  A    between atoms: C_12  and  C_13
REMARK    5  A    between atoms: C_13  and  C_15
REMARK    6  A    between atoms: C_18  and  C_20
REMARK    7  A    between atoms: O_28  and  C_29
REMARK                            x       y       z     vdW  Elec       q    Type
REMARK                         _______ _______ _______ _____ _____    ______ ____
ROOT
ATOM      1  C   UNL     1       6.994  -0.846   2.362  0.00  0.00    -0.095 C 
ATOM      2  C   UNL     1       7.308  -2.537   4.069  0.00  0.00    -0.074 C 
ATOM      3  C   UNL     1       6.654  -3.090   5.336  0.00  0.00    +0.017 C 
ATOM      4  C   UNL     1       5.313  -3.691   5.002  0.00  0.00    -0.040 A 
ATOM      5  C   UNL     1       4.725  -4.545   5.923  0.00  0.00    +0.053 A 
ATOM      6  C   UNL     1       3.490  -5.116   5.665  0.00  0.00    +0.170 A 
ATOM      7  C   UNL     1       2.834  -4.829   4.473  0.00  0.00    +0.208 A 
ATOM      8  C   UNL     1       3.425  -3.974   3.553  0.00  0.00    +0.167 A 
ATOM      9  C   UNL     1       4.667  -3.405   3.818  0.00  0.00    -0.012 A 
ATOM     10  C   UNL     1       5.269  -2.487   2.786  0.00  0.00    -0.026 C 
ATOM     11  O   UNL     1       1.647  -5.504   4.454  0.00  0.00    -0.449 OA
ATOM     12  C   UNL     1       1.770  -6.525   5.462  0.00  0.00    +0.467 C 
ATOM     13  O   UNL     1       2.716  -5.971   6.395  0.00  0.00    -0.452 OA
ATOM     14  N   UNL     1       6.324  -1.663   3.399  0.00  0.00    +0.383 N 
ATOM     15  H   UNL     1       5.900  -1.039   4.095  0.00  0.00    -0.081 HD
ENDROOT
BRANCH   8  16
ATOM     16  O   UNL     1       2.787  -3.691   2.385  0.00  0.00    -0.491 OA
ATOM     17  C   UNL     1       3.055  -4.549   1.274  0.00  0.00    +0.277 C 
ENDBRANCH   8  16
BRANCH  10  18
ATOM     18  C   UNL     1       4.179  -1.565   2.234  0.00  0.00    +0.072 C 
BRANCH  18  19
ATOM     19  C   UNL     1       3.480  -0.874   3.376  0.00  0.00    +0.197 C 
ATOM     20  O   UNL     1       3.886  -1.016   4.512  0.00  0.00    -0.289 OA
BRANCH  19  21
ATOM     21  C   UNL     1       2.353  -0.063   3.126  0.00  0.00    +0.171 A 
ATOM     22  C   UNL     1       1.622   0.625   4.078  0.00  0.00    +0.053 A 
ATOM     23  C   UNL     1       0.607   1.298   3.397  0.00  0.00    +0.050 A 
ATOM     24  C   UNL     1       0.746   0.993   2.061  0.00  0.00    +0.137 A 
ATOM     25  O   UNL     1       1.803   0.177   1.916  0.00  0.00    -0.452 OA
BRANCH  24  26
ATOM     26  C   UNL     1      -0.117   1.486   0.970  0.00  0.00    +0.037 A 
ATOM     27  C   UNL     1      -1.506   1.380   1.073  0.00  0.00    +0.033 A 
ATOM     28  C   UNL     1      -2.308   1.842   0.048  0.00  0.00    +0.042 A 
ATOM     29  C   UNL     1      -1.738   2.410  -1.079  0.00  0.00    +0.021 A 
ATOM     30  C   UNL     1      -0.363   2.523  -1.186  0.00  0.00    +0.022 A 
ATOM     31  C   UNL     1       0.451   2.059  -0.171  0.00  0.00    +0.052 A 
ATOM     32 CL   UNL     1       2.176   2.195  -0.309  0.00  0.00    -0.083 Cl
ATOM     33 CL   UNL     1      -4.034   1.712   0.174  0.00  0.00    -0.084 Cl
ENDBRANCH  24  26
ENDBRANCH  19  21
ENDBRANCH  18  19
ENDBRANCH  10  18
TORSDOF 5
