REMARK  Name = ZINC59791012
REMARK  12 active torsions:
REMARK  status: ('A' for Active; 'I' for Inactive)
REMARK    1  A    between atoms: C_1  and  C_2
REMARK    2  A    between atoms: C_2  and  O_3
REMARK    3  A    between atoms: O_3  and  C_4
REMARK    4  A    between atoms: C_4  and  C_6
REMARK    5  A    between atoms: C_10  and  N_11
REMARK    6  A    between atoms: C_12  and  C_14
REMARK    7  A    between atoms: C_14  and  C_15
REMARK    8  A    between atoms: C_15  and  S_16
REMARK    9  A    between atoms: S_16  and  C_17
REMARK   10  A    between atoms: C_20  and  C_23
REMARK   11  A    between atoms: N_21  and  N_22
REMARK   12  A    between atoms: C_26  and  N_29
REMARK                            x       y       z     vdW  Elec       q    Type
REMARK                         _______ _______ _______ _____ _____    ______ ____
ROOT
ATOM      1  C   UNL     1       6.009  -2.515   0.401  0.00  0.00    +0.107 C 
ENDROOT
BRANCH   1   3
ATOM      2  N   UNL     1       3.744  -2.426   1.392  0.00  0.00    -0.279 N 
ATOM      3  C   UNL     1       5.047  -2.736   1.540  0.00  0.00    +0.218 C 
ATOM      4  O   UNL     1       5.445  -3.193   2.591  0.00  0.00    -0.275 OA
ATOM      5  H   UNL     1       3.425  -2.060   0.551  0.00  0.00    +0.155 HD
BRANCH   2  10
ATOM      6  C   UNL     1       1.496  -2.371   2.467  0.00  0.00    +0.091 A 
ATOM      7  C   UNL     1       0.787  -2.682   3.696  0.00  0.00    -0.021 A 
ATOM      8  C   UNL     1       1.570  -3.187   4.673  0.00  0.00    -0.004 A 
ATOM      9  S   UNL     1       3.191  -3.243   3.966  0.00  0.00    -0.077 S 
ATOM     10  C   UNL     1       2.859  -2.629   2.439  0.00  0.00    +0.086 A 
ATOM     11  C   UNL     1       1.140  -3.603   6.046  0.00  0.00    +0.043 C 
ATOM     12  C   UNL     1      -0.255  -3.018   6.312  0.00  0.00    +0.005 C 
ATOM     13  C   UNL     1      -1.153  -3.312   5.107  0.00  0.00    +0.005 C 
ATOM     14  C   UNL     1      -0.705  -2.473   3.907  0.00  0.00    +0.037 C 
BRANCH   6  15
ATOM     15  C   UNL     1       0.801  -1.814   1.305  0.00  0.00    +0.342 C 
ATOM     16  O   UNL     1       0.321  -2.557   0.470  0.00  0.00    -0.245 OA
BRANCH  15  17
ATOM     17  O   UNL     1       0.693  -0.477   1.160  0.00  0.00    -0.461 OA
BRANCH  17  19
ATOM     18  C   UNL     1      -0.019   1.526   0.010  0.00  0.00    +0.048 C 
ATOM     19  C   UNL     1       0.002  -0.004   0.002  0.00  0.00    +0.229 C 
ENDBRANCH  17  19
ENDBRANCH  15  17
ENDBRANCH   6  15
ENDBRANCH   2  10
ENDBRANCH   1   3
BRANCH   1  20
ATOM     20  C   UNL     1       7.413  -2.945   0.829  0.00  0.00    +0.086 C 
BRANCH  20  21
ATOM     21  S   UNL     1       8.571  -2.679  -0.542  0.00  0.00    -0.084 S 
BRANCH  21  22
ATOM     22  C   UNL     1      10.122  -3.216   0.100  0.00  0.00    +0.209 A 
ATOM     23  N   UNL     1      10.343  -3.699   1.302  0.00  0.00    -0.121 NA
ATOM     24  N   UNL     1      11.587  -3.991   1.438  0.00  0.00    -0.127 NA
ATOM     25  C   UNL     1      12.236  -3.713   0.332  0.00  0.00    +0.182 A 
ATOM     26  N   UNL     1      11.317  -3.213  -0.561  0.00  0.00    -0.224 N 
BRANCH  25  27
ATOM     27  C   UNL     1      13.682  -3.905   0.089  0.00  0.00    +0.021 A 
ATOM     28  C   UNL     1      14.299  -3.283  -0.998  0.00  0.00    +0.014 A 
ATOM     29  C   UNL     1      15.648  -3.467  -1.218  0.00  0.00    +0.033 A 
ATOM     30  C   UNL     1      16.390  -4.266  -0.366  0.00  0.00    +0.126 A 
ATOM     31  C   UNL     1      15.784  -4.885   0.713  0.00  0.00    +0.033 A 
ATOM     32  C   UNL     1      14.437  -4.705   0.949  0.00  0.00    +0.014 A 
BRANCH  30  33
ATOM     33  N   UNL     1      17.837  -4.459  -0.609  0.00  0.00    +0.056 N 
ATOM     34  O   UNL     1      18.369  -3.919  -1.552  0.00  0.00    -0.126 OA
ATOM     35  O   UNL     1      18.487  -5.157   0.134  0.00  0.00    -0.126 OA
ENDBRANCH  30  33
ENDBRANCH  25  27
BRANCH  26  36
ATOM     36  N   UNL     1      11.551  -2.797  -1.841  0.00  0.00    -0.295 N 
ATOM     37  H   UNL     1      11.785  -1.816  -1.866  0.00  0.00    +0.163 HD
ATOM     38  H   UNL     1      12.273  -3.352  -2.275  0.00  0.00    +0.163 HD
ENDBRANCH  26  36
ENDBRANCH  21  22
ENDBRANCH  20  21
ENDBRANCH   1  20
TORSDOF 11
