REMARK  Name = ZINC64084042
REMARK  8 active torsions:
REMARK  status: ('A' for Active; 'I' for Inactive)
REMARK    1  A    between atoms: C_1  and  C_2
REMARK    2  A    between atoms: C_8  and  C_12
REMARK    3  A    between atoms: C_12  and  C_13
REMARK    4  A    between atoms: C_13  and  N_14
REMARK    5  A    between atoms: C_15  and  C_17
REMARK    6  A    between atoms: C_20  and  C_23
REMARK    7  A    between atoms: C_23  and  O_24
REMARK    8  A    between atoms: O_24  and  C_25
REMARK                            x       y       z     vdW  Elec       q    Type
REMARK                         _______ _______ _______ _____ _____    ______ ____
ROOT
ATOM      1  N   UNL     1       2.526  -2.934   5.864  0.00  0.00    -0.314 N 
ATOM      2  C   UNL     1       2.761  -3.983   6.678  0.00  0.00    +0.237 C 
ATOM      3  O   UNL     1       1.975  -4.906   6.720  0.00  0.00    -0.274 OA
ATOM      4  H   UNL     1       3.154  -2.196   5.831  0.00  0.00    +0.149 HD
ENDROOT
BRANCH   2   5
ATOM      5  C   UNL     1       4.000  -4.008   7.535  0.00  0.00    +0.204 C 
ATOM      6  C   UNL     1       5.195  -4.500   6.740  0.00  0.00    +0.051 C 
ATOM      7  C   UNL     1       5.415  -5.753   7.074  0.00  0.00    +0.161 C 
ATOM      8  O   UNL     1       4.527  -6.205   7.992  0.00  0.00    -0.407 OA
ATOM      9  N   UNL     1       3.877  -5.028   8.609  0.00  0.00    -0.140 NA
ATOM     10  H   UNL     1       4.368  -4.738   9.441  0.00  0.00    +0.168 HD
BRANCH   7  11
ATOM     11  C   UNL     1       6.530  -6.590   6.502  0.00  0.00    +0.305 C 
BRANCH  11  12
ATOM     12  O   UNL     1       7.454  -6.926   7.538  0.00  0.00    -0.481 OA
BRANCH  12  13
ATOM     13  C   UNL     1       8.527  -7.685   7.186  0.00  0.00    +0.156 A 
ATOM     14  C   UNL     1       8.688  -8.092   5.871  0.00  0.00    +0.051 A 
ATOM     15  C   UNL     1       9.778  -8.863   5.515  0.00  0.00    +0.042 A 
ATOM     16  C   UNL     1      10.710  -9.230   6.471  0.00  0.00    +0.126 A 
ATOM     17  C   UNL     1      10.552  -8.825   7.785  0.00  0.00    +0.080 A 
ATOM     18  C   UNL     1       9.465  -8.048   8.144  0.00  0.00    +0.168 A 
ATOM     19  F   UNL     1       9.314  -7.648   9.425  0.00  0.00    -0.202 F 
ATOM     20  F   UNL     1      11.774  -9.984   6.120  0.00  0.00    -0.205 F 
ENDBRANCH  12  13
ENDBRANCH  11  12
ENDBRANCH   7  11
ENDBRANCH   2   5
BRANCH   1  21
ATOM     21  C   UNL     1       1.321  -2.910   5.030  0.00  0.00    +0.108 C 
BRANCH  21  22
ATOM     22  C   UNL     1       1.296  -1.619   4.209  0.00  0.00    +0.065 C 
BRANCH  22  30
ATOM     23  C   UNL     1      -0.018   1.503   0.010  0.00  0.00    +0.046 C 
ATOM     24  C   UNL     1       0.002  -0.004   0.002  0.00  0.00    -0.025 A 
ATOM     25  C   UNL     1       0.006  -0.676  -1.167  0.00  0.00    +0.005 A 
ATOM     26  C   UNL     1       0.025  -2.081  -1.233  0.00  0.00    +0.002 A 
ATOM     27  C   UNL     1       0.040  -2.860  -0.134  0.00  0.00    +0.027 A 
ATOM     28  C   UNL     1       0.037  -2.237   1.197  0.00  0.00    +0.060 A 
ATOM     29  N   UNL     1       0.049  -2.726   2.403  0.00  0.00    -0.363 N 
ATOM     30  C   UNL     1       0.039  -1.594   3.338  0.00  0.00    +0.175 C 
ATOM     31  N   UNL     1       0.019  -0.378   2.515  0.00  0.00    -0.363 N 
ATOM     32  C   UNL     1       0.024  -0.750   1.268  0.00  0.00    +0.063 A 
ATOM     33  H   UNL     1       0.008   0.536   2.841  0.00  0.00    +0.162 HD
ATOM     34  H   UNL     1       0.063  -3.666   2.641  0.00  0.00    +0.162 HD
ENDBRANCH  22  30
ENDBRANCH  21  22
ENDBRANCH   1  21
TORSDOF 7
