REMARK  Name = ZINC03670516
REMARK  9 active torsions:
REMARK  status: ('A' for Active; 'I' for Inactive)
REMARK    1  A    between atoms: C_1  and  C_2
REMARK    2  A    between atoms: C_2  and  N_59
REMARK    3  A    between atoms: C_6  and  C_8
REMARK    4  A    between atoms: C_8  and  N_9
REMARK    5  A    between atoms: C_10  and  C_12
REMARK    6  A    between atoms: C_12  and  O_32
REMARK    7  A    between atoms: N_22  and  C_23
REMARK    8  A    between atoms: C_27  and  O_29
REMARK    9  A    between atoms: O_29  and  C_30
REMARK                            x       y       z     vdW  Elec       q    Type
REMARK                         _______ _______ _______ _____ _____    ______ ____
ROOT
ATOM      1  C   UNL     1       1.262   3.614  -0.365  0.00  0.00    +0.247 C 
ATOM      2  C   UNL     1       1.280   2.104  -0.295  0.00  0.00    +0.034 A 
ATOM      3  C   UNL     1       0.279   1.350  -0.863  0.00  0.00    +0.025 A 
ATOM      4  C   UNL     1       0.328  -0.032  -0.778  0.00  0.00    +0.018 A 
ATOM      5  C   UNL     1       1.381  -0.648  -0.125  0.00  0.00    +0.017 A 
ATOM      6  C   UNL     1       2.387   0.107   0.445  0.00  0.00    +0.025 A 
ATOM      7  C   UNL     1       2.341   1.493   0.363  0.00  0.00    +0.043 A 
ATOM      8  N   UNL     1       3.348   2.274   0.932  0.00  0.00    -0.269 N 
ATOM      9  C   UNL     1       3.350   3.612   0.880  0.00  0.00    +0.314 C 
ATOM     10  O   UNL     1       4.269   4.211   1.403  0.00  0.00    -0.252 OA
ATOM     11  N   UNL     1       2.383   4.324   0.274  0.00  0.00    -0.214 N 
ATOM     12 BR   UNL     1      -1.044  -1.076  -1.555  0.00  0.00    -0.050 Br
ATOM     13  H   UNL     1       4.080   1.827   1.386  0.00  0.00    +0.156 HD
ENDROOT
BRANCH  11  14
ATOM     14  C   UNL     1       2.440   5.722   0.253  0.00  0.00    +0.045 A 
ATOM     15  C   UNL     1       1.770   6.460   1.221  0.00  0.00    +0.024 A 
ATOM     16  C   UNL     1       1.827   7.840   1.200  0.00  0.00    +0.005 A 
ATOM     17  C   UNL     1       2.550   8.490   0.217  0.00  0.00    +0.046 A 
ATOM     18  C   UNL     1       3.221   7.757  -0.752  0.00  0.00    +0.122 A 
ATOM     19  C   UNL     1       3.170   6.372  -0.731  0.00  0.00    +0.069 A 
BRANCH  18  20
ATOM     20  O   UNL     1       3.932   8.398  -1.717  0.00  0.00    -0.495 OA
ATOM     21  C   UNL     1       3.945   9.826  -1.674  0.00  0.00    +0.277 C 
ENDBRANCH  18  20
ENDBRANCH  11  14
BRANCH   1  23
ATOM     22  N   UNL     1      -0.172   4.024   1.608  0.00  0.00    -0.313 N 
ATOM     23  C   UNL     1      -0.017   4.094   0.271  0.00  0.00    +0.269 C 
ATOM     24  O   UNL     1      -0.906   4.544  -0.420  0.00  0.00    -0.270 OA
ATOM     25  H   UNL     1       0.540   3.664   2.161  0.00  0.00    +0.149 HD
BRANCH  22  26
ATOM     26  C   UNL     1      -1.415   4.491   2.227  0.00  0.00    +0.089 C 
BRANCH  26  30
ATOM     27  C   UNL     1      -2.502   4.164   5.743  0.00  0.00    -0.078 C 
ATOM     28  C   UNL     1      -1.853   2.785   5.499  0.00  0.00    -0.020 C 
ATOM     29  C   UNL     1      -1.056   2.943   4.188  0.00  0.00    -0.016 C 
ATOM     30  C   UNL     1      -1.291   4.404   3.749  0.00  0.00    -0.051 C 
ATOM     31  N   UNL     1      -2.551   4.761   4.410  0.00  0.00    +0.382 N 
ATOM     32  H   UNL     1      -3.345   4.378   3.884  0.00  0.00    -0.081 HD
BRANCH  31  34
ATOM     33  C   UNL     1      -4.141   6.618   4.827  0.00  0.00    -0.017 C 
ATOM     34  C   UNL     1      -2.693   6.249   4.498  0.00  0.00    -0.082 C 
ENDBRANCH  31  34
ENDBRANCH  26  30
ENDBRANCH  22  26
ENDBRANCH   1  23
BRANCH   1  35
ATOM     35  O   UNL     1       1.232   3.989  -1.744  0.00  0.00    -0.360 OA
ATOM     36  H   UNL     1       0.523   3.570  -2.250  0.00  0.00    +0.213 HD
ENDBRANCH   1  35
TORSDOF 7
