REMARK  Name = ZINC39712821
REMARK  9 active torsions:
REMARK  status: ('A' for Active; 'I' for Inactive)
REMARK    1  A    between atoms: C_1  and  C_2
REMARK    2  A    between atoms: C_2  and  N_3
REMARK    3  A    between atoms: N_3  and  C_4
REMARK    4  A    between atoms: N_3  and  C_6
REMARK    5  A    between atoms: C_4  and  C_5
REMARK    6  A    between atoms: C_6  and  C_7
REMARK    7  A    between atoms: C_7  and  N_8
REMARK    8  A    between atoms: C_12  and  C_19
REMARK    9  A    between atoms: C_20  and  C_22
REMARK                            x       y       z     vdW  Elec       q    Type
REMARK                         _______ _______ _______ _____ _____    ______ ____
ROOT
ATOM      1  N   UNL     1       2.356  -3.628   0.070  0.00  0.00    -0.248 N 
ATOM      2  C   UNL     1       1.571  -4.536  -0.620  0.00  0.00    +0.168 A 
ATOM      3  N   UNL     1       1.721  -5.835  -0.733  0.00  0.00    -0.224 NA
ATOM      4  C   UNL     1       0.869  -6.605  -1.445  0.00  0.00    +0.083 A 
ATOM      5  C   UNL     1       0.917  -8.004  -1.646  0.00  0.00    -0.023 A 
ATOM      6  C   UNL     1      -0.034  -8.636  -2.403  0.00  0.00    +0.025 A 
ATOM      7  C   UNL     1      -1.072  -7.932  -2.999  0.00  0.00    +0.042 A 
ATOM      8  C   UNL     1      -1.150  -6.561  -2.823  0.00  0.00    +0.037 A 
ATOM      9  C   UNL     1      -0.201  -5.921  -2.066  0.00  0.00    +0.042 A 
ATOM     10  S   UNL     1       0.091  -4.238  -1.576  0.00  0.00    -0.052 S 
ATOM     11 CL   UNL     1      -2.261  -8.762  -3.953  0.00  0.00    -0.083 Cl
ATOM     12  C   UNL     1       2.026  -8.809  -1.019  0.00  0.00    +0.046 C 
ATOM     13  C   UNL     1       3.446  -4.052   0.740  0.00  0.00    +0.254 C 
ATOM     14  O   UNL     1       3.789  -5.217   0.669  0.00  0.00    -0.270 OA
ENDROOT
BRANCH  13  15
ATOM     15  C   UNL     1       4.221  -3.106   1.556  0.00  0.00    +0.064 A 
ATOM     16  C   UNL     1       4.775  -1.897   0.992  0.00  0.00    +0.042 A 
ATOM     17  C   UNL     1       5.464  -1.115   1.847  0.00  0.00    +0.080 A 
ATOM     18  S   UNL     1       5.361  -2.007   3.384  0.00  0.00    -0.064 S 
ATOM     19  C   UNL     1       4.450  -3.329   2.897  0.00  0.00    +0.091 A 
ATOM     20 CL   UNL     1       3.918  -4.670   3.862  0.00  0.00    -0.075 Cl
ATOM     21 CL   UNL     1       6.260   0.394   1.527  0.00  0.00    -0.076 Cl
ENDBRANCH  13  15
BRANCH   1  22
ATOM     22  C   UNL     1       2.002  -2.206   0.072  0.00  0.00    +0.097 C 
BRANCH  22  23
ATOM     23  C   UNL     1       1.192  -1.884   1.329  0.00  0.00    -0.059 C 
BRANCH  23  24
ATOM     24  N   UNL     1       0.837  -0.459   1.331  0.00  0.00    +0.380 N 
ATOM     25  H   UNL     1       1.675   0.097   1.239  0.00  0.00    -0.082 HD
BRANCH  24  27
ATOM     26  C   UNL     1      -0.320   1.329   0.122  0.00  0.00    -0.017 C 
ATOM     27  C   UNL     1      -0.064  -0.176   0.205  0.00  0.00    -0.082 C 
ENDBRANCH  24  27
BRANCH  24  28
ATOM     28  C   UNL     1       0.163  -0.123   2.592  0.00  0.00    -0.082 C 
ATOM     29  C   UNL     1       1.147  -0.280   3.753  0.00  0.00    -0.017 C 
ENDBRANCH  24  28
ENDBRANCH  23  24
ENDBRANCH  22  23
ENDBRANCH   1  22
TORSDOF 6
