REMARK  Name = ZINC36604090
REMARK  12 active torsions:
REMARK  status: ('A' for Active; 'I' for Inactive)
REMARK    1  A    between atoms: C_1  and  C_2
REMARK    2  A    between atoms: C_2  and  C_3
REMARK    3  A    between atoms: C_2  and  C_4
REMARK    4  A    between atoms: C_2  and  N_5
REMARK    5  A    between atoms: C_6  and  C_8
REMARK    6  A    between atoms: C_8  and  C_10
REMARK    7  A    between atoms: C_8  and  N_17
REMARK    8  A    between atoms: C_15  and  O_16
REMARK    9  A    between atoms: N_17  and  C_18
REMARK   10  A    between atoms: C_24  and  C_26
REMARK   11  A    between atoms: C_26  and  C_34
REMARK   12  A    between atoms: C_27  and  C_28
REMARK                            x       y       z     vdW  Elec       q    Type
REMARK                         _______ _______ _______ _____ _____    ______ ____
ROOT
ATOM      1  N   UNL     1       2.673  -0.905  -2.454  0.00  0.00    -0.251 N 
ATOM      2  C   UNL     1       3.608  -0.058  -2.927  0.00  0.00    +0.252 C 
ATOM      3  O   UNL     1       4.775  -0.204  -2.615  0.00  0.00    -0.270 OA
ENDROOT
BRANCH   1   4
ATOM      4  C   UNL     1       3.057  -2.027  -1.712  0.00  0.00    +0.038 A 
ATOM      5  C   UNL     1       4.402  -2.346  -1.579  0.00  0.00    +0.023 A 
ATOM      6  C   UNL     1       4.777  -3.455  -0.846  0.00  0.00    +0.002 A 
ATOM      7  C   UNL     1       3.816  -4.246  -0.244  0.00  0.00    +0.000 A 
ATOM      8  C   UNL     1       2.476  -3.931  -0.375  0.00  0.00    +0.002 A 
ATOM      9  C   UNL     1       2.094  -2.820  -1.102  0.00  0.00    +0.023 A 
ENDBRANCH   1   4
BRANCH   2  10
ATOM     10  C   UNL     1       3.218   1.044  -3.821  0.00  0.00    +0.045 C 
ATOM     11  C   UNL     1       2.981   0.800  -5.138  0.00  0.00    +0.021 C 
BRANCH  11  12
ATOM     12  C   UNL     1       3.280  -0.522  -5.706  0.00  0.00    -0.024 A 
ATOM     13  C   UNL     1       2.466  -1.057  -6.711  0.00  0.00    +0.008 A 
ATOM     14  C   UNL     1       2.753  -2.298  -7.238  0.00  0.00    +0.001 A 
ATOM     15  C   UNL     1       3.843  -3.015  -6.776  0.00  0.00    +0.000 A 
ATOM     16  C   UNL     1       4.653  -2.494  -5.782  0.00  0.00    +0.001 A 
ATOM     17  C   UNL     1       4.383  -1.252  -5.248  0.00  0.00    +0.008 A 
ENDBRANCH  11  12
BRANCH  10  18
ATOM     18  C   UNL     1       3.083   2.418  -3.287  0.00  0.00    -0.013 A 
ATOM     19  C   UNL     1       4.211   3.113  -2.848  0.00  0.00    +0.008 A 
ATOM     20  C   UNL     1       4.079   4.393  -2.351  0.00  0.00    +0.001 A 
ATOM     21  C   UNL     1       2.831   4.988  -2.288  0.00  0.00    +0.000 A 
ATOM     22  C   UNL     1       1.709   4.304  -2.721  0.00  0.00    +0.001 A 
ATOM     23  C   UNL     1       1.829   3.026  -3.226  0.00  0.00    +0.008 A 
ENDBRANCH  10  18
ENDBRANCH   2  10
BRANCH   1  24
ATOM     24  C   UNL     1       1.254  -0.652  -2.718  0.00  0.00    +0.201 C 
BRANCH  24  25
ATOM     25  C   UNL     1       0.696  -1.760  -3.572  0.00  0.00    +0.024 A 
ATOM     26  C   UNL     1       1.313  -2.996  -3.591  0.00  0.00    +0.009 A 
ATOM     27  C   UNL     1       0.801  -4.013  -4.375  0.00  0.00    +0.001 A 
ATOM     28  C   UNL     1      -0.330  -3.797  -5.141  0.00  0.00    +0.004 A 
ATOM     29  C   UNL     1      -0.951  -2.564  -5.124  0.00  0.00    +0.046 A 
ATOM     30  C   UNL     1      -0.443  -1.543  -4.334  0.00  0.00    +0.122 A 
BRANCH  30  31
ATOM     31  O   UNL     1      -1.055  -0.330  -4.312  0.00  0.00    -0.506 OA
ATOM     32  H   UNL     1      -0.729   0.288  -4.981  0.00  0.00    +0.292 HD
ENDBRANCH  30  31
ENDBRANCH  24  25
BRANCH  24  34
ATOM     33  N   UNL     1      -0.826  -0.372  -1.408  0.00  0.00    -0.309 N 
ATOM     34  C   UNL     1       0.503  -0.596  -1.412  0.00  0.00    +0.239 C 
ATOM     35  O   UNL     1       1.095  -0.753  -0.365  0.00  0.00    -0.273 OA
ATOM     36  H   UNL     1      -1.299  -0.246  -2.246  0.00  0.00    +0.149 HD
BRANCH  33  38
ATOM     37  C   UNL     1      -0.989   0.808   0.728  0.00  0.00    +0.031 C 
ATOM     38  C   UNL     1      -1.556  -0.318  -0.139  0.00  0.00    +0.026 C 
ATOM     39  C   UNL     1      -1.404  -1.652   0.594  0.00  0.00    +0.031 C 
ATOM     40  C   UNL     1      -3.037  -0.053  -0.414  0.00  0.00    +0.031 C 
ENDBRANCH  33  38
ENDBRANCH  24  34
ENDBRANCH   1  24
TORSDOF 9
