REMARK  Name = ZINC20610813
REMARK  5 active torsions:
REMARK  status: ('A' for Active; 'I' for Inactive)
REMARK    1  A    between atoms: C_1  and  C_2
REMARK    2  A    between atoms: C_6  and  N_8
REMARK    3  A    between atoms: C_11  and  C_18
REMARK    4  A    between atoms: C_24  and  O_30
REMARK    5  A    between atoms: O_30  and  C_31
REMARK                            x       y       z     vdW  Elec       q    Type
REMARK                         _______ _______ _______ _____ _____    ______ ____
ROOT
ATOM      1  C   UNL     1      -0.101  -6.355   3.606  0.00  0.00    +0.018 C 
ATOM      2  C   UNL     1      -1.441  -6.788   3.060  0.00  0.00    +0.011 A 
ATOM      3  C   UNL     1      -1.585  -7.822   2.199  0.00  0.00    -0.022 A 
ATOM      4  C   UNL     1      -2.994  -7.936   1.898  0.00  0.00    +0.006 A 
ATOM      5  C   UNL     1      -3.725  -8.805   1.081  0.00  0.00    +0.056 A 
ATOM      6  C   UNL     1      -5.097  -8.613   1.034  0.00  0.00    +0.121 A 
ATOM      7  C   UNL     1      -5.722  -7.607   1.762  0.00  0.00    +0.047 A 
ATOM      8  C   UNL     1      -5.016  -6.739   2.574  0.00  0.00    +0.030 A 
ATOM      9  C   UNL     1      -3.635  -6.910   2.640  0.00  0.00    +0.047 A 
ATOM     10  N   UNL     1      -2.664  -6.238   3.331  0.00  0.00    -0.359 N 
ATOM     11  H   UNL     1      -2.819  -5.485   3.923  0.00  0.00    +0.166 HD
ATOM     12  C   UNL     1      -0.427  -8.650   1.701  0.00  0.00    +0.018 C 
ATOM     13  C   UNL     1       0.777  -8.368   2.611  0.00  0.00    -0.076 C 
ATOM     14  N   UNL     1       0.960  -6.917   2.755  0.00  0.00    +0.388 N 
ATOM     15  H   UNL     1       0.922  -6.485   1.844  0.00  0.00    -0.084 HD
ATOM     16  H   UNL     1       1.859  -6.731   3.174  0.00  0.00    -0.084 HD
ENDROOT
BRANCH   1  20
ATOM     17  N   UNL     1       0.051  -2.798   2.394  0.00  0.00    -0.229 N 
ATOM     18  C   UNL     1      -0.028  -4.144   2.381  0.00  0.00    +0.267 A 
ATOM     19  O   UNL     1      -0.112  -4.743   1.323  0.00  0.00    -0.267 OA
ATOM     20  C   UNL     1      -0.013  -4.851   3.596  0.00  0.00    +0.073 A 
ATOM     21  C   UNL     1       0.082  -4.157   4.766  0.00  0.00    +0.260 A 
ATOM     22  N   UNL     1       0.160  -2.787   4.734  0.00  0.00    -0.274 N 
ATOM     23  H   UNL     1       0.228  -2.289   5.563  0.00  0.00    +0.173 HD
ATOM     24  C   UNL     1       0.150  -2.131   3.559  0.00  0.00    +0.337 A 
ATOM     25  O   UNL     1       0.225  -0.918   3.550  0.00  0.00    -0.246 OA
ATOM     26  O   UNL     1       0.098  -4.811   5.946  0.00  0.00    -0.267 OA
BRANCH  17  32
ATOM     27  C   UNL     1      -2.490  -0.510  -1.141  0.00  0.00    +0.044 C 
ATOM     28  C   UNL     1      -1.181  -0.969  -0.549  0.00  0.00    -0.048 A 
ATOM     29  C   UNL     1       0.006  -0.689  -1.200  0.00  0.00    +0.003 A 
ATOM     30  C   UNL     1       1.209  -1.108  -0.661  0.00  0.00    +0.002 A 
ATOM     31  C   UNL     1       1.227  -1.807   0.530  0.00  0.00    +0.026 A 
ATOM     32  C   UNL     1       0.036  -2.089   1.186  0.00  0.00    +0.055 A 
ATOM     33  C   UNL     1      -1.169  -1.662   0.645  0.00  0.00    +0.029 A 
ENDBRANCH  17  32
ENDBRANCH   1  20
BRANCH   6  34
ATOM     34  O   UNL     1      -5.853  -9.432   0.254  0.00  0.00    -0.495 OA
ATOM     35  C   UNL     1      -7.262  -9.194   0.239  0.00  0.00    +0.277 C 
ENDBRANCH   6  34
TORSDOF 3
