REMARK  Name = ZINC67165043
REMARK  11 active torsions:
REMARK  status: ('A' for Active; 'I' for Inactive)
REMARK    1  A    between atoms: C_1  and  C_2
REMARK    2  A    between atoms: N_7  and  C_9
REMARK    3  A    between atoms: C_9  and  C_10
REMARK    4  A    between atoms: C_10  and  C_11
REMARK    5  A    between atoms: C_11  and  C_12
REMARK    6  A    between atoms: C_12  and  N_13
REMARK    7  A    between atoms: C_14  and  C_16
REMARK    8  A    between atoms: C_16  and  C_17
REMARK    9  A    between atoms: C_17  and  C_18
REMARK   10  A    between atoms: C_18  and  C_19
REMARK   11  A    between atoms: C_19  and  C_20
REMARK                            x       y       z     vdW  Elec       q    Type
REMARK                         _______ _______ _______ _____ _____    ______ ____
ROOT
ATOM      1  N   UNL     1       2.541  -6.501   5.081  0.00  0.00    -0.315 N 
ATOM      2  C   UNL     1       2.580  -7.822   5.347  0.00  0.00    +0.213 C 
ATOM      3  O   UNL     1       2.082  -8.611   4.572  0.00  0.00    -0.276 OA
ATOM      4  H   UNL     1       2.939  -5.870   5.701  0.00  0.00    +0.149 HD
ENDROOT
BRANCH   1   5
ATOM      5  C   UNL     1       1.898  -6.019   3.857  0.00  0.00    +0.104 C 
BRANCH   5   6
ATOM      6  C   UNL     1       1.992  -4.493   3.798  0.00  0.00    +0.017 C 
BRANCH   6   7
ATOM      7  C   UNL     1       1.320  -3.989   2.519  0.00  0.00    -0.017 C 
BRANCH   7   8
ATOM      8  C   UNL     1       1.413  -2.463   2.461  0.00  0.00    -0.079 C 
BRANCH   8  14
ATOM      9  C   UNL     1      -0.019   1.526   0.010  0.00  0.00    +0.005 C 
ATOM     10  C   UNL     1       0.002  -0.004   0.002  0.00  0.00    -0.031 C 
ATOM     11  C   UNL     1       0.721  -0.499  -1.257  0.00  0.00    -0.001 C 
ATOM     12  C   UNL     1       0.805  -2.027  -1.217  0.00  0.00    -0.018 C 
ATOM     13  C   UNL     1       1.518  -2.460   0.066  0.00  0.00    -0.079 C 
ATOM     14  N   UNL     1       0.768  -1.979   1.233  0.00  0.00    +0.380 N 
ATOM     15  C   UNL     1       0.744  -0.512   1.240  0.00  0.00    -0.076 C 
ATOM     16  H   UNL     1      -0.177  -2.330   1.192  0.00  0.00    -0.082 HD
ENDBRANCH   8  14
ENDBRANCH   7   8
ENDBRANCH   6   7
ENDBRANCH   5   6
ENDBRANCH   1   5
BRANCH   2  17
ATOM     17  C   UNL     1       3.242  -8.318   6.606  0.00  0.00    +0.096 C 
BRANCH  17  18
ATOM     18  C   UNL     1       3.148  -9.844   6.665  0.00  0.00    +0.009 C 
BRANCH  18  19
ATOM     19  C   UNL     1       3.820 -10.348   7.944  0.00  0.00    +0.002 C 
BRANCH  19  20
ATOM     20  C   UNL     1       3.726 -11.874   8.002  0.00  0.00    +0.016 C 
BRANCH  20  21
ATOM     21  C   UNL     1       4.398 -12.377   9.281  0.00  0.00    +0.069 C 
ATOM     22  C   UNL     1       4.357 -13.882   9.362  0.00  0.00    +0.108 C 
ATOM     23  C   UNL     1       4.405 -14.300  10.864  0.00  0.00    +0.105 C 
ATOM     24  C   UNL     1       3.189 -13.638  11.508  0.00  0.00    +0.093 C 
ATOM     25  S   UNL     1       3.408 -11.926  10.781  0.00  0.00    -0.154 S 
ATOM     26  N   UNL     1       4.487 -15.735  10.704  0.00  0.00    -0.294 N 
ATOM     27  C   UNL     1       5.193 -15.933   9.551  0.00  0.00    +0.300 C 
ATOM     28  O   UNL     1       5.670 -17.004   9.229  0.00  0.00    -0.253 OA
ATOM     29  N   UNL     1       5.316 -14.795   8.815  0.00  0.00    -0.294 N 
ATOM     30  H   UNL     1       4.118 -16.413  11.291  0.00  0.00    +0.151 HD
ATOM     31  H   UNL     1       5.921 -14.641   8.073  0.00  0.00    +0.151 HD
ENDBRANCH  20  21
ENDBRANCH  19  20
ENDBRANCH  18  19
ENDBRANCH  17  18
ENDBRANCH   2  17
TORSDOF 10
