REMARK  Name = ZINC35397186
REMARK  8 active torsions:
REMARK  status: ('A' for Active; 'I' for Inactive)
REMARK    1  A    between atoms: C_1  and  C_2
REMARK    2  A    between atoms: C_5  and  N_9
REMARK    3  A    between atoms: C_6  and  C_8
REMARK    4  A    between atoms: C_10  and  C_12
REMARK    5  A    between atoms: C_12  and  S_13
REMARK    6  A    between atoms: S_13  and  C_14
REMARK    7  A    between atoms: N_19  and  C_22
REMARK    8  A    between atoms: C_24  and  C_25
REMARK                            x       y       z     vdW  Elec       q    Type
REMARK                         _______ _______ _______ _____ _____    ______ ____
ROOT
ATOM      1  C   UNL     1      -0.354  -8.692  -2.728  0.00  0.00    +0.120 C 
ATOM      2  N   UNL     1      -0.345  -9.340  -1.600  0.00  0.00    -0.246 NA
ATOM      3  C   UNL     1      -0.450 -10.767  -1.919  0.00  0.00    +0.150 C 
ATOM      4  C   UNL     1       0.779 -11.514  -1.402  0.00  0.00    +0.035 C 
ATOM      5  C   UNL     1       0.622 -13.008  -1.695  0.00  0.00    -0.075 C 
ATOM      6  N   UNL     1      -0.586 -13.514  -1.032  0.00  0.00    +0.378 N 
ATOM      7  C   UNL     1      -1.774 -12.855  -1.588  0.00  0.00    -0.075 C 
ATOM      8  C   UNL     1      -1.715 -11.354  -1.291  0.00  0.00    +0.035 C 
ATOM      9  C   UNL     1      -0.689 -14.964  -1.246  0.00  0.00    -0.096 C 
ATOM     10  N   UNL     1      -0.522 -10.864  -3.380  0.00  0.00    -0.251 NA
ATOM     11  C   UNL     1      -0.471  -9.653  -3.850  0.00  0.00    +0.100 C 
ATOM     12  H   UNL     1      -0.530 -13.325  -0.043  0.00  0.00    -0.082 HD
ENDROOT
BRANCH  11  13
ATOM     13  C   UNL     1      -0.519  -9.291  -5.284  0.00  0.00    +0.003 A 
ATOM     14  C   UNL     1      -0.114 -10.210  -6.253  0.00  0.00    +0.011 A 
ATOM     15  C   UNL     1      -0.161  -9.867  -7.588  0.00  0.00    +0.016 A 
ATOM     16  C   UNL     1      -0.609  -8.613  -7.968  0.00  0.00    +0.018 A 
ATOM     17  C   UNL     1      -1.011  -7.696  -7.011  0.00  0.00    +0.016 A 
ATOM     18  C   UNL     1      -0.975  -8.031  -5.673  0.00  0.00    +0.011 A 
ATOM     19 BR   UNL     1      -0.670  -8.150  -9.800  0.00  0.00    -0.050 Br
ENDBRANCH  11  13
BRANCH   1  20
ATOM     20  S   UNL     1      -0.250  -6.941  -2.896  0.00  0.00    -0.095 S 
BRANCH  20  21
ATOM     21  C   UNL     1      -0.128  -6.343  -1.187  0.00  0.00    +0.172 C 
BRANCH  21  23
ATOM     22  N   UNL     1       0.069  -4.170  -0.021  0.00  0.00    -0.285 N 
ATOM     23  C   UNL     1      -0.032  -4.839  -1.187  0.00  0.00    +0.227 C 
ATOM     24  O   UNL     1      -0.045  -4.231  -2.236  0.00  0.00    -0.275 OA
ATOM     25  H   UNL     1       0.145  -4.659   0.813  0.00  0.00    +0.155 HD
BRANCH  22  30
ATOM     26  C   UNL     1       0.046   1.503   0.005  0.00  0.00    +0.044 C 
ATOM     27  C   UNL     1       0.052  -0.004  -0.002  0.00  0.00    -0.050 A 
ATOM     28  C   UNL     1       0.648  -0.687  -1.047  0.00  0.00    +0.005 A 
ATOM     29  C   UNL     1       0.655  -2.068  -1.056  0.00  0.00    +0.024 A 
ATOM     30  C   UNL     1       0.064  -2.771  -0.015  0.00  0.00    +0.036 A 
ATOM     31  C   UNL     1      -0.533  -2.083   1.033  0.00  0.00    -0.029 A 
ATOM     32  C   UNL     1      -0.533  -0.701   1.038  0.00  0.00    +0.008 A 
ATOM     33  C   UNL     1      -1.177  -2.842   2.165  0.00  0.00    +0.045 C 
ENDBRANCH  22  30
ENDBRANCH  21  23
ENDBRANCH  20  21
ENDBRANCH   1  20
TORSDOF 5
