REMARK  Name = ZINC34676577
REMARK  7 active torsions:
REMARK  status: ('A' for Active; 'I' for Inactive)
REMARK    1  A    between atoms: C_1  and  C_2
REMARK    2  A    between atoms: C_5  and  N_8
REMARK    3  A    between atoms: C_18  and  N_20
REMARK    4  A    between atoms: N_20  and  C_21
REMARK    5  A    between atoms: N_20  and  C_22
REMARK    6  A    between atoms: C_27  and  C_29
REMARK    7  A    between atoms: C_32  and  C_35
REMARK                            x       y       z     vdW  Elec       q    Type
REMARK                         _______ _______ _______ _____ _____    ______ ____
ROOT
ATOM      1  N   UNL     1       4.190  -4.322   1.436  0.00  0.00    -0.327 N 
ATOM      2  C   UNL     1       4.063  -5.258   2.562  0.00  0.00    +0.124 C 
ATOM      3  C   UNL     1       2.736  -6.014   2.424  0.00  0.00    +0.127 C 
ATOM      4  N   UNL     1       2.633  -6.536   1.054  0.00  0.00    -0.298 N 
ATOM      5  C   UNL     1       2.760  -5.600  -0.072  0.00  0.00    +0.127 C 
ATOM      6  C   UNL     1       4.082  -4.843   0.066  0.00  0.00    +0.124 C 
ATOM      7  C   UNL     1       2.422  -7.885   0.828  0.00  0.00    +0.198 A 
ATOM      8  N   UNL     1       2.195  -8.683   1.857  0.00  0.00    -0.331 N 
ATOM      9  C   UNL     1       1.982  -9.986   1.688  0.00  0.00    +0.028 A 
ATOM     10  C   UNL     1       1.995 -10.499   0.413  0.00  0.00    +0.029 A 
ATOM     11  C   UNL     1       2.245  -9.633  -0.658  0.00  0.00    +0.131 A 
ATOM     12  N   UNL     1       2.446  -8.343  -0.414  0.00  0.00    -0.201 NA
ATOM     13  C   UNL     1       1.737 -11.954   0.121  0.00  0.00    +0.148 C 
ATOM     14  N   UNL     1       1.764 -12.718   1.374  0.00  0.00    -0.293 N 
ATOM     15  C   UNL     1       1.056 -12.145   2.532  0.00  0.00    +0.114 C 
ATOM     16  C   UNL     1       1.746 -10.835   2.908  0.00  0.00    +0.072 C 
ATOM     17  C   UNL     1       2.410 -13.897   1.462  0.00  0.00    +0.247 C 
ATOM     18  O   UNL     1       2.357 -14.544   2.490  0.00  0.00    -0.270 OA
ATOM     19  H   UNL     1       2.183  -8.312   2.754  0.00  0.00    +0.168 HD
ENDROOT
BRANCH   1  24
ATOM     20  C   UNL     1       5.056   1.206   2.361  0.00  0.00    +0.044 C 
ATOM     21  C   UNL     1       4.826  -0.263   2.115  0.00  0.00    -0.050 A 
ATOM     22  C   UNL     1       4.845  -0.758   0.824  0.00  0.00    +0.005 A 
ATOM     23  C   UNL     1       4.635  -2.103   0.595  0.00  0.00    +0.023 A 
ATOM     24  C   UNL     1       4.404  -2.960   1.664  0.00  0.00    +0.030 A 
ATOM     25  C   UNL     1       4.385  -2.460   2.960  0.00  0.00    +0.023 A 
ATOM     26  C   UNL     1       4.602  -1.114   3.182  0.00  0.00    +0.005 A 
ENDBRANCH   1  24
BRANCH  17  27
ATOM     27  C   UNL     1       3.183 -14.404   0.308  0.00  0.00    +0.037 A 
ATOM     28  C   UNL     1       4.387 -15.080   0.514  0.00  0.00    +0.013 A 
ATOM     29  C   UNL     1       5.104 -15.551  -0.567  0.00  0.00    +0.013 A 
ATOM     30  C   UNL     1       4.632 -15.353  -1.852  0.00  0.00    +0.055 A 
ATOM     31  C   UNL     1       3.440 -14.683  -2.063  0.00  0.00    +0.013 A 
ATOM     32  C   UNL     1       2.711 -14.213  -0.991  0.00  0.00    +0.013 A 
BRANCH  30  33
ATOM     33  C   UNL     1       5.421 -15.869  -3.028  0.00  0.00    +0.417 C 
ATOM     34  F   UNL     1       5.011 -17.173  -3.328  0.00  0.00    -0.166 F 
ATOM     35  F   UNL     1       5.200 -15.044  -4.136  0.00  0.00    -0.166 F 
ATOM     36  F   UNL     1       6.783 -15.870  -2.712  0.00  0.00    -0.166 F 
ENDBRANCH  30  33
ENDBRANCH  17  27
BRANCH  11  37
ATOM     37  N   UNL     1       2.277 -10.115  -1.956  0.00  0.00    -0.321 N 
ATOM     38  C   UNL     1       1.073 -10.059  -2.788  0.00  0.00    +0.130 C 
ATOM     39  C   UNL     1       3.516 -10.681  -2.497  0.00  0.00    +0.130 C 
ENDBRANCH  11  37
TORSDOF 4
