REMARK  Name = ZINC36659036
REMARK  10 active torsions:
REMARK  status: ('A' for Active; 'I' for Inactive)
REMARK    1  A    between atoms: C_1  and  C_2
REMARK    2  A    between atoms: C_5  and  S_8
REMARK    3  A    between atoms: S_8  and  N_11
REMARK    4  A    between atoms: C_15  and  C_18
REMARK    5  A    between atoms: C_24  and  C_26
REMARK    6  A    between atoms: C_26  and  C_27
REMARK    7  A    between atoms: C_30  and  S_33
REMARK    8  A    between atoms: S_33  and  C_34
REMARK    9  A    between atoms: C_34  and  C_35
REMARK   10  A    between atoms: C_34  and  C_36
REMARK                            x       y       z     vdW  Elec       q    Type
REMARK                         _______ _______ _______ _____ _____    ______ ____
ROOT
ATOM      1  C   UNL     1       3.939  -7.345   2.038  0.00  0.00    +0.225 C 
ATOM      2  O   UNL     1       4.064  -6.408   2.798  0.00  0.00    -0.275 OA
ATOM      3  N   UNL     1       4.566  -8.509   2.296  0.00  0.00    -0.238 N 
ATOM      4  C   UNL     1       5.355  -8.637   3.430  0.00  0.00    +0.314 A 
ATOM      5  N   UNL     1       5.571  -7.713   4.333  0.00  0.00    -0.092 NA
ATOM      6  N   UNL     1       6.350  -8.182   5.243  0.00  0.00    -0.111 NA
ATOM      7  C   UNL     1       6.660  -9.413   4.959  0.00  0.00    +0.223 A 
ATOM      8  O   UNL     1       6.035  -9.734   3.810  0.00  0.00    -0.409 OA
ATOM      9  H   UNL     1       4.466  -9.259   1.688  0.00  0.00    +0.159 HD
ENDROOT
BRANCH   1  14
ATOM     10  N   UNL     1       1.769  -5.635  -0.520  0.00  0.00    -0.176 NA
ATOM     11  C   UNL     1       2.472  -5.931  -1.776  0.00  0.00    +0.109 C 
ATOM     12  C   UNL     1       3.062  -7.342  -1.690  0.00  0.00    +0.018 C 
ATOM     13  C   UNL     1       3.938  -7.449  -0.440  0.00  0.00    +0.015 C 
ATOM     14  C   UNL     1       3.083  -7.206   0.806  0.00  0.00    +0.091 C 
ATOM     15  C   UNL     1       2.495  -5.788   0.748  0.00  0.00    +0.122 C 
BRANCH  10  16
ATOM     16  S   UNL     1       0.192  -5.131  -0.534  0.00  0.00    +0.061 S 
ATOM     17  O   UNL     1      -0.350  -5.458   0.738  0.00  0.00    -0.153 OA
ATOM     18  O   UNL     1      -0.375  -5.604  -1.748  0.00  0.00    -0.153 OA
BRANCH  16  23
ATOM     19  C   UNL     1       0.242   0.892  -0.889  0.00  0.00    +0.044 C 
ATOM     20  C   UNL     1       0.230  -0.612  -0.800  0.00  0.00    -0.050 A 
ATOM     21  C   UNL     1       0.213  -1.372  -1.955  0.00  0.00    +0.005 A 
ATOM     22  C   UNL     1       0.202  -2.752  -1.874  0.00  0.00    +0.029 A 
ATOM     23  C   UNL     1       0.208  -3.372  -0.638  0.00  0.00    +0.105 A 
ATOM     24  C   UNL     1       0.225  -2.612   0.516  0.00  0.00    +0.029 A 
ATOM     25  C   UNL     1       0.241  -1.232   0.435  0.00  0.00    +0.005 A 
ENDBRANCH  16  23
ENDBRANCH  10  16
ENDBRANCH   1  14
BRANCH   7  26
ATOM     26  C   UNL     1       7.551 -10.318   5.770  0.00  0.00    +0.132 C 
BRANCH  26  27
ATOM     27  C   UNL     1       6.719 -11.073   6.775  0.00  0.00    -0.038 A 
ATOM     28  C   UNL     1       6.499 -10.537   8.030  0.00  0.00    +0.005 A 
ATOM     29  C   UNL     1       5.738 -11.226   8.954  0.00  0.00    +0.015 A 
ATOM     30  C   UNL     1       5.192 -12.460   8.619  0.00  0.00    +0.008 A 
ATOM     31  C   UNL     1       5.415 -12.995   7.356  0.00  0.00    +0.015 A 
ATOM     32  C   UNL     1       6.173 -12.298   6.436  0.00  0.00    +0.005 A 
BRANCH  30  33
ATOM     33  S   UNL     1       4.220 -13.343   9.794  0.00  0.00    -0.122 S 
BRANCH  33  34
ATOM     34  C   UNL     1       2.561 -12.633   9.614  0.00  0.00    +0.045 C 
ATOM     35  C   UNL     1       1.995 -13.001   8.240  0.00  0.00    +0.019 C 
ATOM     36  C   UNL     1       1.646 -13.189  10.707  0.00  0.00    +0.019 C 
ENDBRANCH  33  34
ENDBRANCH  30  33
ENDBRANCH  26  27
ENDBRANCH   7  26
TORSDOF 7
