REMARK  Name = ZINC09729398
REMARK  4 active torsions:
REMARK  status: ('A' for Active; 'I' for Inactive)
REMARK    1  A    between atoms: C_6  and  C_7
REMARK    2  A    between atoms: C_12  and  C_13
REMARK    3  A    between atoms: C_12  and  N_54
REMARK    4  A    between atoms: N_15  and  C_16
REMARK                            x       y       z     vdW  Elec       q    Type
REMARK                         _______ _______ _______ _____ _____    ______ ____
ROOT
ATOM      1  C   UNL     1      -2.301   3.509  -1.532  0.00  0.00    +0.020 C 
ENDROOT
BRANCH   1   6
ATOM      2  C   UNL     1      -1.595   2.816   0.693  0.00  0.00    -0.037 C 
ATOM      3  C   UNL     1      -0.809   1.605   1.261  0.00  0.00    -0.013 C 
ATOM      4  C   UNL     1      -0.034   1.089   0.028  0.00  0.00    -0.020 C 
ATOM      5  C   UNL     1      -0.812   1.619  -1.190  0.00  0.00    -0.077 C 
ATOM      6  N   UNL     1      -1.962   2.349  -0.653  0.00  0.00    +0.390 N 
ATOM      7  H   UNL     1      -2.773   1.723  -0.594  0.00  0.00    -0.080 HD
BRANCH   2  13
ATOM      8  C   UNL     1      -3.916   2.256   1.441  0.00  0.00    +0.006 A 
ATOM      9  C   UNL     1      -5.044   2.506   2.202  0.00  0.00    +0.049 A 
ATOM     10  C   UNL     1      -5.071   3.599   3.050  0.00  0.00    +0.162 A 
ATOM     11  C   UNL     1      -3.970   4.441   3.136  0.00  0.00    +0.162 A 
ATOM     12  C   UNL     1      -2.841   4.185   2.377  0.00  0.00    +0.051 A 
ATOM     13  C   UNL     1      -2.820   3.094   1.526  0.00  0.00    -0.057 A 
ATOM     14  O   UNL     1      -4.007   5.516   3.975  0.00  0.00    -0.488 OA
ATOM     15  C   UNL     1      -4.020   5.218   5.372  0.00  0.00    +0.232 C 
ATOM     16  C   UNL     1      -5.435   4.938   5.851  0.00  0.00    +0.082 C 
ATOM     17  C   UNL     1      -6.024   3.687   5.217  0.00  0.00    +0.232 C 
ATOM     18  O   UNL     1      -6.177   3.858   3.807  0.00  0.00    -0.488 OA
ENDBRANCH   2  13
ENDBRANCH   1   6
BRANCH   1  19
ATOM     19  C   UNL     1      -2.854   3.010  -2.842  0.00  0.00    +0.201 C 
ATOM     20  O   UNL     1      -2.969   1.818  -3.038  0.00  0.00    -0.278 OA
ATOM     21  N   UNL     1      -3.221   3.888  -3.796  0.00  0.00    -0.286 N 
ATOM     22  H   UNL     1      -3.191   4.841  -3.616  0.00  0.00    +0.155 HD
BRANCH  21  23
ATOM     23  C   UNL     1      -3.647   3.425  -5.048  0.00  0.00    +0.049 A 
ATOM     24  C   UNL     1      -4.365   2.242  -5.141  0.00  0.00    +0.052 A 
ATOM     25  C   UNL     1      -4.790   1.789  -6.380  0.00  0.00    +0.069 A 
ATOM     26  C   UNL     1      -4.483   2.518  -7.531  0.00  0.00    +0.068 A 
ATOM     27  C   UNL     1      -3.760   3.697  -7.433  0.00  0.00    +0.045 A 
ATOM     28  C   UNL     1      -3.343   4.149  -6.196  0.00  0.00    +0.041 A 
ATOM     29 BR   UNL     1      -2.357   5.757  -6.063  0.00  0.00    -0.048 Br
ATOM     30  N   UNL     1      -5.030   1.819  -8.607  0.00  0.00    -0.306 N 
ATOM     31  H   UNL     1      -4.979   2.083  -9.540  0.00  0.00    +0.170 HD
ATOM     32  C   UNL     1      -5.640   0.718  -8.131  0.00  0.00    +0.325 A 
ATOM     33  O   UNL     1      -6.219  -0.111  -8.809  0.00  0.00    -0.247 OA
ATOM     34  N   UNL     1      -5.512   0.671  -6.792  0.00  0.00    -0.306 N 
ATOM     35  H   UNL     1      -5.864  -0.022  -6.212  0.00  0.00    +0.170 HD
ENDBRANCH  21  23
ENDBRANCH   1  19
TORSDOF 4
