REMARK  Name = ZINC02946072
REMARK  10 active torsions:
REMARK  status: ('A' for Active; 'I' for Inactive)
REMARK    1  A    between atoms: C_1  and  C_2
REMARK    2  A    between atoms: C_2  and  O_3
REMARK    3  A    between atoms: O_3  and  C_4
REMARK    4  A    between atoms: C_7  and  C_27
REMARK    5  A    between atoms: C_9  and  C_10
REMARK    6  A    between atoms: C_10  and  N_11
REMARK    7  A    between atoms: N_28  and  N_29
REMARK    8  A    between atoms: C_30  and  C_32
REMARK    9  A    between atoms: C_35  and  N_38
REMARK   10  A    between atoms: C_39  and  C_41
REMARK                            x       y       z     vdW  Elec       q    Type
REMARK                         _______ _______ _______ _____ _____    ______ ____
ROOT
ATOM      1  C   UNL     1     -10.264   8.635  -0.567  0.00  0.00    +0.122 A 
ATOM      2  C   UNL     1     -10.183   7.254  -0.445  0.00  0.00    +0.046 A 
ATOM      3  C   UNL     1      -8.953   6.635  -0.404  0.00  0.00    +0.013 A 
ATOM      4  C   UNL     1      -7.786   7.398  -0.484  0.00  0.00    -0.005 A 
ATOM      5  C   UNL     1      -7.872   8.788  -0.601  0.00  0.00    +0.014 A 
ATOM      6  C   UNL     1      -9.106   9.399  -0.647  0.00  0.00    -0.022 A 
ENDROOT
BRANCH   4   7
ATOM      7  C   UNL     1      -6.467   6.740  -0.439  0.00  0.00    +0.138 C 
ATOM      8  N   UNL     1      -6.390   5.450  -0.325  0.00  0.00    -0.187 NA
BRANCH   8   9
ATOM      9  N   UNL     1      -5.137   4.824  -0.282  0.00  0.00    -0.203 N 
ATOM     10  C   UNL     1      -5.056   3.484  -0.164  0.00  0.00    +0.263 C 
ATOM     11  O   UNL     1      -6.071   2.818  -0.093  0.00  0.00    -0.268 OA
ATOM     12  H   UNL     1      -4.219   5.427  -0.345  0.00  0.00    +0.178 HD
BRANCH  10  13
ATOM     13  C   UNL     1      -3.736   2.825  -0.118  0.00  0.00    +0.038 A 
ATOM     14  C   UNL     1      -3.651   1.436   0.004  0.00  0.00    +0.015 A 
ATOM     15  C   UNL     1      -2.418   0.824   0.045  0.00  0.00    +0.024 A 
ATOM     16  C   UNL     1      -1.258   1.588  -0.035  0.00  0.00    +0.033 A 
ATOM     17  C   UNL     1      -1.339   2.972  -0.152  0.00  0.00    +0.024 A 
ATOM     18  C   UNL     1      -2.569   3.590  -0.199  0.00  0.00    +0.015 A 
BRANCH  16  19
ATOM     19  N   UNL     1      -0.011   0.966   0.007  0.00  0.00    -0.286 N 
ATOM     20  C   UNL     1       1.026   1.575   0.617  0.00  0.00    +0.214 C 
ATOM     21  O   UNL     1       0.895   2.696   1.060  0.00  0.00    -0.276 OA
ATOM     22  C   UNL     1       2.347   0.862   0.748  0.00  0.00    +0.109 C 
ATOM     23  H   UNL     1       0.127  -0.022  -0.457  0.00  0.00    +0.155 HD
ENDBRANCH  16  19
ENDBRANCH  10  13
ENDBRANCH   8   9
ENDBRANCH   4   7
BRANCH   1  24
ATOM     24  O   UNL     1     -11.479   9.242  -0.608  0.00  0.00    -0.492 OA
BRANCH  24  26
ATOM     25  C   UNL     1     -13.895   9.253  -0.583  0.00  0.00    +0.048 C 
ATOM     26  C   UNL     1     -12.629   8.398  -0.521  0.00  0.00    +0.225 C 
ENDBRANCH  24  26
ENDBRANCH   1  24
BRANCH   6  27
ATOM     27  C   UNL     1      -9.200  10.897  -0.778  0.00  0.00    -0.039 C 
BRANCH  27  28
ATOM     28  N   UNL     1      -9.457  11.489   0.542  0.00  0.00    +0.383 N 
ATOM     29  C   UNL     1     -10.689  10.952   1.129  0.00  0.00    -0.073 C 
ATOM     30  C   UNL     1     -10.988  11.605   2.469  0.00  0.00    -0.007 C 
ATOM     31  C   UNL     1      -9.799  11.460   3.423  0.00  0.00    +0.011 C 
ATOM     32  C   UNL     1      -8.576  12.077   2.734  0.00  0.00    +0.020 C 
ATOM     33  C   UNL     1      -8.310  11.287   1.442  0.00  0.00    -0.069 C 
ATOM     34  C   UNL     1      -8.895  13.501   2.339  0.00  0.00    +0.023 A 
ATOM     35  C   UNL     1      -7.854  14.370   2.242  0.00  0.00    +0.022 A 
ATOM     36  C   UNL     1      -8.064  15.688   1.821  0.00  0.00    +0.007 A 
ATOM     37  C   UNL     1      -9.328  16.079   1.489  0.00  0.00    +0.070 A 
ATOM     38  C   UNL     1     -10.379  15.159   1.603  0.00  0.00    +0.251 A 
ATOM     39  O   UNL     1     -11.505  15.485   1.265  0.00  0.00    -0.268 OA
ATOM     40  N   UNL     1     -10.159  13.910   2.085  0.00  0.00    -0.312 N 
ATOM     41  C   UNL     1     -11.338  13.076   2.320  0.00  0.00    +0.126 C 
ATOM     42  H   UNL     1      -9.595  12.572   0.407  0.00  0.00    -0.081 HD
ENDBRANCH  27  28
ENDBRANCH   6  27
TORSDOF 8
