REMARK  Name = ZINC06798789
REMARK  8 active torsions:
REMARK  status: ('A' for Active; 'I' for Inactive)
REMARK    1  A    between atoms: C_1  and  N_45
REMARK    2  A    between atoms: C_2  and  N_45
REMARK    3  A    between atoms: C_3  and  C_4
REMARK    4  A    between atoms: C_3  and  N_45
REMARK    5  A    between atoms: C_4  and  N_5
REMARK    6  A    between atoms: C_6  and  C_8
REMARK    7  A    between atoms: C_9  and  S_18
REMARK    8  A    between atoms: S_18  and  C_19
REMARK                            x       y       z     vdW  Elec       q    Type
REMARK                         _______ _______ _______ _____ _____    ______ ____
ROOT
ATOM      1  C   UNL     1       2.509   2.248  -1.117  0.00  0.00    +0.117 A 
ATOM      2  C   UNL     1       1.709   2.087  -0.003  0.00  0.00    +0.050 A 
ATOM      3  C   UNL     1       2.580   2.251   1.165  0.00  0.00    +0.014 A 
ATOM      4  C   UNL     1       2.359   2.192   2.544  0.00  0.00    +0.011 A 
ATOM      5  C   UNL     1       3.400   2.384   3.407  0.00  0.00    +0.001 A 
ATOM      6  C   UNL     1       4.679   2.630   2.925  0.00  0.00    +0.002 A 
ATOM      7  C   UNL     1       4.921   2.687   1.571  0.00  0.00    +0.026 A 
ATOM      8  C   UNL     1       3.874   2.494   0.671  0.00  0.00    +0.048 A 
ATOM      9  N   UNL     1       3.812   2.493  -0.703  0.00  0.00    -0.350 N 
ATOM     10  H   UNL     1       4.566   2.640  -1.295  0.00  0.00    +0.166 HD
ENDROOT
BRANCH   1  12
ATOM     11  N   UNL     1       2.953   2.350  -3.468  0.00  0.00    -0.312 N 
ATOM     12  C   UNL     1       2.072   2.175  -2.463  0.00  0.00    +0.261 C 
ATOM     13  O   UNL     1       0.900   1.954  -2.712  0.00  0.00    -0.269 OA
ATOM     14  H   UNL     1       3.886   2.526  -3.270  0.00  0.00    +0.149 HD
BRANCH  11  15
ATOM     15  C   UNL     1       2.501   2.275  -4.860  0.00  0.00    +0.086 C 
BRANCH  15  16
ATOM     16  C   UNL     1       3.688   2.508  -5.795  0.00  0.00    -0.061 C 
BRANCH  16  19
ATOM     17  C   UNL     1       2.319   3.537  -7.507  0.00  0.00    -0.097 C 
ATOM     18  C   UNL     1       4.377   2.415  -8.115  0.00  0.00    -0.097 C 
ATOM     19  N   UNL     1       3.221   2.408  -7.194  0.00  0.00    +0.377 N 
ATOM     20  H   UNL     1       2.706   1.527  -7.311  0.00  0.00    -0.083 HD
ENDBRANCH  16  19
ENDBRANCH  15  16
ENDBRANCH  11  15
ENDBRANCH   1  12
BRANCH   2  21
ATOM     21  S   UNL     1      -0.022   1.758   0.012  0.00  0.00    -0.087 S 
BRANCH  21  22
ATOM     22  C   UNL     1       0.002  -0.004   0.002  0.00  0.00    +0.013 A 
ATOM     23  C   UNL     1       1.214  -0.684  -0.019  0.00  0.00    +0.016 A 
ATOM     24  C   UNL     1       1.230  -2.064  -0.020  0.00  0.00    +0.021 A 
ATOM     25  C   UNL     1       0.040  -2.771  -0.013  0.00  0.00    +0.041 A 
ATOM     26  C   UNL     1      -1.169  -2.097   0.002  0.00  0.00    +0.021 A 
ATOM     27  C   UNL     1      -1.191  -0.717   0.010  0.00  0.00    +0.016 A 
ATOM     28 CL   UNL     1       0.063  -4.507  -0.023  0.00  0.00    -0.084 Cl
ENDBRANCH  21  22
ENDBRANCH   2  21
TORSDOF 6
