REMARK  Name = ZINC08789972
REMARK  9 active torsions:
REMARK  status: ('A' for Active; 'I' for Inactive)
REMARK    1  A    between atoms: C_1  and  C_2
REMARK    2  A    between atoms: N_4  and  C_5
REMARK    3  A    between atoms: C_7  and  O_42
REMARK    4  A    between atoms: C_9  and  O_41
REMARK    5  A    between atoms: C_11  and  C_39
REMARK    6  A    between atoms: C_14  and  O_16
REMARK    7  A    between atoms: O_16  and  C_17
REMARK    8  A    between atoms: C_31  and  C_38
REMARK    9  A    between atoms: C_39  and  O_40
REMARK                            x       y       z     vdW  Elec       q    Type
REMARK                         _______ _______ _______ _____ _____    ______ ____
ROOT
ATOM      1  O   UNL     1      -2.005  -2.004   0.308  0.00  0.00    -0.462 OA
ENDROOT
BRANCH   1   2
ATOM      2  C   UNL     1      -3.302  -2.347   0.526  0.00  0.00    +0.124 A 
ATOM      3  C   UNL     1      -4.012  -3.042  -0.443  0.00  0.00    +0.046 A 
ATOM      4  C   UNL     1      -5.326  -3.387  -0.210  0.00  0.00    +0.008 A 
ATOM      5  C   UNL     1      -5.947  -3.043   0.984  0.00  0.00    -0.041 A 
ATOM      6  C   UNL     1      -5.247  -2.348   1.945  0.00  0.00    -0.040 A 
ATOM      7  C   UNL     1      -3.920  -2.008   1.718  0.00  0.00    +0.049 A 
ATOM      8  C   UNL     1      -5.862  -1.927   3.255  0.00  0.00    +0.036 C 
ATOM      9  C   UNL     1      -7.140  -2.718   3.530  0.00  0.00    +0.009 C 
ATOM     10  C   UNL     1      -8.029  -2.647   2.287  0.00  0.00    +0.001 C 
ATOM     11  C   UNL     1      -7.384  -3.460   1.173  0.00  0.00    +0.023 C 
ATOM     12  C   UNL     1      -7.421  -4.943   1.561  0.00  0.00    +0.009 C 
ATOM     13  C   UNL     1      -8.878  -5.379   1.689  0.00  0.00    +0.015 C 
ATOM     14  C   UNL     1      -9.575  -4.608   2.813  0.00  0.00    +0.029 C 
ATOM     15  C   UNL     1      -9.430  -3.107   2.589  0.00  0.00    +0.006 C 
ATOM     16  C   UNL     1     -10.408  -2.833   1.429  0.00  0.00    +0.012 C 
ATOM     17  C   UNL     1     -11.593  -3.777   1.741  0.00  0.00    +0.075 C 
ATOM     18  C   UNL     1     -11.074  -4.849   2.646  0.00  0.00    +0.139 C 
ATOM     19  O   UNL     1     -11.716  -5.748   3.134  0.00  0.00    -0.297 OA
ATOM     20  C   UNL     1      -9.079  -5.049   4.192  0.00  0.00    +0.019 C 
ENDBRANCH   1   2
BRANCH   1  26
ATOM     21  C   UNL     1      -0.021  -1.812  -1.059  0.00  0.00    +0.173 C 
ATOM     22  C   UNL     1       0.608  -2.277  -2.376  0.00  0.00    +0.172 C 
ATOM     23  C   UNL     1       0.597  -3.808  -2.422  0.00  0.00    +0.176 C 
ATOM     24  C   UNL     1      -0.841  -4.306  -2.257  0.00  0.00    +0.179 C 
ATOM     25  O   UNL     1      -1.376  -3.813  -1.027  0.00  0.00    -0.332 OA
ATOM     26  C   UNL     1      -1.435  -2.387  -0.945  0.00  0.00    +0.331 C 
BRANCH  21  30
ATOM     27  C   UNL     1      -0.177   1.811   0.166  0.00  0.00    +0.109 C 
ATOM     28  C   UNL     1      -0.112   0.306   0.142  0.00  0.00    +0.210 C 
ATOM     29  O   UNL     1      -0.086  -0.317   1.183  0.00  0.00    -0.276 OA
ATOM     30  N   UNL     1      -0.084  -0.349  -1.035  0.00  0.00    -0.304 N 
ATOM     31  H   UNL     1      -0.105   0.149  -1.868  0.00  0.00    +0.149 HD
ENDBRANCH  21  30
BRANCH  23  32
ATOM     32  O   UNL     1       1.116  -4.251  -3.678  0.00  0.00    -0.387 OA
ATOM     33  H   UNL     1       1.139  -5.213  -3.776  0.00  0.00    +0.210 HD
ENDBRANCH  23  32
BRANCH  22  34
ATOM     34  O   UNL     1       1.954  -1.804  -2.457  0.00  0.00    -0.387 OA
ATOM     35  H   UNL     1       2.413  -2.061  -3.268  0.00  0.00    +0.210 HD
ENDBRANCH  22  34
BRANCH  24  36
ATOM     36  C   UNL     1      -0.853  -5.836  -2.242  0.00  0.00    +0.190 C 
BRANCH  36  37
ATOM     37  O   UNL     1      -2.203  -6.301  -2.205  0.00  0.00    -0.392 OA
ATOM     38  H   UNL     1      -2.287  -7.265  -2.194  0.00  0.00    +0.210 HD
ENDBRANCH  36  37
ENDBRANCH  24  36
ENDBRANCH   1  26
TORSDOF 7
