REMARK  Name = ZINC19775790
REMARK  7 active torsions:
REMARK  status: ('A' for Active; 'I' for Inactive)
REMARK    1  A    between atoms: C_1  and  C_2
REMARK    2  A    between atoms: C_7  and  C_9
REMARK    3  A    between atoms: C_7  and  C_10
REMARK    4  A    between atoms: N_11  and  C_13
REMARK    5  A    between atoms: C_13  and  C_14
REMARK    6  A    between atoms: N_16  and  C_17
REMARK    7  A    between atoms: C_20  and  N_24
REMARK                            x       y       z     vdW  Elec       q    Type
REMARK                         _______ _______ _______ _____ _____    ______ ____
ROOT
ATOM      1  C   UNL     1      -3.571  -2.523  -0.499  0.00  0.00    +0.201 C 
ATOM      2  O   UNL     1      -3.942  -1.402  -0.780  0.00  0.00    -0.278 OA
ATOM      3  N   UNL     1      -4.465  -3.446  -0.093  0.00  0.00    -0.286 N 
ATOM      4  H   UNL     1      -4.180  -4.359   0.069  0.00  0.00    +0.155 HD
ENDROOT
BRANCH   3   5
ATOM      5  C   UNL     1      -5.807  -3.087   0.095  0.00  0.00    +0.052 A 
ATOM      6  C   UNL     1      -6.395  -2.139  -0.732  0.00  0.00    +0.026 A 
ATOM      7  C   UNL     1      -7.717  -1.786  -0.547  0.00  0.00    +0.024 A 
ATOM      8  C   UNL     1      -8.459  -2.378   0.466  0.00  0.00    +0.026 A 
ATOM      9  C   UNL     1      -7.873  -3.327   1.293  0.00  0.00    +0.044 A 
ATOM     10  C   UNL     1      -6.551  -3.685   1.104  0.00  0.00    +0.064 A 
ATOM     11 CL   UNL     1      -5.819  -4.876   2.134  0.00  0.00    -0.082 Cl
BRANCH   8  12
ATOM     12  N   UNL     1      -9.798  -2.019   0.653  0.00  0.00    -0.358 N 
ATOM     13  H   UNL     1     -10.208  -1.356   0.076  0.00  0.00    +0.142 HD
ATOM     14  H   UNL     1     -10.317  -2.433   1.361  0.00  0.00    +0.142 HD
ENDBRANCH   8  12
ENDBRANCH   3   5
BRANCH   1  15
ATOM     15  C   UNL     1      -2.111  -2.882  -0.604  0.00  0.00    +0.019 C 
BRANCH  15  25
ATOM     16  C   UNL     1      -0.008   1.523  -0.019  0.00  0.00    +0.009 C 
ATOM     17  C   UNL     1       0.009  -0.013  -0.029  0.00  0.00    -0.048 C 
ATOM     18  C   UNL     1       0.706  -0.588  -1.292  0.00  0.00    -0.011 C 
ATOM     19  C   UNL     1       0.071  -2.007  -1.307  0.00  0.00    -0.067 C 
ATOM     20  C   UNL     1       0.703  -2.808  -0.186  0.00  0.00    -0.009 C 
ATOM     21  C   UNL     1       0.882  -2.111   1.145  0.00  0.00    -0.036 C 
ATOM     22  C   UNL     1       0.742  -0.602   1.177  0.00  0.00    +0.011 C 
ATOM     23  C   UNL     1      -0.078  -2.728   2.180  0.00  0.00    +0.011 C 
ATOM     24  C   UNL     1       2.313  -2.443   1.644  0.00  0.00    +0.011 C 
ATOM     25  N   UNL     1      -1.357  -1.721  -1.060  0.00  0.00    +0.388 N 
ATOM     26  C   UNL     1      -1.412  -0.617  -0.084  0.00  0.00    -0.071 C 
ATOM     27  H   UNL     1      -1.771  -1.388  -1.934  0.00  0.00    -0.081 HD
ENDBRANCH  15  25
ENDBRANCH   1  15
TORSDOF 4
