REMARK  Name = ZINC54591885
REMARK  10 active torsions:
REMARK  status: ('A' for Active; 'I' for Inactive)
REMARK    1  A    between atoms: C_1  and  C_2
REMARK    2  A    between atoms: C_7  and  N_8
REMARK    3  A    between atoms: N_8  and  C_9
REMARK    4  A    between atoms: C_12  and  C_32
REMARK    5  A    between atoms: C_14  and  C_22
REMARK    6  A    between atoms: C_16  and  C_20
REMARK    7  A    between atoms: C_16  and  O_21
REMARK    8  A    between atoms: N_24  and  C_25
REMARK    9  A    between atoms: C_30  and  C_31
REMARK   10  A    between atoms: C_37  and  N_38
REMARK                            x       y       z     vdW  Elec       q    Type
REMARK                         _______ _______ _______ _____ _____    ______ ____
ROOT
ATOM      1  C   UNL     1      -1.152   0.203   3.990  0.00  0.00    +0.248 C 
ATOM      2  O   UNL     1      -1.261  -1.080   3.587  0.00  0.00    -0.270 OA
ATOM      3  C   UNL     1      -0.578   0.496   5.208  0.00  0.00    +0.065 C 
ATOM      4  C   UNL     1      -0.021  -0.632   6.030  0.00  0.00    +0.074 C 
ATOM      5  C   UNL     1       0.166  -0.182   7.480  0.00  0.00    +0.119 C 
ATOM      6  C   UNL     1       0.949   1.135   7.490  0.00  0.00    +0.082 C 
ATOM      7  C   UNL     1       0.054   2.243   6.931  0.00  0.00    +0.114 C 
ATOM      8  C   UNL     1      -0.534   1.815   5.617  0.00  0.00    +0.168 C 
ATOM      9  O   UNL     1      -0.996   2.667   4.882  0.00  0.00    -0.292 OA
ATOM     10  C   UNL     1       1.357   1.479   8.924  0.00  0.00    +0.042 C 
ENDROOT
BRANCH   4  11
ATOM     11  C   UNL     1      -0.976  -1.797   5.990  0.00  0.00    -0.009 A 
ATOM     12  C   UNL     1      -2.334  -1.574   5.864  0.00  0.00    +0.006 A 
ATOM     13  C   UNL     1      -3.210  -2.643   5.827  0.00  0.00    +0.000 A 
ATOM     14  C   UNL     1      -2.727  -3.936   5.915  0.00  0.00    +0.002 A 
ATOM     15  C   UNL     1      -1.368  -4.159   6.040  0.00  0.00    +0.033 A 
ATOM     16  C   UNL     1      -0.492  -3.089   6.073  0.00  0.00    +0.130 A 
BRANCH  16  17
ATOM     17  N   UNL     1       0.963  -3.328   6.201  0.00  0.00    +0.057 N 
ATOM     18  O   UNL     1       1.397  -4.456   6.154  0.00  0.00    -0.126 OA
ATOM     19  O   UNL     1       1.717  -2.396   6.353  0.00  0.00    -0.126 OA
ENDBRANCH  16  17
ENDBRANCH   4  11
BRANCH   5  20
ATOM     20  C   UNL     1      -1.181   0.022   8.123  0.00  0.00    +0.224 C 
ATOM     21  O   UNL     1      -1.908   0.914   7.738  0.00  0.00    -0.275 OA
ATOM     22  N   UNL     1      -1.578  -0.785   9.127  0.00  0.00    -0.285 N 
ATOM     23  H   UNL     1      -0.966  -1.443   9.491  0.00  0.00    +0.155 HD
BRANCH  22  24
ATOM     24  C   UNL     1      -2.873  -0.673   9.645  0.00  0.00    +0.036 A 
ATOM     25  C   UNL     1      -3.878  -0.086   8.886  0.00  0.00    +0.023 A 
ATOM     26  C   UNL     1      -5.155   0.024   9.399  0.00  0.00    +0.002 A 
ATOM     27  C   UNL     1      -5.435  -0.451  10.668  0.00  0.00    +0.000 A 
ATOM     28  C   UNL     1      -4.437  -1.035  11.426  0.00  0.00    +0.005 A 
ATOM     29  C   UNL     1      -3.159  -1.153  10.915  0.00  0.00    -0.029 A 
ATOM     30  C   UNL     1      -2.074  -1.797  11.740  0.00  0.00    +0.045 C 
ENDBRANCH  22  24
ENDBRANCH   5  20
BRANCH   1  31
ATOM     31  N   UNL     1      -1.612   1.212   3.190  0.00  0.00    -0.281 N 
ATOM     32  H   UNL     1      -1.009   1.914   2.900  0.00  0.00    +0.155 HD
BRANCH  31  39
ATOM     33  C   UNL     1      -2.522   3.427   1.654  0.00  0.00    +0.045 C 
ATOM     34  C   UNL     1      -3.438   2.294   2.039  0.00  0.00    -0.029 A 
ATOM     35  C   UNL     1      -4.760   2.308   1.641  0.00  0.00    +0.005 A 
ATOM     36  C   UNL     1      -5.601   1.268   1.993  0.00  0.00    +0.000 A 
ATOM     37  C   UNL     1      -5.121   0.211   2.745  0.00  0.00    +0.002 A 
ATOM     38  C   UNL     1      -3.800   0.192   3.147  0.00  0.00    +0.023 A 
ATOM     39  C   UNL     1      -2.951   1.232   2.790  0.00  0.00    +0.037 A 
ENDBRANCH  31  39
ENDBRANCH   1  31
BRANCH   6  40
ATOM     40  O   UNL     1       2.116   1.005   6.675  0.00  0.00    -0.388 OA
ATOM     41  H   UNL     1       2.659   1.804   6.636  0.00  0.00    +0.210 HD
ENDBRANCH   6  40
TORSDOF 7
