REMARK  Name = ZINC14836982
REMARK  14 active torsions:
REMARK  status: ('A' for Active; 'I' for Inactive)
REMARK    1  A    between atoms: C_1  and  C_2
REMARK    2  A    between atoms: C_2  and  C_3
REMARK    3  A    between atoms: C_3  and  C_4
REMARK    4  A    between atoms: C_4  and  O_5
REMARK    5  A    between atoms: O_5  and  C_6
REMARK    6  A    between atoms: C_9  and  C_13
REMARK    7  A    between atoms: N_15  and  C_16
REMARK    8  A    between atoms: C_16  and  N_18
REMARK    9  A    between atoms: N_18  and  C_19
REMARK   10  A    between atoms: C_22  and  C_25
REMARK   11  A    between atoms: N_27  and  C_28
REMARK   12  A    between atoms: C_28  and  C_29
REMARK   13  A    between atoms: C_28  and  C_30
REMARK   14  A    between atoms: C_28  and  C_31
REMARK                            x       y       z     vdW  Elec       q    Type
REMARK                         _______ _______ _______ _____ _____    ______ ____
ROOT
ATOM      1  C   UNL     1      -6.018  -2.606  -0.087  0.00  0.00    +0.141 C 
ATOM      2  S   UNL     1      -4.526  -3.446  -0.099  0.00  0.00    -0.018 S 
ENDROOT
BRANCH   1   5
ATOM      3  C   UNL     1      -7.161  -4.630  -0.296  0.00  0.00    +0.250 C 
ATOM      4  O   UNL     1      -6.102  -5.227  -0.305  0.00  0.00    -0.270 OA
ATOM      5  N   UNL     1      -7.176  -3.287  -0.186  0.00  0.00    -0.264 N 
ATOM      6  H   UNL     1      -8.021  -2.811  -0.179  0.00  0.00    +0.157 HD
BRANCH   3  10
ATOM      7  C   UNL     1     -10.812  -6.777  -0.609  0.00  0.00    +0.134 A 
ATOM      8  C   UNL     1     -10.829  -5.391  -0.496  0.00  0.00    +0.047 A 
ATOM      9  C   UNL     1      -9.648  -4.692  -0.390  0.00  0.00    +0.017 A 
ATOM     10  C   UNL     1      -8.429  -5.376  -0.405  0.00  0.00    +0.038 A 
ATOM     11  C   UNL     1      -8.415  -6.769  -0.519  0.00  0.00    +0.032 A 
ATOM     12  C   UNL     1      -9.602  -7.462  -0.620  0.00  0.00    +0.060 A 
ATOM     13 BR   UNL     1      -9.585  -9.346  -0.775  0.00  0.00    -0.046 Br
BRANCH   7  14
ATOM     14  O   UNL     1     -11.979  -7.462  -0.710  0.00  0.00    -0.491 OA
BRANCH  14  15
ATOM     15  C   UNL     1     -13.185  -6.696  -0.692  0.00  0.00    +0.229 C 
BRANCH  15  16
ATOM     16  C   UNL     1     -14.387  -7.634  -0.815  0.00  0.00    +0.041 C 
BRANCH  16  18
ATOM     17  C   UNL     1     -16.881  -7.753  -0.918  0.00  0.00    +0.004 C 
ATOM     18  C   UNL     1     -15.678  -6.814  -0.796  0.00  0.00    -0.000 C 
ENDBRANCH  16  18
ENDBRANCH  15  16
ENDBRANCH  14  15
ENDBRANCH   7  14
ENDBRANCH   3  10
ENDBRANCH   1   5
BRANCH   1  19
ATOM     19  N   UNL     1      -6.033  -1.262   0.023  0.00  0.00    -0.297 N 
ATOM     20  H   UNL     1      -6.877  -0.793   0.111  0.00  0.00    +0.154 HD
BRANCH  19  21
ATOM     21  C   UNL     1      -4.837  -0.548   0.010  0.00  0.00    +0.033 A 
ATOM     22  C   UNL     1      -3.833  -0.892  -0.891  0.00  0.00    +0.024 A 
ATOM     23  C   UNL     1      -2.650  -0.189  -0.906  0.00  0.00    +0.015 A 
ATOM     24  C   UNL     1      -2.457   0.872  -0.017  0.00  0.00    +0.037 A 
ATOM     25  C   UNL     1      -3.466   1.211   0.890  0.00  0.00    +0.015 A 
ATOM     26  C   UNL     1      -4.648   0.507   0.897  0.00  0.00    +0.024 A 
BRANCH  24  27
ATOM     27  C   UNL     1      -1.190   1.628  -0.031  0.00  0.00    +0.244 C 
ATOM     28  O   UNL     1      -0.312   1.329  -0.817  0.00  0.00    -0.270 OA
ATOM     29  N   UNL     1      -1.006   2.651   0.828  0.00  0.00    -0.307 N 
ATOM     30  H   UNL     1      -1.707   2.889   1.455  0.00  0.00    +0.150 HD
BRANCH  29  31
ATOM     31  C   UNL     1       0.254   3.397   0.818  0.00  0.00    +0.026 C 
ATOM     32  C   UNL     1       0.459   4.035  -0.557  0.00  0.00    +0.031 C 
ATOM     33  C   UNL     1       0.207   4.492   1.886  0.00  0.00    +0.031 C 
ATOM     34  C   UNL     1       1.414   2.445   1.116  0.00  0.00    +0.031 C 
ENDBRANCH  29  31
ENDBRANCH  24  27
ENDBRANCH  19  21
ENDBRANCH   1  19
TORSDOF 10
