REMARK  Name = ZINC39356191
REMARK  6 active torsions:
REMARK  status: ('A' for Active; 'I' for Inactive)
REMARK    1  A    between atoms: C_1  and  C_2
REMARK    2  A    between atoms: C_2  and  N_3
REMARK    3  A    between atoms: C_4  and  C_24
REMARK    4  A    between atoms: C_8  and  S_10
REMARK    5  A    between atoms: S_10  and  C_11
REMARK    6  A    between atoms: C_11  and  C_12
REMARK                            x       y       z     vdW  Elec       q    Type
REMARK                         _______ _______ _______ _____ _____    ______ ____
ROOT
ATOM      1  N   UNL     1      -1.337  -0.659   0.066  0.00  0.00    +0.410 N 
ATOM      2  C   UNL     1      -1.403  -2.136   0.161  0.00  0.00    +0.052 C 
ATOM      3  N   UNL     1      -2.637  -2.494  -0.586  0.00  0.00    -0.266 NA
ATOM      4  N   UNL     1      -2.632  -1.545  -1.710  0.00  0.00    -0.262 NA
ATOM      5  C   UNL     1      -2.123  -0.283  -1.127  0.00  0.00    +0.077 C 
ATOM      6  H   UNL     1      -3.457  -2.369  -0.011  0.00  0.00    +0.139 HD
ATOM      7  H   UNL     1      -2.032  -1.868  -2.454  0.00  0.00    +0.140 HD
ATOM      8  H   UNL     1      -1.739  -0.240   0.892  0.00  0.00    -0.075 HD
ENDROOT
BRANCH   2   9
ATOM      9  C   UNL     1      -1.510  -2.568   1.601  0.00  0.00    -0.011 A 
ATOM     10  C   UNL     1      -1.038  -1.746   2.606  0.00  0.00    +0.006 A 
ATOM     11  C   UNL     1      -1.136  -2.142   3.927  0.00  0.00    +0.000 A 
ATOM     12  C   UNL     1      -1.707  -3.360   4.244  0.00  0.00    +0.003 A 
ATOM     13  C   UNL     1      -2.181  -4.183   3.240  0.00  0.00    +0.038 A 
ATOM     14  C   UNL     1      -2.088  -3.785   1.917  0.00  0.00    +0.126 A 
ATOM     15  F   UNL     1      -2.555  -4.587   0.935  0.00  0.00    -0.205 F 
ENDBRANCH   2   9
BRANCH   1  17
ATOM     16  C   UNL     1       0.138   1.296   0.042  0.00  0.00    -0.017 C 
ATOM     17  C   UNL     1       0.058  -0.226  -0.091  0.00  0.00    -0.076 C 
ENDBRANCH   1  17
BRANCH   5  18
ATOM     18  S   UNL     1      -1.063   0.572  -2.326  0.00  0.00    -0.152 S 
BRANCH  18  19
ATOM     19  C   UNL     1      -2.234   1.323  -3.490  0.00  0.00    +0.143 C 
BRANCH  19  20
ATOM     20  C   UNL     1      -1.480   2.161  -4.490  0.00  0.00    +0.120 A 
ATOM     21  N   UNL     1      -2.189   2.813  -5.448  0.00  0.00    -0.310 N 
ATOM     22  H   UNL     1      -3.155   2.731  -5.471  0.00  0.00    +0.170 HD
ATOM     23  C   UNL     1      -1.559   3.579  -6.370  0.00  0.00    +0.259 A 
ATOM     24  O   UNL     1      -2.182   4.170  -7.233  0.00  0.00    -0.267 OA
ATOM     25  C   UNL     1      -0.094   3.668  -6.288  0.00  0.00    +0.065 A 
ATOM     26  C   UNL     1       0.650   4.428  -7.189  0.00  0.00    +0.015 A 
ATOM     27  C   UNL     1       2.021   4.477  -7.066  0.00  0.00    +0.001 A 
ATOM     28  C   UNL     1       2.665   3.776  -6.054  0.00  0.00    +0.002 A 
ATOM     29  C   UNL     1       1.949   3.019  -5.155  0.00  0.00    +0.028 A 
ATOM     30  C   UNL     1       0.558   2.954  -5.258  0.00  0.00    +0.078 A 
ATOM     31  N   UNL     1      -0.188   2.225  -4.390  0.00  0.00    -0.233 NA
ENDBRANCH  19  20
ENDBRANCH  18  19
ENDBRANCH   5  18
TORSDOF 5
