REMARK  Name = ZINC39657116
REMARK  9 active torsions:
REMARK  status: ('A' for Active; 'I' for Inactive)
REMARK    1  A    between atoms: C_1  and  C_2
REMARK    2  A    between atoms: C_2  and  C_4
REMARK    3  A    between atoms: C_2  and  N_11
REMARK    4  A    between atoms: C_12  and  C_14
REMARK    5  A    between atoms: C_25  and  C_27
REMARK    6  A    between atoms: C_29  and  O_35
REMARK    7  A    between atoms: C_32  and  O_33
REMARK    8  A    between atoms: O_33  and  C_34
REMARK    9  A    between atoms: O_35  and  C_36
REMARK                            x       y       z     vdW  Elec       q    Type
REMARK                         _______ _______ _______ _____ _____    ______ ____
ROOT
ATOM      1  C   UNL     1       2.777  -1.093   2.396  0.00  0.00    +0.100 C 
ATOM      2  C   UNL     1       2.678  -0.062   3.542  0.00  0.00    +0.121 C 
ATOM      3  N   UNL     1       3.999  -0.120   4.212  0.00  0.00    -0.296 N 
ATOM      4  C   UNL     1       4.970  -0.265   3.102  0.00  0.00    +0.115 C 
ATOM      5  C   UNL     1       4.282  -1.224   2.109  0.00  0.00    -0.004 C 
ATOM      6  C   UNL     1       4.585  -0.803   0.674  0.00  0.00    -0.010 C 
ATOM      7  C   UNL     1       6.078  -0.996   0.395  0.00  0.00    -0.082 C 
ATOM      8  N   UNL     1       6.438  -2.405   0.600  0.00  0.00    +0.379 N 
ATOM      9  C   UNL     1       6.231  -2.775   2.005  0.00  0.00    -0.082 C 
ATOM     10  C   UNL     1       4.744  -2.657   2.352  0.00  0.00    -0.010 C 
ATOM     11  C   UNL     1       4.258  -0.057   5.533  0.00  0.00    +0.250 C 
ATOM     12  O   UNL     1       3.341  -0.035   6.332  0.00  0.00    -0.270 OA
ATOM     13  H   UNL     1       5.861  -2.987   0.011  0.00  0.00    -0.086 HD
ATOM     14  H   UNL     1       7.408  -2.542   0.357  0.00  0.00    -0.086 HD
ENDROOT
BRANCH  11  15
ATOM     15  C   UNL     1       5.653  -0.012   6.010  0.00  0.00    +0.082 A 
ATOM     16  C   UNL     1       6.627   0.664   5.270  0.00  0.00    +0.062 A 
ATOM     17  C   UNL     1       7.932   0.702   5.723  0.00  0.00    +0.121 A 
ATOM     18  C   UNL     1       8.278   0.069   6.911  0.00  0.00    +0.049 A 
ATOM     19  C   UNL     1       7.323  -0.602   7.648  0.00  0.00    +0.050 A 
ATOM     20  C   UNL     1       6.008  -0.643   7.210  0.00  0.00    +0.132 A 
BRANCH  20  21
ATOM     21  O   UNL     1       5.068  -1.298   7.938  0.00  0.00    -0.494 OA
ATOM     22  C   UNL     1       5.502  -1.918   9.150  0.00  0.00    +0.277 C 
ENDBRANCH  20  21
BRANCH  17  23
ATOM     23  O   UNL     1       8.881   1.359   5.005  0.00  0.00    -0.495 OA
ATOM     24  C   UNL     1      10.210   1.359   5.530  0.00  0.00    +0.277 C 
ENDBRANCH  17  23
ENDBRANCH  11  15
BRANCH   1  26
ATOM     25  N   UNL     1       1.651  -1.459   0.224  0.00  0.00    -0.308 N 
ATOM     26  C   UNL     1       2.052  -0.591   1.174  0.00  0.00    +0.219 C 
ATOM     27  O   UNL     1       1.829   0.594   1.045  0.00  0.00    -0.275 OA
ATOM     28  H   UNL     1       1.829  -2.407   0.326  0.00  0.00    +0.149 HD
BRANCH  25  30
ATOM     29  C   UNL     1      -0.547  -0.846  -0.656  0.00  0.00    +0.033 C 
ATOM     30  C   UNL     1       0.946  -0.970  -0.964  0.00  0.00    +0.100 C 
BRANCH  30  31
ATOM     31  C   UNL     1       1.145  -1.940  -2.100  0.00  0.00    -0.027 A 
ATOM     32  C   UNL     1       1.110  -3.301  -1.861  0.00  0.00    +0.006 A 
ATOM     33  C   UNL     1       1.292  -4.191  -2.903  0.00  0.00    +0.015 A 
ATOM     34  C   UNL     1       1.508  -3.719  -4.186  0.00  0.00    +0.018 A 
ATOM     35  C   UNL     1       1.543  -2.357  -4.424  0.00  0.00    +0.015 A 
ATOM     36  C   UNL     1       1.356  -1.468  -3.383  0.00  0.00    +0.006 A 
ATOM     37 BR   UNL     1       1.758  -4.936  -5.611  0.00  0.00    -0.050 Br
ENDBRANCH  30  31
ENDBRANCH  25  30
ENDBRANCH   1  26
TORSDOF 6
