REMARK  Name = ZINC39916362
REMARK  3 active torsions:
REMARK  status: ('A' for Active; 'I' for Inactive)
REMARK    1  A    between atoms: C_1  and  O_2
REMARK    2  A    between atoms: O_2  and  C_3
REMARK    3  A    between atoms: C_6  and  C_9
REMARK                            x       y       z     vdW  Elec       q    Type
REMARK                         _______ _______ _______ _____ _____    ______ ____
ROOT
ATOM      1  C   UNL     1       2.587  -2.550   4.310  0.00  0.00    +0.156 C 
ATOM      2  C   UNL     1       3.986  -2.982   3.883  0.00  0.00    +0.149 C 
ATOM      3  C   UNL     1       4.534  -3.838   5.006  0.00  0.00    +0.034 C 
ATOM      4  C   UNL     1       5.834  -3.576   5.434  0.00  0.00    +0.014 A 
ATOM      5  C   UNL     1       6.465  -4.382   6.401  0.00  0.00    +0.011 A 
ATOM      6  C   UNL     1       7.752  -4.119   6.759  0.00  0.00    +0.001 A 
ATOM      7  C   UNL     1       8.457  -3.062   6.195  0.00  0.00    +0.002 A 
ATOM      8  C   UNL     1       7.892  -2.234   5.271  0.00  0.00    +0.024 A 
ATOM      9  C   UNL     1       6.565  -2.441   4.860  0.00  0.00    +0.042 A 
ATOM     10  N   UNL     1       5.997  -1.599   3.985  0.00  0.00    -0.284 N 
ATOM     11  C   UNL     1       4.779  -1.770   3.465  0.00  0.00    +0.228 C 
ATOM     12  O   UNL     1       4.307  -0.966   2.682  0.00  0.00    -0.275 OA
ATOM     13  N   UNL     1       3.742  -4.752   5.581  0.00  0.00    -0.289 N 
ATOM     14  C   UNL     1       2.389  -4.748   5.291  0.00  0.00    +0.186 C 
ATOM     15  N   UNL     1       1.822  -3.735   4.710  0.00  0.00    -0.246 NA
ATOM     16  N   UNL     1       1.625  -5.844   5.629  0.00  0.00    -0.266 N 
ATOM     17  C   UNL     1       0.271  -5.857   5.347  0.00  0.00    +0.165 A 
ATOM     18  N   UNL     1      -0.458  -4.933   4.763  0.00  0.00    -0.225 NA
ATOM     19  C   UNL     1      -1.783  -5.082   4.549  0.00  0.00    +0.080 A 
ATOM     20  C   UNL     1      -2.676  -4.172   3.938  0.00  0.00    +0.029 A 
ATOM     21  C   UNL     1      -4.004  -4.481   3.798  0.00  0.00    +0.002 A 
ATOM     22  C   UNL     1      -4.519  -5.688   4.248  0.00  0.00    +0.001 A 
ATOM     23  C   UNL     1      -3.674  -6.602   4.851  0.00  0.00    +0.017 A 
ATOM     24  C   UNL     1      -2.342  -6.301   4.995  0.00  0.00    +0.041 A 
ATOM     25  S   UNL     1      -0.931  -7.138   5.676  0.00  0.00    -0.052 S 
ATOM     26  H   UNL     1       4.112  -5.407   6.193  0.00  0.00    +0.155 HD
ATOM     27  H   UNL     1       2.037  -6.606   6.065  0.00  0.00    +0.157 HD
ATOM     28  H   UNL     1       6.504  -0.822   3.703  0.00  0.00    +0.155 HD
ENDROOT
BRANCH   1  32
ATOM     29  C   UNL     1       0.626  -0.618   1.042  0.00  0.00    +0.120 A 
ATOM     30  C   UNL     1       1.202   0.138   2.051  0.00  0.00    +0.046 A 
ATOM     31  C   UNL     1       1.835  -0.488   3.107  0.00  0.00    +0.009 A 
ATOM     32  C   UNL     1       1.895  -1.869   3.158  0.00  0.00    -0.022 A 
ATOM     33  C   UNL     1       1.322  -2.625   2.152  0.00  0.00    +0.009 A 
ATOM     34  C   UNL     1       0.682  -2.003   1.098  0.00  0.00    +0.046 A 
BRANCH  29  36
ATOM     35  C   UNL     1      -0.017   1.425   0.010  0.00  0.00    +0.277 C 
ATOM     36  O   UNL     1       0.002  -0.004   0.002  0.00  0.00    -0.495 OA
ENDBRANCH  29  36
ENDBRANCH   1  32
TORSDOF 2
