REMARK  Name = ZINC41139115
REMARK  7 active torsions:
REMARK  status: ('A' for Active; 'I' for Inactive)
REMARK    1  A    between atoms: C_4  and  N_7
REMARK    2  A    between atoms: N_10  and  C_13
REMARK    3  A    between atoms: C_13  and  C_14
REMARK    4  A    between atoms: C_14  and  C_15
REMARK    5  A    between atoms: C_15  and  C_17
REMARK    6  A    between atoms: C_15  and  O_24
REMARK    7  A    between atoms: C_22  and  N_23
REMARK                            x       y       z     vdW  Elec       q    Type
REMARK                         _______ _______ _______ _____ _____    ______ ____
ROOT
ATOM      1  C   UNL     1       6.750  -2.580  -2.031  0.00  0.00    -0.076 C 
ENDROOT
BRANCH   1   5
ATOM      2  N   UNL     1       3.620  -0.649  -0.036  0.00  0.00    -0.333 N 
ATOM      3  C   UNL     1       4.892   0.081  -0.149  0.00  0.00    +0.086 C 
ATOM      4  C   UNL     1       5.719  -0.554  -1.271  0.00  0.00    -0.060 C 
ATOM      5  N   UNL     1       5.867  -1.992  -1.016  0.00  0.00    +0.382 N 
ATOM      6  C   UNL     1       4.554  -2.648  -1.073  0.00  0.00    -0.060 C 
ATOM      7  C   UNL     1       3.669  -2.116   0.065  0.00  0.00    +0.086 C 
ATOM      8  H   UNL     1       6.270  -2.130  -0.101  0.00  0.00    -0.082 HD
BRANCH   2  12
ATOM      9  C   UNL     1      -0.017   1.379   0.011  0.00  0.00    +0.000 A 
ATOM     10  C   UNL     1       0.002  -0.004  -0.011  0.00  0.00    +0.002 A 
ATOM     11  C   UNL     1       1.206  -0.680  -0.027  0.00  0.00    +0.023 A 
ATOM     12  C   UNL     1       2.400   0.031  -0.021  0.00  0.00    +0.030 A 
ATOM     13  C   UNL     1       2.377   1.420   0.002  0.00  0.00    +0.023 A 
ATOM     14  C   UNL     1       1.170   2.089   0.018  0.00  0.00    +0.002 A 
ENDBRANCH   2  12
ENDBRANCH   1   5
BRANCH   1  15
ATOM     15  C   UNL     1       7.005  -4.051  -1.695  0.00  0.00    +0.018 C 
BRANCH  15  16
ATOM     16  C   UNL     1       7.926  -4.663  -2.753  0.00  0.00    +0.145 C 
BRANCH  16  17
ATOM     17  C   UNL     1       8.078  -6.140  -2.492  0.00  0.00    +0.001 A 
ATOM     18  C   UNL     1       9.151  -6.605  -1.757  0.00  0.00    +0.008 A 
ATOM     19  C   UNL     1       9.293  -7.959  -1.517  0.00  0.00    +0.000 A 
ATOM     20  C   UNL     1       8.360  -8.853  -2.012  0.00  0.00    +0.002 A 
ATOM     21  C   UNL     1       7.285  -8.395  -2.747  0.00  0.00    +0.023 A 
ATOM     22  C   UNL     1       7.137  -7.034  -2.985  0.00  0.00    +0.030 A 
BRANCH  22  23
ATOM     23  N   UNL     1       6.048  -6.567  -3.724  0.00  0.00    -0.358 N 
ATOM     24  H   UNL     1       5.948  -5.617  -3.893  0.00  0.00    +0.142 HD
ATOM     25  H   UNL     1       5.391  -7.192  -4.068  0.00  0.00    +0.142 HD
ENDBRANCH  22  23
ENDBRANCH  16  17
BRANCH  16  26
ATOM     26  O   UNL     1       9.207  -4.034  -2.692  0.00  0.00    -0.387 OA
ATOM     27  H   UNL     1       9.651  -4.128  -1.838  0.00  0.00    +0.210 HD
ENDBRANCH  16  26
ENDBRANCH  15  16
ENDBRANCH   1  15
TORSDOF 7
