REMARK  Name = ZINC02650623
REMARK  8 active torsions:
REMARK  status: ('A' for Active; 'I' for Inactive)
REMARK    1  A    between atoms: C_3  and  C_6
REMARK    2  A    between atoms: C_6  and  N_7
REMARK    3  A    between atoms: N_7  and  S_8
REMARK    4  A    between atoms: S_8  and  C_11
REMARK    5  A    between atoms: C_14  and  N_17
REMARK    6  A    between atoms: C_18  and  C_20
REMARK    7  A    between atoms: C_24  and  N_26
REMARK    8  A    between atoms: C_27  and  C_29
REMARK                            x       y       z     vdW  Elec       q    Type
REMARK                         _______ _______ _______ _____ _____    ______ ____
ROOT
ATOM      1  N   UNL     1       0.365  -0.309  -0.182  0.00  0.00    -0.282 N 
ATOM      2  C   UNL     1       0.344   0.922  -0.730  0.00  0.00    +0.248 C 
ATOM      3  O   UNL     1      -0.669   1.334  -1.261  0.00  0.00    -0.270 OA
ATOM      4  H   UNL     1       1.195  -0.671   0.164  0.00  0.00    +0.155 HD
ENDROOT
BRANCH   2   5
ATOM      5  C   UNL     1       1.554   1.770  -0.690  0.00  0.00    +0.039 A 
ATOM      6  C   UNL     1       2.719   1.299  -0.081  0.00  0.00    +0.014 A 
ATOM      7  C   UNL     1       3.849   2.089  -0.049  0.00  0.00    +0.022 A 
ATOM      8  C   UNL     1       3.830   3.354  -0.610  0.00  0.00    +0.062 A 
ATOM      9  C   UNL     1       2.673   3.834  -1.215  0.00  0.00    +0.053 A 
ATOM     10  C   UNL     1       1.534   3.045  -1.257  0.00  0.00    +0.037 A 
ATOM     11 CL   UNL     1       5.255   4.345  -0.560  0.00  0.00    -0.082 Cl
BRANCH   9  12
ATOM     12  N   UNL     1       2.658   5.113  -1.782  0.00  0.00    -0.280 N 
ATOM     13  C   UNL     1       1.538   5.861  -1.730  0.00  0.00    +0.255 C 
ATOM     14  O   UNL     1       0.515   5.392  -1.266  0.00  0.00    -0.269 OA
ATOM     15  H   UNL     1       3.454   5.462  -2.213  0.00  0.00    +0.155 HD
BRANCH  13  16
ATOM     16  C   UNL     1       1.552   7.237  -2.232  0.00  0.00    +0.074 A 
ATOM     17  C   UNL     1       0.522   8.164  -2.270  0.00  0.00    +0.021 A 
ATOM     18  C   UNL     1       0.810   9.398  -2.799  0.00  0.00    +0.008 A 
ATOM     19  C   UNL     1       2.066   9.649  -3.251  0.00  0.00    +0.046 A 
ATOM     20  S   UNL     1       2.902   8.161  -2.946  0.00  0.00    -0.092 S 
ENDBRANCH  13  16
ENDBRANCH   9  12
ENDBRANCH   2   5
BRANCH   1  24
ATOM     21  C   UNL     1      -3.135  -2.558   0.022  0.00  0.00    +0.105 A 
ATOM     22  C   UNL     1      -1.907  -3.193  -0.006  0.00  0.00    +0.030 A 
ATOM     23  C   UNL     1      -0.745  -2.451  -0.073  0.00  0.00    +0.025 A 
ATOM     24  C   UNL     1      -0.810  -1.064  -0.114  0.00  0.00    +0.034 A 
ATOM     25  C   UNL     1      -2.045  -0.428  -0.080  0.00  0.00    +0.025 A 
ATOM     26  C   UNL     1      -3.204  -1.177  -0.018  0.00  0.00    +0.030 A 
BRANCH  21  27
ATOM     27  S   UNL     1      -4.616  -3.509   0.109  0.00  0.00    +0.059 S 
ATOM     28  O   UNL     1      -5.652  -2.697  -0.427  0.00  0.00    -0.153 OA
ATOM     29  O   UNL     1      -4.305  -4.793  -0.415  0.00  0.00    -0.153 OA
BRANCH  27  30
ATOM     30  N   UNL     1      -4.966  -3.725   1.713  0.00  0.00    -0.183 NA
ATOM     31  H   UNL     1      -4.946  -4.615   2.098  0.00  0.00    +0.148 HD
BRANCH  30  32
ATOM     32  C   UNL     1      -5.306  -2.572   2.550  0.00  0.00    +0.180 C 
BRANCH  32  35
ATOM     33  C   UNL     1      -6.236  -3.752   5.915  0.00  0.00    +0.041 A 
ATOM     34  C   UNL     1      -5.267  -3.346   4.969  0.00  0.00    +0.046 A 
ATOM     35  C   UNL     1      -5.929  -3.051   3.836  0.00  0.00    +0.120 A 
ATOM     36  O   UNL     1      -7.241  -3.251   4.046  0.00  0.00    -0.466 OA
ATOM     37  C   UNL     1      -7.432  -3.682   5.304  0.00  0.00    +0.195 A 
ENDBRANCH  32  35
ENDBRANCH  30  32
ENDBRANCH  27  30
ENDBRANCH  21  27
ENDBRANCH   1  24
TORSDOF 8
