REMARK  Name = ZINC32644030
REMARK  13 active torsions:
REMARK  status: ('A' for Active; 'I' for Inactive)
REMARK    1  A    between atoms: C_1  and  C_2
REMARK    2  A    between atoms: C_2  and  C_38
REMARK    3  A    between atoms: C_4  and  N_11
REMARK    4  A    between atoms: C_6  and  C_9
REMARK    5  A    between atoms: C_6  and  C_10
REMARK    6  A    between atoms: N_7  and  C_8
REMARK    7  A    between atoms: C_12  and  C_14
REMARK    8  A    between atoms: N_24  and  S_25
REMARK    9  A    between atoms: S_25  and  C_28
REMARK   10  A    between atoms: C_31  and  O_36
REMARK   11  A    between atoms: C_32  and  O_34
REMARK   12  A    between atoms: O_34  and  C_35
REMARK   13  A    between atoms: O_36  and  C_37
REMARK                            x       y       z     vdW  Elec       q    Type
REMARK                         _______ _______ _______ _____ _____    ______ ____
ROOT
ATOM      1  C   UNL     1       0.191   8.130  -2.682  0.00  0.00    +0.170 C 
ATOM      2  C   UNL     1       1.517   8.827  -2.380  0.00  0.00    +0.065 C 
ATOM      3  C   UNL     1       1.552  10.203  -2.992  0.00  0.00    -0.041 A 
ATOM      4  C   UNL     1       2.465  11.114  -2.476  0.00  0.00    +0.004 A 
ATOM      5  C   UNL     1       2.556  12.388  -2.997  0.00  0.00    +0.000 A 
ATOM      6  C   UNL     1       1.732  12.764  -4.042  0.00  0.00    +0.000 A 
ATOM      7  C   UNL     1       0.822  11.862  -4.554  0.00  0.00    +0.005 A 
ATOM      8  C   UNL     1       0.726  10.581  -4.026  0.00  0.00    -0.028 A 
ATOM      9  C   UNL     1      -0.308   9.654  -4.614  0.00  0.00    +0.145 C 
ATOM     10  N   UNL     1      -0.087   8.291  -4.119  0.00  0.00    -0.160 NA
ENDROOT
BRANCH   1  12
ATOM     11  N   UNL     1      -0.571   6.112  -1.473  0.00  0.00    -0.311 N 
ATOM     12  C   UNL     1       0.296   6.666  -2.344  0.00  0.00    +0.232 C 
ATOM     13  O   UNL     1       1.161   5.986  -2.854  0.00  0.00    -0.274 OA
ATOM     14  H   UNL     1      -1.355   6.729  -1.010  0.00  0.00    +0.149 HD
BRANCH  11  18
ATOM     15  C   UNL     1       0.201   1.841  -2.217  0.00  0.00    -0.010 C 
ATOM     16  C   UNL     1      -1.183   2.384  -1.842  0.00  0.00    -0.069 C 
ATOM     17  C   UNL     1      -1.254   3.872  -2.173  0.00  0.00    +0.010 C 
ATOM     18  C   UNL     1      -0.469   4.684  -1.143  0.00  0.00    +0.070 C 
ATOM     19  C   UNL     1      -1.081   4.442   0.236  0.00  0.00    +0.010 C 
ATOM     20  C   UNL     1      -1.010   2.960   0.596  0.00  0.00    -0.069 C 
ATOM     21  N   UNL     1      -1.500   2.097  -0.459  0.00  0.00    +0.385 N 
ATOM     22  C   UNL     1      -1.331   0.674  -0.134  0.00  0.00    -0.095 C 
ATOM     23  C   UNL     1      -1.893   2.742   1.846  0.00  0.00    -0.010 C 
ATOM     24  C   UNL     1       0.427   2.596   0.987  0.00  0.00    -0.010 C 
ATOM     25  C   UNL     1      -2.215   1.659  -2.734  0.00  0.00    -0.010 C 
ATOM     26  H   UNL     1      -2.559   2.394  -0.454  0.00  0.00    -0.081 HD
ENDBRANCH  11  18
ENDBRANCH   1  12
BRANCH  10  27
ATOM     27  S   UNL     1      -0.150   6.984  -5.135  0.00  0.00    +0.062 S 
ATOM     28  O   UNL     1      -0.588   5.882  -4.353  0.00  0.00    -0.153 OA
ATOM     29  O   UNL     1      -0.837   7.411  -6.303  0.00  0.00    -0.153 OA
BRANCH  27  30
ATOM     30  C   UNL     1       1.504   6.627  -5.627  0.00  0.00    +0.109 A 
ATOM     31  C   UNL     1       2.149   7.452  -6.530  0.00  0.00    +0.032 A 
ATOM     32  C   UNL     1       3.448   7.178  -6.916  0.00  0.00    +0.051 A 
ATOM     33  C   UNL     1       4.104   6.070  -6.404  0.00  0.00    +0.162 A 
ATOM     34  C   UNL     1       3.453   5.238  -5.498  0.00  0.00    +0.163 A 
ATOM     35  C   UNL     1       2.153   5.520  -5.112  0.00  0.00    +0.078 A 
BRANCH  34  36
ATOM     36  O   UNL     1       4.093   4.149  -4.993  0.00  0.00    -0.491 OA
ATOM     37  C   UNL     1       3.363   3.339  -4.069  0.00  0.00    +0.277 C 
ENDBRANCH  34  36
BRANCH  33  38
ATOM     38  O   UNL     1       5.380   5.797  -6.785  0.00  0.00    -0.491 OA
ATOM     39  C   UNL     1       5.985   6.695  -7.718  0.00  0.00    +0.277 C 
ENDBRANCH  33  38
ENDBRANCH  27  30
ENDBRANCH  10  27
TORSDOF 6
