REMARK  Name = ZINC39696107
REMARK  7 active torsions:
REMARK  status: ('A' for Active; 'I' for Inactive)
REMARK    1  A    between atoms: C_1  and  C_2
REMARK    2  A    between atoms: C_2  and  C_3
REMARK    3  A    between atoms: C_6  and  C_9
REMARK    4  A    between atoms: C_9  and  C_11
REMARK    5  A    between atoms: C_9  and  N_12
REMARK    6  A    between atoms: C_13  and  C_15
REMARK    7  A    between atoms: C_26  and  C_28
REMARK                            x       y       z     vdW  Elec       q    Type
REMARK                         _______ _______ _______ _____ _____    ______ ____
ROOT
ATOM      1  C   UNL     1       6.455  -0.543  -6.193  0.00  0.00    +0.100 C 
ATOM      2  C   UNL     1       6.079   0.914  -5.843  0.00  0.00    +0.121 C 
ATOM      3  N   UNL     1       6.798   1.736  -6.844  0.00  0.00    -0.296 N 
ATOM      4  C   UNL     1       6.680   0.967  -8.106  0.00  0.00    +0.115 C 
ATOM      5  C   UNL     1       6.848  -0.504  -7.679  0.00  0.00    -0.004 C 
ATOM      6  C   UNL     1       5.919  -1.399  -8.495  0.00  0.00    -0.010 C 
ATOM      7  C   UNL     1       6.366  -1.390  -9.960  0.00  0.00    -0.082 C 
ATOM      8  N   UNL     1       7.750  -1.870 -10.055  0.00  0.00    +0.379 N 
ATOM      9  C   UNL     1       8.648  -0.952  -9.345  0.00  0.00    -0.082 C 
ATOM     10  C   UNL     1       8.298  -0.943  -7.854  0.00  0.00    -0.010 C 
ATOM     11  C   UNL     1       7.419   2.917  -6.652  0.00  0.00    +0.249 C 
ATOM     12  O   UNL     1       7.887   3.519  -7.598  0.00  0.00    -0.270 OA
ATOM     13  H   UNL     1       7.814  -2.788  -9.642  0.00  0.00    -0.086 HD
ATOM     14  H   UNL     1       8.021  -1.921 -11.025  0.00  0.00    -0.086 HD
ENDROOT
BRANCH  11  15
ATOM     15  C   UNL     1       7.531   3.479  -5.290  0.00  0.00    +0.073 A 
ATOM     16  C   UNL     1       6.499   3.293  -4.367  0.00  0.00    +0.016 A 
ATOM     17  C   UNL     1       6.609   3.819  -3.098  0.00  0.00    +0.002 A 
ATOM     18  C   UNL     1       7.739   4.531  -2.734  0.00  0.00    +0.023 A 
ATOM     19  C   UNL     1       8.767   4.721  -3.640  0.00  0.00    +0.077 A 
ATOM     20  C   UNL     1       8.672   4.194  -4.917  0.00  0.00    +0.154 A 
ATOM     21  F   UNL     1       9.678   4.374  -5.801  0.00  0.00    -0.203 F 
ATOM     22 CL   UNL     1      10.180   5.615  -3.174  0.00  0.00    -0.081 Cl
ENDBRANCH  11  15
BRANCH   1  24
ATOM     23  N   UNL     1       5.466  -2.746  -5.655  0.00  0.00    -0.308 N 
ATOM     24  C   UNL     1       5.272  -1.454  -5.986  0.00  0.00    +0.219 C 
ATOM     25  O   UNL     1       4.146  -1.025  -6.118  0.00  0.00    -0.275 OA
ATOM     26  H   UNL     1       6.367  -3.090  -5.550  0.00  0.00    +0.149 HD
BRANCH  23  27
ATOM     27  C   UNL     1       4.317  -3.632  -5.455  0.00  0.00    +0.100 C 
ATOM     28  C   UNL     1       3.867  -4.197  -6.803  0.00  0.00    +0.033 C 
BRANCH  27  32
ATOM     29  C   UNL     1       5.425  -6.843  -2.865  0.00  0.00    -0.048 A 
ATOM     30  C   UNL     1       4.184  -6.249  -2.737  0.00  0.00    +0.004 A 
ATOM     31  C   UNL     1       3.825  -5.210  -3.575  0.00  0.00    +0.006 A 
ATOM     32  C   UNL     1       4.708  -4.764  -4.540  0.00  0.00    -0.027 A 
ATOM     33  C   UNL     1       5.950  -5.357  -4.668  0.00  0.00    +0.006 A 
ATOM     34  C   UNL     1       6.311  -6.394  -3.827  0.00  0.00    +0.004 A 
BRANCH  29  36
ATOM     35  C   UNL     1       6.492  -7.412  -0.700  0.00  0.00    +0.009 C 
ATOM     36  C   UNL     1       5.816  -7.976  -1.951  0.00  0.00    +0.032 C 
ENDBRANCH  29  36
ENDBRANCH  27  32
ENDBRANCH  23  27
ENDBRANCH   1  24
TORSDOF 5
