REMARK  Name = ZINC20058879
REMARK  15 active torsions:
REMARK  status: ('A' for Active; 'I' for Inactive)
REMARK    1  A    between atoms: C_1  and  C_2
REMARK    2  A    between atoms: C_2  and  C_3
REMARK    3  A    between atoms: C_3  and  C_4
REMARK    4  A    between atoms: C_4  and  O_5
REMARK    5  A    between atoms: O_5  and  C_6
REMARK    6  A    between atoms: C_9  and  C_12
REMARK    7  A    between atoms: C_12  and  C_13
REMARK    8  A    between atoms: C_12  and  C_14
REMARK    9  A    between atoms: C_12  and  O_39
REMARK   10  A    between atoms: C_14  and  C_16
REMARK   11  A    between atoms: C_14  and  C_33
REMARK   12  A    between atoms: C_16  and  N_17
REMARK   13  A    between atoms: N_20  and  C_23
REMARK   14  A    between atoms: C_29  and  O_31
REMARK   15  A    between atoms: O_31  and  C_32
REMARK                            x       y       z     vdW  Elec       q    Type
REMARK                         _______ _______ _______ _____ _____    ______ ____
ROOT
ATOM      1  C   UNL     1      -4.667   3.328  -6.329  0.00  0.00    +0.038 C 
ENDROOT
BRANCH   1   2
ATOM      2  C   UNL     1      -4.086   1.945  -6.472  0.00  0.00    -0.043 A 
ATOM      3  C   UNL     1      -3.238   1.657  -7.525  0.00  0.00    +0.004 A 
ATOM      4  C   UNL     1      -2.701   0.390  -7.654  0.00  0.00    +0.000 A 
ATOM      5  C   UNL     1      -3.021  -0.592  -6.735  0.00  0.00    +0.000 A 
ATOM      6  C   UNL     1      -3.873  -0.306  -5.685  0.00  0.00    +0.000 A 
ATOM      7  C   UNL     1      -4.405   0.963  -5.554  0.00  0.00    +0.004 A 
ENDBRANCH   1   2
BRANCH   1   8
ATOM      8  C   UNL     1      -5.691   3.569  -7.440  0.00  0.00    +0.093 C 
ATOM      9  C   UNL     1      -6.267   4.980  -7.305  0.00  0.00    +0.047 C 
BRANCH   8  13
ATOM     10  C   UNL     1      -8.845   0.704  -7.115  0.00  0.00    +0.121 A 
ATOM     11  C   UNL     1      -8.496   1.216  -8.356  0.00  0.00    +0.046 A 
ATOM     12  C   UNL     1      -7.476   2.143  -8.459  0.00  0.00    +0.010 A 
ATOM     13  C   UNL     1      -6.803   2.559  -7.325  0.00  0.00    -0.016 A 
ATOM     14  C   UNL     1      -7.145   2.046  -6.088  0.00  0.00    +0.010 A 
ATOM     15  C   UNL     1      -8.168   1.124  -5.979  0.00  0.00    +0.046 A 
BRANCH  10  16
ATOM     16  O   UNL     1      -9.847  -0.207  -7.012  0.00  0.00    -0.492 OA
BRANCH  16  17
ATOM     17  C   UNL     1     -10.152  -0.691  -5.702  0.00  0.00    +0.229 C 
BRANCH  17  18
ATOM     18  C   UNL     1     -11.298  -1.701  -5.786  0.00  0.00    +0.041 C 
BRANCH  18  20
ATOM     19  C   UNL     1     -12.771  -3.229  -4.467  0.00  0.00    +0.004 C 
ATOM     20  C   UNL     1     -11.624  -2.219  -4.383  0.00  0.00    -0.000 C 
ENDBRANCH  18  20
ENDBRANCH  17  18
ENDBRANCH  16  17
ENDBRANCH  10  16
ENDBRANCH   8  13
BRANCH   8  21
ATOM     21  O   UNL     1      -5.054   3.434  -8.712  0.00  0.00    -0.384 OA
ATOM     22  H   UNL     1      -4.213   4.092  -8.978  0.00  0.00    +0.211 HD
ENDBRANCH   8  21
ENDBRANCH   1   8
BRANCH   1  23
ATOM     23  C   UNL     1      -3.546   4.365  -6.434  0.00  0.00    -0.067 C 
BRANCH  23  24
ATOM     24  N   UNL     1      -2.627   4.210  -5.298  0.00  0.00    +0.382 N 
ATOM     25  C   UNL     1      -1.417   5.022  -5.486  0.00  0.00    -0.063 C 
ATOM     26  C   UNL     1      -0.453   4.772  -4.324  0.00  0.00    +0.066 C 
ATOM     27  N   UNL     1      -1.119   5.109  -3.058  0.00  0.00    -0.300 NA
ATOM     28  C   UNL     1      -2.329   4.296  -2.870  0.00  0.00    +0.066 C 
ATOM     29  C   UNL     1      -3.293   4.547  -4.032  0.00  0.00    -0.063 C 
ATOM     30  H   UNL     1      -2.324   3.154  -5.253  0.00  0.00    -0.082 HD
BRANCH  27  31
ATOM     31  C   UNL     1      -0.200   4.954  -1.922  0.00  0.00    +0.085 C 
ATOM     32  C   UNL     1      -0.921   5.332  -0.627  0.00  0.00    +0.021 C 
ATOM     33  C   UNL     1       0.037   5.170   0.556  0.00  0.00    +0.002 C 
ATOM     34  C   UNL     1       1.248   6.085   0.360  0.00  0.00    +0.003 C 
ATOM     35  C   UNL     1       1.969   5.706  -0.935  0.00  0.00    +0.033 C 
ATOM     36  C   UNL     1       1.011   5.868  -2.118  0.00  0.00    +0.135 C 
BRANCH  36  37
ATOM     37  O   UNL     1       0.575   7.226  -2.195  0.00  0.00    -0.378 OA
ATOM     38  C   UNL     1       1.407   8.059  -3.005  0.00  0.00    +0.194 C 
ENDBRANCH  36  37
ENDBRANCH  27  31
ENDBRANCH  23  24
ENDBRANCH   1  23
TORSDOF 12
