REMARK  Name = ZINC65842730
REMARK  5 active torsions:
REMARK  status: ('A' for Active; 'I' for Inactive)
REMARK    1  A    between atoms: C_3  and  N_22
REMARK    2  A    between atoms: C_6  and  N_7
REMARK    3  A    between atoms: C_8  and  C_10
REMARK    4  A    between atoms: N_12  and  C_13
REMARK    5  A    between atoms: C_16  and  C_20
REMARK                            x       y       z     vdW  Elec       q    Type
REMARK                         _______ _______ _______ _____ _____    ______ ____
ROOT
ATOM      1  N   UNL     1      -1.235  -0.754   0.343  0.00  0.00    -0.278 N 
ATOM      2  C   UNL     1      -1.206  -2.073   0.067  0.00  0.00    +0.303 C 
ATOM      3  O   UNL     1      -0.143  -2.635  -0.098  0.00  0.00    -0.265 OA
ATOM      4  H   UNL     1      -2.078  -0.320   0.549  0.00  0.00    +0.155 HD
ENDROOT
BRANCH   1  10
ATOM      5  C   UNL     1       0.969  -0.342  -0.549  0.00  0.00    +0.025 A 
ATOM      6  C   UNL     1       2.138   0.392  -0.559  0.00  0.00    +0.028 A 
ATOM      7  C   UNL     1       2.295   1.460   0.315  0.00  0.00    +0.048 A 
ATOM      8  C   UNL     1       1.276   1.790   1.198  0.00  0.00    +0.028 A 
ATOM      9  C   UNL     1       0.106   1.057   1.208  0.00  0.00    +0.025 A 
ATOM     10  C   UNL     1      -0.051  -0.011   0.334  0.00  0.00    +0.034 A 
BRANCH   7  11
ATOM     11  N   UNL     1       3.484   2.205   0.306  0.00  0.00    -0.306 N 
ATOM     12  C   UNL     1       3.781   3.275   1.109  0.00  0.00    +0.112 A 
ATOM     13  C   UNL     1       5.017   3.687   0.769  0.00  0.00    +0.130 A 
ATOM     14  N   UNL     1       5.467   2.893  -0.214  0.00  0.00    -0.244 NA
ATOM     15  C   UNL     1       4.559   1.999  -0.497  0.00  0.00    +0.204 A 
ENDBRANCH   7  11
ENDBRANCH   1  10
BRANCH   2  16
ATOM     16  C   UNL     1      -2.481  -2.842  -0.036  0.00  0.00    +0.303 C 
ATOM     17  O   UNL     1      -3.544  -2.280   0.130  0.00  0.00    -0.265 OA
ATOM     18  N   UNL     1      -2.451  -4.161  -0.312  0.00  0.00    -0.278 N 
ATOM     19  H   UNL     1      -1.602  -4.626  -0.370  0.00  0.00    +0.155 HD
BRANCH  18  20
ATOM     20  C   UNL     1      -3.642  -4.857  -0.513  0.00  0.00    +0.035 A 
ATOM     21  C   UNL     1      -4.725  -4.221  -1.113  0.00  0.00    +0.024 A 
ATOM     22  C   UNL     1      -5.903  -4.905  -1.314  0.00  0.00    +0.022 A 
ATOM     23  C   UNL     1      -6.010  -6.241  -0.916  0.00  0.00    +0.070 A 
ATOM     24  C   UNL     1      -4.920  -6.878  -0.314  0.00  0.00    +0.060 A 
ATOM     25  C   UNL     1      -3.742  -6.188  -0.120  0.00  0.00    +0.044 A 
ATOM     26 CL   UNL     1      -5.047  -8.537   0.182  0.00  0.00    -0.082 Cl
BRANCH  23  27
ATOM     27  C   UNL     1      -7.234  -6.956  -1.123  0.00  0.00    +0.101 C 
ATOM     28  N   UNL     1      -8.204  -7.522  -1.288  0.00  0.00    -0.191 NA
ENDBRANCH  23  27
ENDBRANCH  18  20
ENDBRANCH   2  16
TORSDOF 5
