REMARK  Name = ZINC10209626
REMARK  9 active torsions:
REMARK  status: ('A' for Active; 'I' for Inactive)
REMARK    1  A    between atoms: C_1  and  C_2
REMARK    2  A    between atoms: C_2  and  C_4
REMARK    3  A    between atoms: C_2  and  O_16
REMARK    4  A    between atoms: N_6  and  C_7
REMARK    5  A    between atoms: C_10  and  N_13
REMARK    6  A    between atoms: O_16  and  C_17
REMARK    7  A    between atoms: C_17  and  C_19
REMARK    8  A    between atoms: N_22  and  S_25
REMARK    9  A    between atoms: S_25  and  C_28
REMARK                            x       y       z     vdW  Elec       q    Type
REMARK                         _______ _______ _______ _____ _____    ______ ____
ROOT
ATOM      1  O   UNL     1      -1.066   6.121   2.362  0.00  0.00    -0.452 OA
ENDROOT
BRANCH   1   3
ATOM      2  C   UNL     1      -0.272   8.319   3.046  0.00  0.00    +0.062 C 
ATOM      3  C   UNL     1      -1.003   7.046   3.478  0.00  0.00    +0.259 C 
BRANCH   3   4
ATOM      4  C   UNL     1      -2.400   7.396   3.921  0.00  0.00    +0.258 C 
ATOM      5  O   UNL     1      -3.356   6.912   3.352  0.00  0.00    -0.271 OA
ATOM      6  N   UNL     1      -2.588   8.246   4.950  0.00  0.00    -0.282 N 
ATOM      7  H   UNL     1      -1.826   8.580   5.449  0.00  0.00    +0.155 HD
BRANCH   6   8
ATOM      8  C   UNL     1      -3.883   8.646   5.300  0.00  0.00    +0.034 A 
ATOM      9  C   UNL     1      -4.110   9.932   5.770  0.00  0.00    +0.025 A 
ATOM     10  C   UNL     1      -5.390  10.326   6.108  0.00  0.00    +0.034 A 
ATOM     11  C   UNL     1      -6.443   9.437   5.990  0.00  0.00    +0.126 A 
ATOM     12  C   UNL     1      -6.219   8.154   5.527  0.00  0.00    +0.034 A 
ATOM     13  C   UNL     1      -4.942   7.756   5.181  0.00  0.00    +0.025 A 
BRANCH  11  14
ATOM     14  N   UNL     1      -7.812   9.861   6.359  0.00  0.00    +0.056 N 
ATOM     15  O   UNL     1      -8.740   9.079   6.255  0.00  0.00    -0.126 OA
ATOM     16  O   UNL     1      -8.011  10.991   6.767  0.00  0.00    -0.126 OA
ENDBRANCH  11  14
ENDBRANCH   6   8
ENDBRANCH   3   4
ENDBRANCH   1   3
BRANCH   1  17
ATOM     17  C   UNL     1      -0.052   5.250   2.233  0.00  0.00    +0.311 C 
ATOM     18  O   UNL     1       0.858   5.262   3.028  0.00  0.00    -0.251 OA
BRANCH  17  19
ATOM     19  C   UNL     1      -0.050   4.259   1.098  0.00  0.00    +0.100 C 
ATOM     20  C   UNL     1       1.208   3.392   1.182  0.00  0.00    +0.032 C 
ATOM     21  C   UNL     1       1.225   2.409   0.007  0.00  0.00    +0.110 C 
ATOM     22  N   UNL     1      -0.033   1.650   0.007  0.00  0.00    -0.176 NA
ATOM     23  C   UNL     1      -1.303   2.388   0.013  0.00  0.00    +0.110 C 
ATOM     24  C   UNL     1      -1.292   3.371   1.194  0.00  0.00    +0.032 C 
BRANCH  22  25
ATOM     25  S   UNL     1      -0.019  -0.006  -0.005  0.00  0.00    +0.067 S 
ATOM     26  O   UNL     1      -1.264  -0.419  -0.553  0.00  0.00    -0.152 OA
ATOM     27  O   UNL     1       1.227  -0.398  -0.566  0.00  0.00    -0.152 OA
BRANCH  25  28
ATOM     28  C   UNL     1      -0.006  -0.540   1.674  0.00  0.00    +0.143 A 
ATOM     29  C   UNL     1      -1.053  -0.802   2.494  0.00  0.00    +0.036 A 
ATOM     30  C   UNL     1      -0.803  -1.218   3.789  0.00  0.00    +0.010 A 
ATOM     31  C   UNL     1       0.482  -1.340   4.202  0.00  0.00    +0.047 A 
ATOM     32  S   UNL     1       1.389  -0.869   2.738  0.00  0.00    -0.077 S 
ENDBRANCH  25  28
ENDBRANCH  22  25
ENDBRANCH  17  19
ENDBRANCH   1  17
TORSDOF 8
