REMARK  Name = ZINC58086242
REMARK  7 active torsions:
REMARK  status: ('A' for Active; 'I' for Inactive)
REMARK    1  A    between atoms: N_7  and  C_8
REMARK    2  A    between atoms: C_8  and  C_9
REMARK    3  A    between atoms: C_9  and  C_10
REMARK    4  A    between atoms: C_10  and  N_11
REMARK    5  A    between atoms: N_14  and  C_15
REMARK    6  A    between atoms: C_19  and  C_21
REMARK    7  A    between atoms: C_21  and  N_22
REMARK                            x       y       z     vdW  Elec       q    Type
REMARK                         _______ _______ _______ _____ _____    ______ ____
ROOT
ATOM      1  N   UNL     1      -0.678  -6.544  -0.035  0.00  0.00    -0.299 N 
ATOM      2  C   UNL     1      -1.681  -7.444  -0.024  0.00  0.00    +0.304 C 
ATOM      3  O   UNL     1      -2.836  -7.067  -0.003  0.00  0.00    -0.253 OA
ATOM      4  N   UNL     1      -1.403  -8.763  -0.035  0.00  0.00    -0.269 N 
ATOM      5  H   UNL     1       0.244  -6.845  -0.052  0.00  0.00    +0.150 HD
ATOM      6  H   UNL     1      -0.484  -9.064  -0.120  0.00  0.00    +0.156 HD
ENDROOT
BRANCH   4   7
ATOM      7  C   UNL     1      -2.438  -9.698   0.075  0.00  0.00    +0.035 A 
ATOM      8  C   UNL     1      -3.672  -9.441  -0.508  0.00  0.00    +0.023 A 
ATOM      9  C   UNL     1      -4.692 -10.365  -0.399  0.00  0.00    +0.002 A 
ATOM     10  C   UNL     1      -4.486 -11.546   0.292  0.00  0.00    +0.005 A 
ATOM     11  C   UNL     1      -3.259 -11.804   0.874  0.00  0.00    -0.024 A 
ATOM     12  C   UNL     1      -2.233 -10.886   0.762  0.00  0.00    +0.028 A 
BRANCH  11  13
ATOM     13  C   UNL     1      -3.039 -13.091   1.626  0.00  0.00    +0.184 C 
BRANCH  13  14
ATOM     14  N   UNL     1      -2.543 -14.117   0.705  0.00  0.00    -0.208 N 
ATOM     15  C   UNL     1      -1.250 -14.377   0.424  0.00  0.00    +0.351 A 
ATOM     16  O   UNL     1      -0.284 -13.800   0.891  0.00  0.00    -0.244 OA
ATOM     17  N   UNL     1      -1.216 -15.389  -0.467  0.00  0.00    -0.251 N 
ATOM     18  C   UNL     1      -0.168 -16.036  -1.078  0.00  0.00    +0.098 A 
ATOM     19  C   UNL     1      -0.394 -17.036  -1.948  0.00  0.00    +0.018 A 
ATOM     20  C   UNL     1      -1.710 -17.441  -2.251  0.00  0.00    +0.005 A 
ATOM     21  C   UNL     1      -2.760 -16.820  -1.661  0.00  0.00    +0.049 A 
ATOM     22  C   UNL     1      -2.517 -15.765  -0.744  0.00  0.00    +0.162 A 
ATOM     23  N   UNL     1      -3.326 -15.009  -0.040  0.00  0.00    -0.148 NA
ENDBRANCH  13  14
ENDBRANCH  11  13
ENDBRANCH   4   7
BRANCH   1  24
ATOM     24  C   UNL     1      -0.980  -5.111  -0.023  0.00  0.00    +0.107 C 
BRANCH  24  25
ATOM     25  C   UNL     1       0.326  -4.314  -0.040  0.00  0.00    +0.037 C 
BRANCH  25  26
ATOM     26  C   UNL     1       0.010  -2.817  -0.027  0.00  0.00    +0.104 C 
BRANCH  26  33
ATOM     27  C   UNL     1      -0.016   1.379  -0.005  0.00  0.00    +0.005 A 
ATOM     28  C   UNL     1       1.195   2.058  -0.021  0.00  0.00    +0.018 A 
ATOM     29  C   UNL     1       2.373   1.339  -0.044  0.00  0.00    +0.084 A 
ATOM     30  N   UNL     1       2.361   0.020  -0.051  0.00  0.00    -0.350 N 
ATOM     31  C   UNL     1       1.227  -0.664  -0.036  0.00  0.00    +0.096 A 
ATOM     32  C   UNL     1       0.003  -0.004  -0.012  0.00  0.00    +0.041 A 
ATOM     33  N   UNL     1       1.261  -2.054  -0.044  0.00  0.00    -0.330 N 
ATOM     34  H   UNL     1       2.112  -2.518  -0.060  0.00  0.00    +0.147 HD
ATOM     35  H   UNL     1       3.203  -0.461  -0.067  0.00  0.00    +0.166 HD
ENDBRANCH  26  33
ENDBRANCH  25  26
ENDBRANCH  24  25
ENDBRANCH   1  24
TORSDOF 7
