REMARK  Name = ZINC29787276
REMARK  9 active torsions:
REMARK  status: ('A' for Active; 'I' for Inactive)
REMARK    1  A    between atoms: C_1  and  C_2
REMARK    2  A    between atoms: C_2  and  C_28
REMARK    3  A    between atoms: C_4  and  N_10
REMARK    4  A    between atoms: C_6  and  C_8
REMARK    5  A    between atoms: C_6  and  C_9
REMARK    6  A    between atoms: C_11  and  C_13
REMARK    7  A    between atoms: N_18  and  C_20
REMARK    8  A    between atoms: C_20  and  C_21
REMARK    9  A    between atoms: C_21  and  C_22
REMARK                            x       y       z     vdW  Elec       q    Type
REMARK                         _______ _______ _______ _____ _____    ______ ____
ROOT
ATOM      1  N   UNL     1      -2.113   1.284  -1.283  0.00  0.00    -0.312 N 
ATOM      2  C   UNL     1      -0.814   1.618  -1.152  0.00  0.00    +0.218 C 
ATOM      3  O   UNL     1      -0.290   2.347  -1.968  0.00  0.00    -0.275 OA
ATOM      4  H   UNL     1      -2.589   0.623  -0.543  0.00  0.00    +0.149 HD
ENDROOT
BRANCH   1   8
ATOM      5  C   UNL     1      -4.184   1.133  -5.169  0.00  0.00    -0.010 C 
ATOM      6  C   UNL     1      -4.913   1.390  -3.844  0.00  0.00    -0.072 C 
ATOM      7  C   UNL     1      -4.068   0.863  -2.687  0.00  0.00    +0.009 C 
ATOM      8  C   UNL     1      -2.894   1.802  -2.413  0.00  0.00    +0.070 C 
ATOM      9  C   UNL     1      -3.449   3.180  -2.052  0.00  0.00    +0.009 C 
ATOM     10  C   UNL     1      -4.284   3.735  -3.203  0.00  0.00    -0.072 C 
ATOM     11  N   UNL     1      -5.260   2.788  -3.701  0.00  0.00    +0.386 N 
ATOM     12  C   UNL     1      -3.355   4.215  -4.325  0.00  0.00    -0.010 C 
ATOM     13  C   UNL     1      -5.040   4.974  -2.675  0.00  0.00    -0.010 C 
ATOM     14  C   UNL     1      -6.222   0.569  -3.876  0.00  0.00    -0.010 C 
ATOM     15  H   UNL     1      -5.547   3.197  -4.681  0.00  0.00    -0.084 HD
ATOM     16  H   UNL     1      -6.103   2.887  -3.001  0.00  0.00    -0.084 HD
ENDBRANCH   1   8
BRANCH   2  17
ATOM     17  C   UNL     1      -0.013   1.086   0.008  0.00  0.00    +0.101 C 
ATOM     18  C   UNL     1      -0.557   1.625   1.351  0.00  0.00    +0.110 C 
ATOM     19  C   UNL     1       0.681   1.849   2.190  0.00  0.00    +0.216 C 
ATOM     20  O   UNL     1       0.688   1.999   3.394  0.00  0.00    -0.276 OA
ATOM     21  N   UNL     1       1.774   1.858   1.408  0.00  0.00    -0.300 N 
ATOM     22  C   UNL     1       1.422   1.658  -0.003  0.00  0.00    +0.121 C 
BRANCH  21  23
ATOM     23  C   UNL     1       3.142   2.042   1.900  0.00  0.00    +0.112 C 
BRANCH  23  24
ATOM     24  C   UNL     1       3.486   3.533   1.903  0.00  0.00    +0.054 C 
BRANCH  24  25
ATOM     25  C   UNL     1       4.893   3.723   2.409  0.00  0.00    -0.046 A 
ATOM     26  C   UNL     1       5.122   3.910   3.760  0.00  0.00    +0.004 A 
ATOM     27  C   UNL     1       6.413   4.080   4.225  0.00  0.00    +0.000 A 
ATOM     28  C   UNL     1       7.473   4.072   3.338  0.00  0.00    +0.000 A 
ATOM     29  C   UNL     1       7.244   3.890   1.987  0.00  0.00    +0.000 A 
ATOM     30  C   UNL     1       5.953   3.716   1.523  0.00  0.00    +0.004 A 
ENDBRANCH  24  25
ENDBRANCH  23  24
ENDBRANCH  21  23
ENDBRANCH   2  17
TORSDOF 5
