REMARK  Name = ZINC16635871
REMARK  9 active torsions:
REMARK  status: ('A' for Active; 'I' for Inactive)
REMARK    1  A    between atoms: C_1  and  C_2
REMARK    2  A    between atoms: C_5  and  C_8
REMARK    3  A    between atoms: C_11  and  C_14
REMARK    4  A    between atoms: C_19  and  C_21
REMARK    5  A    between atoms: C_21  and  N_58
REMARK    6  A    between atoms: C_22  and  N_58
REMARK    7  A    between atoms: C_23  and  C_24
REMARK    8  A    between atoms: C_23  and  N_58
REMARK    9  A    between atoms: N_26  and  C_27
REMARK                            x       y       z     vdW  Elec       q    Type
REMARK                         _______ _______ _______ _____ _____    ______ ____
ROOT
ATOM      1  C   UNL     1       2.506  -2.786   4.736  0.00  0.00    +0.069 C 
ATOM      2  N   UNL     1       2.695  -3.822   3.995  0.00  0.00    -0.181 NA
ATOM      3  N   UNL     1       3.285  -4.896   4.657  0.00  0.00    -0.184 N 
ATOM      4  C   UNL     1       3.519  -4.520   6.060  0.00  0.00    +0.172 C 
ATOM      5  C   UNL     1       2.992  -3.073   6.139  0.00  0.00    +0.090 C 
ATOM      6  C   UNL     1       3.589  -6.087   4.104  0.00  0.00    +0.219 C 
ATOM      7  O   UNL     1       4.100  -6.957   4.778  0.00  0.00    -0.276 OA
ENDROOT
BRANCH   1  12
ATOM      8  C   UNL     1       0.160   2.165   2.986  0.00  0.00    +0.044 C 
ATOM      9  C   UNL     1       0.771   0.866   3.445  0.00  0.00    -0.050 A 
ATOM     10  C   UNL     1       1.178   0.724   4.760  0.00  0.00    +0.004 A 
ATOM     11  C   UNL     1       1.743  -0.460   5.187  0.00  0.00    +0.010 A 
ATOM     12  C   UNL     1       1.904  -1.517   4.287  0.00  0.00    -0.002 A 
ATOM     13  C   UNL     1       1.491  -1.366   2.962  0.00  0.00    +0.010 A 
ATOM     14  C   UNL     1       0.928  -0.176   2.549  0.00  0.00    +0.004 A 
ENDBRANCH   1  12
BRANCH   4  15
ATOM     15  C   UNL     1       2.742  -5.419   6.987  0.00  0.00    +0.128 A 
ATOM     16  C   UNL     1       3.140  -5.824   8.207  0.00  0.00    +0.046 A 
ATOM     17  C   UNL     1       2.112  -6.649   8.720  0.00  0.00    +0.041 A 
ATOM     18  C   UNL     1       1.148  -6.698   7.783  0.00  0.00    +0.195 A 
ATOM     19  O   UNL     1       1.532  -5.946   6.738  0.00  0.00    -0.466 OA
ENDBRANCH   4  15
BRANCH   6  20
ATOM     20  C   UNL     1       3.293  -6.339   2.648  0.00  0.00    +0.021 C 
BRANCH  20  22
ATOM     21  C   UNL     1       2.901  -8.704   2.991  0.00  0.00    -0.095 C 
ATOM     22  N   UNL     1       3.741  -7.704   2.299  0.00  0.00    +0.389 N 
ATOM     23  H   UNL     1       4.716  -7.822   2.600  0.00  0.00    -0.081 HD
BRANCH  22  24
ATOM     24  C   UNL     1       3.663  -7.903   0.837  0.00  0.00    +0.019 C 
BRANCH  24  25
ATOM     25  C   UNL     1       4.327  -9.210   0.488  0.00  0.00    +0.201 C 
ATOM     26  O   UNL     1       4.797  -9.905   1.365  0.00  0.00    -0.278 OA
ATOM     27  N   UNL     1       4.400  -9.608  -0.798  0.00  0.00    -0.285 N 
ATOM     28  H   UNL     1       3.961  -9.090  -1.491  0.00  0.00    +0.155 HD
BRANCH  27  29
ATOM     29  C   UNL     1       5.108 -10.768  -1.133  0.00  0.00    +0.070 A 
ATOM     30  C   UNL     1       6.463 -10.696  -1.427  0.00  0.00    +0.064 A 
ATOM     31  C   UNL     1       7.160 -11.845  -1.754  0.00  0.00    +0.022 A 
ATOM     32  C   UNL     1       6.507 -13.063  -1.797  0.00  0.00    +0.003 A 
ATOM     33  C   UNL     1       5.157 -13.137  -1.510  0.00  0.00    +0.022 A 
ATOM     34  C   UNL     1       4.455 -11.994  -1.178  0.00  0.00    +0.064 A 
ATOM     35 CL   UNL     1       2.759 -12.089  -0.819  0.00  0.00    -0.082 Cl
ATOM     36 CL   UNL     1       7.283  -9.167  -1.379  0.00  0.00    -0.082 Cl
ENDBRANCH  27  29
ENDBRANCH  24  25
ENDBRANCH  22  24
ENDBRANCH  20  22
ENDBRANCH   6  20
TORSDOF 7
