REMARK  Name = ZINC13009704
REMARK  15 active torsions:
REMARK  status: ('A' for Active; 'I' for Inactive)
REMARK    1  A    between atoms: C_1  and  C_2
REMARK    2  A    between atoms: C_2  and  N_63
REMARK    3  A    between atoms: C_3  and  C_4
REMARK    4  A    between atoms: C_3  and  N_63
REMARK    5  A    between atoms: C_5  and  C_6
REMARK    6  A    between atoms: C_5  and  N_63
REMARK    7  A    between atoms: C_6  and  N_7
REMARK    8  A    between atoms: C_8  and  N_29
REMARK    9  A    between atoms: N_12  and  C_15
REMARK   10  A    between atoms: C_15  and  C_16
REMARK   11  A    between atoms: N_18  and  C_19
REMARK   12  A    between atoms: C_24  and  C_25
REMARK   13  A    between atoms: C_25  and  C_26
REMARK   14  A    between atoms: C_25  and  C_27
REMARK   15  A    between atoms: C_25  and  C_28
REMARK                            x       y       z     vdW  Elec       q    Type
REMARK                         _______ _______ _______ _____ _____    ______ ____
ROOT
ATOM      1  N   UNL     1      -2.110   0.048   1.578  0.00  0.00    -0.284 N 
ATOM      2  C   UNL     1      -0.845  -0.420   1.317  0.00  0.00    +0.105 A 
ATOM      3  C   UNL     1      -0.588  -1.758   1.430  0.00  0.00    +0.112 A 
ATOM      4  C   UNL     1      -1.626  -2.622   1.813  0.00  0.00    +0.259 A 
ATOM      5  O   UNL     1      -1.419  -3.819   1.921  0.00  0.00    -0.267 OA
ATOM      6  N   UNL     1      -2.852  -2.121   2.060  0.00  0.00    -0.252 N 
ATOM      7  C   UNL     1      -3.087  -0.801   1.948  0.00  0.00    +0.334 A 
ATOM      8  O   UNL     1      -4.199  -0.369   2.181  0.00  0.00    -0.246 OA
ENDROOT
BRANCH   2   9
ATOM      9  N   UNL     1       0.150   0.447   0.945  0.00  0.00    -0.344 N 
ATOM     10  H   UNL     1      -0.037   1.395   0.866  0.00  0.00    +0.144 HD
ATOM     11  H   UNL     1       1.042   0.111   0.762  0.00  0.00    +0.144 HD
ENDBRANCH   2   9
BRANCH   1  12
ATOM     12  C   UNL     1      -2.396   1.480   1.459  0.00  0.00    +0.109 C 
BRANCH  12  13
ATOM     13  C   UNL     1      -2.850   1.792   0.032  0.00  0.00    -0.057 C 
BRANCH  13  14
ATOM     14  N   UNL     1      -3.155   3.235  -0.067  0.00  0.00    +0.380 N 
ATOM     15  H   UNL     1      -3.799   3.492   0.691  0.00  0.00    -0.082 HD
BRANCH  14  17
ATOM     16  C   UNL     1      -0.955   3.722  -1.083  0.00  0.00    -0.017 C 
ATOM     17  C   UNL     1      -1.913   4.024   0.071  0.00  0.00    -0.082 C 
ENDBRANCH  14  17
BRANCH  14  18
ATOM     18  C   UNL     1      -3.799   3.528  -1.365  0.00  0.00    -0.082 C 
ATOM     19  C   UNL     1      -4.368   4.948  -1.322  0.00  0.00    -0.017 C 
ENDBRANCH  14  18
ENDBRANCH  13  14
ENDBRANCH  12  13
ENDBRANCH   1  12
BRANCH   6  20
ATOM     20  C   UNL     1      -3.937  -3.020   2.459  0.00  0.00    +0.226 C 
BRANCH  20  21
ATOM     21  C   UNL     1      -3.959  -3.145   3.961  0.00  0.00    +0.237 C 
ATOM     22  O   UNL     1      -3.148  -2.542   4.631  0.00  0.00    -0.274 OA
ATOM     23  N   UNL     1      -4.880  -3.926   4.559  0.00  0.00    -0.284 N 
ATOM     24  H   UNL     1      -5.502  -4.441   4.021  0.00  0.00    +0.155 HD
BRANCH  23  25
ATOM     25  C   UNL     1      -4.939  -3.995   5.955  0.00  0.00    +0.037 A 
ATOM     26  C   UNL     1      -3.813  -3.703   6.715  0.00  0.00    +0.023 A 
ATOM     27  C   UNL     1      -3.876  -3.767   8.092  0.00  0.00    +0.002 A 
ATOM     28  C   UNL     1      -5.054  -4.132   8.716  0.00  0.00    +0.000 A 
ATOM     29  C   UNL     1      -6.175  -4.429   7.963  0.00  0.00    +0.006 A 
ATOM     30  C   UNL     1      -6.121  -4.362   6.585  0.00  0.00    -0.021 A 
BRANCH  30  31
ATOM     31  C   UNL     1      -7.343  -4.687   5.765  0.00  0.00    -0.011 C 
ATOM     32  C   UNL     1      -8.541  -4.890   6.694  0.00  0.00    +0.015 C 
ATOM     33  C   UNL     1      -7.633  -3.533   4.803  0.00  0.00    +0.015 C 
ATOM     34  C   UNL     1      -7.095  -5.968   4.965  0.00  0.00    +0.015 C 
ENDBRANCH  30  31
ENDBRANCH  23  25
ENDBRANCH  20  21
ENDBRANCH   6  20
TORSDOF 10
