REMARK  Name = ZINC37867279
REMARK  8 active torsions:
REMARK  status: ('A' for Active; 'I' for Inactive)
REMARK    1  A    between atoms: C_2  and  C_3
REMARK    2  A    between atoms: C_3  and  N_4
REMARK    3  A    between atoms: N_6  and  N_15
REMARK    4  A    between atoms: C_7  and  C_10
REMARK    5  A    between atoms: C_16  and  C_17
REMARK    6  A    between atoms: C_20  and  O_25
REMARK    7  A    between atoms: C_21  and  O_24
REMARK    8  A    between atoms: C_22  and  O_23
REMARK                            x       y       z     vdW  Elec       q    Type
REMARK                         _______ _______ _______ _____ _____    ______ ____
ROOT
ATOM      1  N   UNL     1      -1.318  -1.700  -1.126  0.00  0.00    -0.320 N 
ATOM      2  C   UNL     1      -2.414  -2.519  -1.327  0.00  0.00    +0.160 A 
ATOM      3  N   UNL     1      -2.626  -3.420  -2.284  0.00  0.00    -0.208 N 
ATOM      4  C   UNL     1      -3.763  -4.128  -2.315  0.00  0.00    +0.117 A 
ATOM      5  C   UNL     1      -4.708  -3.915  -1.351  0.00  0.00    +0.080 A 
ATOM      6  S   UNL     1      -3.914  -2.652  -0.366  0.00  0.00    -0.060 S 
ATOM      7  H   UNL     1      -0.566  -1.737  -1.737  0.00  0.00    +0.148 HD
ENDROOT
BRANCH   4   8
ATOM      8  C   UNL     1      -3.993  -5.125  -3.379  0.00  0.00    +0.154 A 
ATOM      9  C   UNL     1      -5.139  -5.830  -3.578  0.00  0.00    +0.051 A 
ATOM     10  C   UNL     1      -4.916  -6.660  -4.696  0.00  0.00    +0.042 A 
ATOM     11  C   UNL     1      -3.659  -6.423  -5.119  0.00  0.00    +0.196 A 
ATOM     12  O   UNL     1      -3.106  -5.491  -4.324  0.00  0.00    -0.461 OA
ENDBRANCH   4   8
BRANCH   3  13
ATOM     13  N   UNL     1      -1.651  -3.630  -3.267  0.00  0.00    -0.172 NA
ATOM     14  C   UNL     1      -0.720  -4.523  -3.082  0.00  0.00    +0.145 C 
BRANCH  14  15
ATOM     15  C   UNL     1       0.304  -4.743  -4.115  0.00  0.00    +0.040 A 
ATOM     16  C   UNL     1       1.301  -5.705  -3.922  0.00  0.00    +0.017 A 
ATOM     17  C   UNL     1       2.259  -5.909  -4.891  0.00  0.00    +0.050 A 
ATOM     18  C   UNL     1       2.240  -5.163  -6.062  0.00  0.00    +0.162 A 
ATOM     19  C   UNL     1       1.254  -4.204  -6.266  0.00  0.00    +0.201 A 
ATOM     20  C   UNL     1       0.281  -3.994  -5.300  0.00  0.00    +0.171 A 
BRANCH  20  21
ATOM     21  O   UNL     1      -0.687  -3.061  -5.499  0.00  0.00    -0.503 OA
ATOM     22  H   UNL     1      -0.455  -2.179  -5.179  0.00  0.00    +0.292 HD
ENDBRANCH  20  21
BRANCH  19  23
ATOM     23  O   UNL     1       1.241  -3.475  -7.416  0.00  0.00    -0.501 OA
ATOM     24  H   UNL     1       0.723  -3.874  -8.128  0.00  0.00    +0.292 HD
ENDBRANCH  19  23
BRANCH  18  25
ATOM     25  O   UNL     1       3.190  -5.370  -7.012  0.00  0.00    -0.503 OA
ATOM     26  H   UNL     1       2.951  -6.040  -7.667  0.00  0.00    +0.292 HD
ENDBRANCH  18  25
ENDBRANCH  14  15
ENDBRANCH   3  13
BRANCH   1  27
ATOM     27  C   UNL     1      -1.293  -0.775   0.010  0.00  0.00    +0.130 C 
BRANCH  27  29
ATOM     28  C   UNL     1      -0.016   1.306   0.009  0.00  0.00    +0.005 C 
ATOM     29  C   UNL     1       0.002  -0.004   0.002  0.00  0.00    -0.016 C 
ENDBRANCH  27  29
ENDBRANCH   1  27
TORSDOF 8
