REMARK  Name = ZINC38551065
REMARK  7 active torsions:
REMARK  status: ('A' for Active; 'I' for Inactive)
REMARK    1  A    between atoms: C_1  and  C_2
REMARK    2  A    between atoms: C_6  and  N_8
REMARK    3  A    between atoms: N_8  and  C_9
REMARK    4  A    between atoms: C_9  and  C_11
REMARK    5  A    between atoms: C_9  and  C_18
REMARK    6  A    between atoms: C_22  and  N_23
REMARK    7  A    between atoms: C_24  and  C_26
REMARK                            x       y       z     vdW  Elec       q    Type
REMARK                         _______ _______ _______ _____ _____    ______ ____
ROOT
ATOM      1  C   UNL     1       0.590  -4.454   2.480  0.00  0.00    +0.136 C 
ENDROOT
BRANCH   1   2
ATOM      2  C   UNL     1      -0.202  -4.948   3.663  0.00  0.00    +0.009 A 
ATOM      3  C   UNL     1      -1.098  -6.008   3.512  0.00  0.00    -0.030 A 
ATOM      4  C   UNL     1      -1.775  -6.396   4.625  0.00  0.00    -0.005 A 
ATOM      5  S   UNL     1      -1.181  -5.304   5.889  0.00  0.00    -0.078 S 
ATOM      6  C   UNL     1      -0.042  -4.367   4.882  0.00  0.00    +0.078 A 
ATOM      7  C   UNL     1      -2.785  -7.492   4.741  0.00  0.00    +0.043 C 
ATOM      8  C   UNL     1      -3.228  -7.892   3.325  0.00  0.00    +0.005 C 
ATOM      9  C   UNL     1      -1.981  -8.075   2.455  0.00  0.00    +0.005 C 
ATOM     10  C   UNL     1      -1.330  -6.719   2.182  0.00  0.00    +0.036 C 
BRANCH   6  11
ATOM     11  N   UNL     1       0.794  -3.311   5.249  0.00  0.00    -0.273 N 
ATOM     12  C   UNL     1       0.950  -2.996   6.551  0.00  0.00    +0.284 C 
ATOM     13  O   UNL     1       0.362  -3.633   7.405  0.00  0.00    -0.266 OA
ATOM     14  H   UNL     1       1.263  -2.803   4.568  0.00  0.00    +0.156 HD
BRANCH  12  15
ATOM     15  C   UNL     1       1.828  -1.887   6.937  0.00  0.00    +0.189 A 
ATOM     16  C   UNL     1       2.078  -1.468   8.212  0.00  0.00    +0.054 A 
ATOM     17  C   UNL     1       2.969  -0.388   8.115  0.00  0.00    +0.042 A 
ATOM     18  C   UNL     1       3.220  -0.196   6.801  0.00  0.00    +0.196 A 
ATOM     19  O   UNL     1       2.535  -1.105   6.095  0.00  0.00    -0.458 OA
ENDBRANCH  12  15
ENDBRANCH   6  11
ENDBRANCH   1   2
BRANCH   1  20
ATOM     20  C   UNL     1       2.062  -4.620   2.757  0.00  0.00    -0.004 A 
ATOM     21  C   UNL     1       2.817  -3.534   3.159  0.00  0.00    +0.007 A 
ATOM     22  C   UNL     1       4.167  -3.687   3.413  0.00  0.00    +0.000 A 
ATOM     23  C   UNL     1       4.763  -4.925   3.264  0.00  0.00    +0.001 A 
ATOM     24  C   UNL     1       4.010  -6.011   2.862  0.00  0.00    +0.020 A 
ATOM     25  C   UNL     1       2.657  -5.861   2.614  0.00  0.00    +0.046 A 
ATOM     26 CL   UNL     1       1.709  -7.227   2.115  0.00  0.00    -0.083 Cl
ENDBRANCH   1  20
BRANCH   1  27
ATOM     27  N   UNL     1       0.293  -3.038   2.251  0.00  0.00    -0.320 N 
ATOM     28  H   UNL     1      -0.064  -2.495   2.970  0.00  0.00    +0.148 HD
BRANCH  27  34
ATOM     29  C   UNL     1       0.131   0.843  -0.547  0.00  0.00    +0.063 C 
ATOM     30  C   UNL     1       0.455  -0.618  -0.370  0.00  0.00    +0.014 A 
ATOM     31  C   UNL     1       0.962  -1.338  -1.434  0.00  0.00    +0.021 A 
ATOM     32  C   UNL     1       1.259  -2.684  -1.264  0.00  0.00    +0.005 A 
ATOM     33  C   UNL     1       1.035  -3.259  -0.026  0.00  0.00    +0.041 A 
ATOM     34  C   UNL     1       0.523  -2.473   1.002  0.00  0.00    +0.097 A 
ATOM     35  N   UNL     1       0.257  -1.192   0.802  0.00  0.00    -0.347 N 
ATOM     36  H   UNL     1      -0.096  -0.662   1.534  0.00  0.00    +0.167 HD
ENDBRANCH  27  34
ENDBRANCH   1  27
TORSDOF 6
