REMARK  Name = ZINC01506520
REMARK  6 active torsions:
REMARK  status: ('A' for Active; 'I' for Inactive)
REMARK    1  A    between atoms: C_1  and  C_2
REMARK    2  A    between atoms: C_2  and  O_3
REMARK    3  A    between atoms: O_3  and  C_4
REMARK    4  A    between atoms: N_12  and  C_13
REMARK    5  A    between atoms: C_14  and  C_22
REMARK    6  A    between atoms: C_25  and  C_27
REMARK                            x       y       z     vdW  Elec       q    Type
REMARK                         _______ _______ _______ _____ _____    ______ ____
ROOT
ATOM      1  C   UNL     1       1.165   2.104   0.002  0.00  0.00    +0.163 A 
ATOM      2  C   UNL     1      -0.017   1.383   0.010  0.00  0.00    +0.049 A 
ATOM      3  C   UNL     1       0.002  -0.004   0.002  0.00  0.00    +0.004 A 
ATOM      4  C   UNL     1       1.198  -0.686  -0.011  0.00  0.00    +0.012 A 
ATOM      5  C   UNL     1       2.403   0.027  -0.014  0.00  0.00    +0.022 A 
ATOM      6  C   UNL     1       2.385   1.434  -0.012  0.00  0.00    +0.179 A 
ATOM      7  O   UNL     1       3.551   2.124  -0.025  0.00  0.00    -0.435 OA
ATOM      8  C   UNL     1       4.634   1.516   0.521  0.00  0.00    +0.212 A 
ATOM      9  N   UNL     1       5.489   2.190   1.267  0.00  0.00    -0.319 N 
ATOM     10  C   UNL     1       4.826   0.079   0.255  0.00  0.00    +0.097 A 
ATOM     11  C   UNL     1       3.689  -0.673  -0.017  0.00  0.00    +0.030 A 
ATOM     12  H   UNL     1       6.361   1.680   1.702  0.00  0.00    +0.169 HD
ENDROOT
BRANCH   9  13
ATOM     13  C   UNL     1       5.293   3.503   1.496  0.00  0.00    +0.093 A 
ATOM     14  C   UNL     1       6.072   4.390   2.251  0.00  0.00    +0.071 A 
ATOM     15  C   UNL     1       5.628   5.770   2.335  0.00  0.00    -0.023 A 
ATOM     16  C   UNL     1       4.491   6.076   1.671  0.00  0.00    -0.004 A 
ATOM     17  S   UNL     1       3.980   4.559   0.911  0.00  0.00    -0.075 S 
ATOM     18  C   UNL     1       3.818   7.412   1.593  0.00  0.00    +0.043 C 
ATOM     19  C   UNL     1       4.405   8.316   2.687  0.00  0.00    +0.005 C 
ATOM     20  C   UNL     1       5.933   8.218   2.637  0.00  0.00    +0.005 C 
ATOM     21  C   UNL     1       6.382   6.839   3.122  0.00  0.00    +0.037 C 
BRANCH  14  22
ATOM     22  C   UNL     1       7.289   3.942   2.928  0.00  0.00    +0.244 C 
ATOM     23  O   UNL     1       8.360   3.990   2.351  0.00  0.00    -0.270 OA
ATOM     24  N   UNL     1       7.224   3.477   4.192  0.00  0.00    -0.325 N 
ATOM     25  H   UNL     1       8.139   3.140   4.701  0.00  0.00    +0.145 HD
ATOM     26  H   UNL     1       6.257   3.434   4.713  0.00  0.00    +0.145 HD
ENDBRANCH  14  22
ENDBRANCH   9  13
BRANCH  10  27
ATOM     27  C   UNL     1       6.166  -0.534   0.276  0.00  0.00    +0.247 C 
ATOM     28  O   UNL     1       7.143   0.149   0.517  0.00  0.00    -0.270 OA
ATOM     29  N   UNL     1       6.309  -1.851   0.029  0.00  0.00    -0.325 N 
ATOM     30  H   UNL     1       7.309  -2.309   0.045  0.00  0.00    +0.145 HD
ATOM     31  H   UNL     1       5.425  -2.469  -0.189  0.00  0.00    +0.145 HD
ENDBRANCH  10  27
BRANCH   1  32
ATOM     32  O   UNL     1       1.134   3.463   0.009  0.00  0.00    -0.489 OA
BRANCH  32  34
ATOM     33  C   UNL     1       0.012   5.604   0.030  0.00  0.00    +0.048 C 
ATOM     34  C   UNL     1      -0.154   4.083   0.024  0.00  0.00    +0.226 C 
ENDBRANCH  32  34
ENDBRANCH   1  32
TORSDOF 5
