REMARK  Name = ZINC09114657
REMARK  4 active torsions:
REMARK  status: ('A' for Active; 'I' for Inactive)
REMARK    1  A    between atoms: C_1  and  C_2
REMARK    2  A    between atoms: N_5  and  C_7
REMARK    3  A    between atoms: C_22  and  C_33
REMARK    4  A    between atoms: N_24  and  C_27
REMARK                            x       y       z     vdW  Elec       q    Type
REMARK                         _______ _______ _______ _____ _____    ______ ____
ROOT
ATOM      1  C   UNL     1      -1.158  -2.745  -3.513  0.00  0.00    +0.068 C 
ATOM      2  C   UNL     1      -1.111  -2.987  -2.026  0.00  0.00    +0.065 A 
ATOM      3  C   UNL     1      -1.039  -2.006  -1.044  0.00  0.00    +0.017 A 
ATOM      4  C   UNL     1      -1.014  -2.623   0.175  0.00  0.00    +0.129 A 
ATOM      5  N   UNL     1      -1.071  -3.960  -0.050  0.00  0.00    -0.218 N 
ATOM      6  N   UNL     1      -1.131  -4.158  -1.437  0.00  0.00    -0.170 NA
ATOM      7  N   UNL     1      -0.941  -1.962   1.393  0.00  0.00    -0.310 N 
ATOM      8  C   UNL     1      -1.736  -2.634   2.428  0.00  0.00    +0.107 C 
ATOM      9  C   UNL     1      -1.474  -1.967   3.781  0.00  0.00    +0.019 C 
ATOM     10  C   UNL     1      -1.849  -0.485   3.699  0.00  0.00    +0.003 C 
ATOM     11  C   UNL     1      -1.050   0.179   2.573  0.00  0.00    +0.024 C 
ATOM     12  C   UNL     1      -1.334  -0.552   1.260  0.00  0.00    +0.096 C 
ATOM     13  C   UNL     1      -0.574   0.106   0.116  0.00  0.00    +0.111 C 
ATOM     14  C   UNL     1      -0.994  -0.506  -1.223  0.00  0.00    +0.064 C 
ATOM     15  C   UNL     1      -0.804   1.597   0.107  0.00  0.00    +0.052 C 
ATOM     16  N   UNL     1       0.336   2.150   0.266  0.00  0.00    -0.181 NA
ATOM     17  N   UNL     1       1.376   1.233   0.392  0.00  0.00    -0.160 N 
ATOM     18  C   UNL     1       0.917  -0.036   0.313  0.00  0.00    +0.253 C 
ATOM     19  O   UNL     1       1.560  -1.062   0.385  0.00  0.00    -0.272 OA
ATOM     20  C   UNL     1      -2.126   2.300  -0.065  0.00  0.00    +0.063 C 
ENDROOT
BRANCH   5  21
ATOM     21  C   UNL     1      -1.069  -4.963   0.928  0.00  0.00    +0.067 A 
ATOM     22  C   UNL     1      -0.086  -4.976   1.909  0.00  0.00    +0.028 A 
ATOM     23  C   UNL     1      -0.089  -5.963   2.875  0.00  0.00    +0.002 A 
ATOM     24  C   UNL     1      -1.063  -6.944   2.860  0.00  0.00    +0.000 A 
ATOM     25  C   UNL     1      -2.040  -6.937   1.881  0.00  0.00    +0.002 A 
ATOM     26  C   UNL     1      -2.045  -5.950   0.915  0.00  0.00    +0.028 A 
ENDBRANCH   5  21
BRANCH  17  27
ATOM     27  C   UNL     1       2.720   1.579   0.576  0.00  0.00    +0.060 A 
ATOM     28  C   UNL     1       3.684   0.587   0.697  0.00  0.00    +0.025 A 
ATOM     29  C   UNL     1       5.009   0.932   0.874  0.00  0.00    +0.002 A 
ATOM     30  C   UNL     1       5.376   2.264   0.941  0.00  0.00    +0.000 A 
ATOM     31  C   UNL     1       4.418   3.254   0.826  0.00  0.00    +0.002 A 
ATOM     32  C   UNL     1       3.091   2.916   0.644  0.00  0.00    +0.025 A 
ENDBRANCH  17  27
TORSDOF 2
