REMARK  Name = ZINC17089039
REMARK  4 active torsions:
REMARK  status: ('A' for Active; 'I' for Inactive)
REMARK    1  A    between atoms: C_4  and  N_11
REMARK    2  A    between atoms: C_6  and  C_7
REMARK    3  A    between atoms: C_12  and  C_14
REMARK    4  A    between atoms: C_18  and  N_25
REMARK                            x       y       z     vdW  Elec       q    Type
REMARK                         _______ _______ _______ _____ _____    ______ ____
ROOT
ATOM      1  C   UNL     1       1.254   2.049   0.016  0.00  0.00    +0.097 A 
ATOM      2  C   UNL     1       1.213   3.429   0.031  0.00  0.00    +0.030 A 
ATOM      3  C   UNL     1      -0.096   4.083   0.058  0.00  0.00    +0.020 A 
ATOM      4  C   UNL     1      -0.190   5.481   0.074  0.00  0.00    +0.044 A 
ATOM      5  C   UNL     1      -1.418   6.079   0.100  0.00  0.00    +0.127 A 
ATOM      6  C   UNL     1      -2.574   5.311   0.109  0.00  0.00    +0.036 A 
ATOM      7  C   UNL     1      -2.503   3.933   0.094  0.00  0.00    +0.049 A 
ATOM      8  C   UNL     1      -1.265   3.302   0.068  0.00  0.00    +0.138 A 
ATOM      9  O   UNL     1      -1.195   1.953   0.048  0.00  0.00    -0.439 OA
ATOM     10  C   UNL     1      -0.016   1.302   0.028  0.00  0.00    +0.205 A 
ATOM     11  N   UNL     1       0.002  -0.003   0.013  0.00  0.00    -0.369 N 
ATOM     12  H   UNL     1      -0.943  -0.566   0.022  0.00  0.00    +0.159 HD
ATOM     13  H   UNL     1       0.962  -0.540  -0.007  0.00  0.00    +0.159 HD
ENDROOT
BRANCH   1  15
ATOM     14  N   UNL     1       3.696   2.032  -0.022  0.00  0.00    -0.280 N 
ATOM     15  C   UNL     1       2.542   1.337  -0.012  0.00  0.00    +0.253 C 
ATOM     16  O   UNL     1       2.564   0.120  -0.025  0.00  0.00    -0.270 OA
ATOM     17  H   UNL     1       3.676   3.129  -0.102  0.00  0.00    +0.155 HD
BRANCH  14  21
ATOM     18  C   UNL     1       7.339   0.027   0.247  0.00  0.00    +0.014 A 
ATOM     19  C   UNL     1       7.280   1.274  -0.349  0.00  0.00    +0.022 A 
ATOM     20  C   UNL     1       6.073   1.939  -0.446  0.00  0.00    +0.062 A 
ATOM     21  C   UNL     1       4.919   1.359   0.068  0.00  0.00    +0.053 A 
ATOM     22  C   UNL     1       4.982   0.108   0.667  0.00  0.00    +0.037 A 
ATOM     23  C   UNL     1       6.191  -0.554   0.755  0.00  0.00    +0.057 A 
ATOM     24 CL   UNL     1       5.999   3.500  -1.203  0.00  0.00    -0.082 Cl
BRANCH  23  25
ATOM     25  C   UNL     1       6.260  -1.912   1.404  0.00  0.00    +0.417 C 
ATOM     26  F   UNL     1       6.054  -2.902   0.437  0.00  0.00    -0.166 F 
ATOM     27  F   UNL     1       7.519  -2.086   1.989  0.00  0.00    -0.166 F 
ATOM     28  F   UNL     1       5.271  -2.009   2.388  0.00  0.00    -0.166 F 
ENDBRANCH  23  25
ENDBRANCH  14  21
ENDBRANCH   1  15
BRANCH   5  29
ATOM     29  N   UNL     1      -1.517   7.556   0.116  0.00  0.00    +0.056 N 
ATOM     30  O   UNL     1      -2.610   8.093   0.138  0.00  0.00    -0.126 OA
ATOM     31  O   UNL     1      -0.505   8.234   0.107  0.00  0.00    -0.126 OA
ENDBRANCH   5  29
TORSDOF 4
