REMARK  Name = ZINC09705582
REMARK  14 active torsions:
REMARK  status: ('A' for Active; 'I' for Inactive)
REMARK    1  A    between atoms: C_1  and  C_2
REMARK    2  A    between atoms: C_2  and  N_66
REMARK    3  A    between atoms: C_3  and  C_4
REMARK    4  A    between atoms: C_3  and  N_66
REMARK    5  A    between atoms: C_5  and  C_6
REMARK    6  A    between atoms: C_5  and  N_66
REMARK    7  A    between atoms: C_6  and  C_7
REMARK    8  A    between atoms: C_7  and  C_8
REMARK    9  A    between atoms: C_8  and  C_10
REMARK   10  A    between atoms: C_8  and  N_11
REMARK   11  A    between atoms: C_12  and  C_14
REMARK   12  A    between atoms: N_16  and  C_17
REMARK   13  A    between atoms: C_25  and  C_26
REMARK   14  A    between atoms: N_28  and  C_29
REMARK                            x       y       z     vdW  Elec       q    Type
REMARK                         _______ _______ _______ _____ _____    ______ ____
ROOT
ATOM      1  C   UNL     1      -2.542  -3.909   0.338  0.00  0.00    +0.093 A 
ATOM      2  C   UNL     1      -2.449  -2.449   0.214  0.00  0.00    +0.042 A 
ATOM      3  C   UNL     1      -1.411  -1.563  -0.080  0.00  0.00    +0.013 A 
ATOM      4  C   UNL     1      -1.656  -0.219  -0.115  0.00  0.00    +0.001 A 
ATOM      5  C   UNL     1      -2.930   0.270   0.141  0.00  0.00    +0.004 A 
ATOM      6  C   UNL     1      -3.968  -0.589   0.433  0.00  0.00    +0.047 A 
ATOM      7  C   UNL     1      -3.741  -1.960   0.474  0.00  0.00    +0.138 A 
ATOM      8  O   UNL     1      -4.539  -3.017   0.726  0.00  0.00    -0.448 OA
ATOM      9  C   UNL     1      -3.848  -4.176   0.646  0.00  0.00    +0.212 A 
ENDROOT
BRANCH   1  12
ATOM     10  C   UNL     1      -0.238  -4.460   0.391  0.00  0.00    +0.303 C 
ATOM     11  O   UNL     1       0.011  -3.342   0.795  0.00  0.00    -0.265 OA
ATOM     12  N   UNL     1      -1.516  -4.829   0.173  0.00  0.00    -0.274 N 
ATOM     13  H   UNL     1      -1.718  -5.738  -0.098  0.00  0.00    +0.155 HD
BRANCH  10  15
ATOM     14  N   UNL     1       2.150  -5.056   0.353  0.00  0.00    -0.305 N 
ATOM     15  C   UNL     1       0.872  -5.425   0.135  0.00  0.00    +0.300 C 
ATOM     16  O   UNL     1       0.624  -6.542  -0.269  0.00  0.00    -0.265 OA
ATOM     17  H   UNL     1       2.349  -4.163   0.676  0.00  0.00    +0.149 HD
BRANCH  14  18
ATOM     18  C   UNL     1       3.239  -6.003   0.102  0.00  0.00    +0.070 C 
ATOM     19  C   UNL     1       3.630  -5.950  -1.376  0.00  0.00    +0.028 C 
BRANCH  18  20
ATOM     20  C   UNL     1       4.448  -5.630   0.963  0.00  0.00    +0.020 C 
BRANCH  20  21
ATOM     21  C   UNL     1       4.094  -5.803   2.441  0.00  0.00    -0.017 C 
BRANCH  21  22
ATOM     22  C   UNL     1       5.303  -5.430   3.302  0.00  0.00    -0.079 C 
BRANCH  22  23
ATOM     23  N   UNL     1       4.939  -5.581   4.726  0.00  0.00    +0.379 N 
ATOM     24  H   UNL     1       4.068  -5.067   4.905  0.00  0.00    -0.082 HD
BRANCH  23  26
ATOM     25  C   UNL     1       6.026  -7.797   4.868  0.00  0.00    -0.017 C 
ATOM     26  C   UNL     1       4.726  -7.009   5.045  0.00  0.00    -0.082 C 
ENDBRANCH  23  26
BRANCH  23  27
ATOM     27  C   UNL     1       6.008  -5.026   5.583  0.00  0.00    -0.082 C 
ATOM     28  C   UNL     1       5.556  -5.090   7.043  0.00  0.00    -0.017 C 
ENDBRANCH  23  27
ENDBRANCH  22  23
ENDBRANCH  21  22
ENDBRANCH  20  21
ENDBRANCH  18  20
ENDBRANCH  14  18
ENDBRANCH  10  15
ENDBRANCH   1  12
BRANCH   9  29
ATOM     29  C   UNL     1      -4.408  -5.509   0.864  0.00  0.00    +0.286 C 
ATOM     30  O   UNL     1      -3.678  -6.483   0.861  0.00  0.00    -0.266 OA
ATOM     31  N   UNL     1      -5.732  -5.658   1.067  0.00  0.00    -0.277 N 
ATOM     32  H   UNL     1      -6.323  -4.893   0.996  0.00  0.00    +0.155 HD
BRANCH  31  33
ATOM     33  C   UNL     1      -6.253  -6.918   1.382  0.00  0.00    +0.069 A 
ATOM     34  C   UNL     1      -5.442  -7.880   1.968  0.00  0.00    +0.026 A 
ATOM     35  C   UNL     1      -5.959  -9.123   2.278  0.00  0.00    +0.002 A 
ATOM     36  C   UNL     1      -7.284  -9.411   2.005  0.00  0.00    +0.003 A 
ATOM     37  C   UNL     1      -8.096  -8.456   1.421  0.00  0.00    +0.040 A 
ATOM     38  C   UNL     1      -7.585  -7.210   1.109  0.00  0.00    +0.144 A 
ATOM     39  F   UNL     1      -8.380  -6.275   0.543  0.00  0.00    -0.204 F 
ENDBRANCH  31  33
ENDBRANCH   9  29
TORSDOF 11
