REMARK  Name = ZINC36567196
REMARK  15 active torsions:
REMARK  status: ('A' for Active; 'I' for Inactive)
REMARK    1  A    between atoms: C_1  and  C_2
REMARK    2  A    between atoms: C_2  and  C_3
REMARK    3  A    between atoms: C_3  and  C_4
REMARK    4  A    between atoms: C_4  and  N_5
REMARK    5  A    between atoms: C_6  and  C_8
REMARK    6  A    between atoms: C_8  and  C_10
REMARK    7  A    between atoms: C_8  and  N_19
REMARK    8  A    between atoms: C_11  and  O_18
REMARK    9  A    between atoms: C_13  and  O_17
REMARK   10  A    between atoms: C_15  and  O_16
REMARK   11  A    between atoms: N_19  and  C_20
REMARK   12  A    between atoms: C_20  and  C_21
REMARK   13  A    between atoms: C_21  and  C_22
REMARK   14  A    between atoms: C_23  and  C_25
REMARK   15  A    between atoms: C_25  and  C_26
REMARK                            x       y       z     vdW  Elec       q    Type
REMARK                         _______ _______ _______ _____ _____    ______ ____
ROOT
ATOM      1  C   UNL     1      -4.573  -4.433   0.033  0.00  0.00    +0.199 C 
ENDROOT
BRANCH   1   2
ATOM      2  C   UNL     1      -5.242  -3.833  -1.177  0.00  0.00    +0.065 A 
ATOM      3  C   UNL     1      -6.136  -2.783  -1.026  0.00  0.00    +0.129 A 
ATOM      4  C   UNL     1      -6.751  -2.231  -2.140  0.00  0.00    +0.091 A 
ATOM      5  C   UNL     1      -6.471  -2.728  -3.404  0.00  0.00    +0.124 A 
ATOM      6  C   UNL     1      -5.576  -3.776  -3.555  0.00  0.00    +0.091 A 
ATOM      7  C   UNL     1      -4.958  -4.326  -2.442  0.00  0.00    +0.129 A 
BRANCH   7   8
ATOM      8  O   UNL     1      -4.077  -5.350  -2.590  0.00  0.00    -0.506 OA
ATOM      9  H   UNL     1      -4.484  -6.226  -2.555  0.00  0.00    +0.292 HD
ENDBRANCH   7   8
BRANCH   5  10
ATOM     10  O   UNL     1      -7.075  -2.187  -4.495  0.00  0.00    -0.507 OA
ATOM     11  H   UNL     1      -6.586  -1.453  -4.891  0.00  0.00    +0.292 HD
ENDBRANCH   5  10
BRANCH   3  12
ATOM     12  O   UNL     1      -6.410  -2.297   0.213  0.00  0.00    -0.506 OA
ATOM     13  H   UNL     1      -5.781  -1.630   0.521  0.00  0.00    +0.292 HD
ENDBRANCH   3  12
ENDBRANCH   1   2
BRANCH   1  15
ATOM     14  N   UNL     1      -2.732  -2.828  -0.359  0.00  0.00    -0.313 N 
ATOM     15  C   UNL     1      -3.114  -4.058   0.038  0.00  0.00    +0.238 C 
ATOM     16  O   UNL     1      -2.282  -4.864   0.399  0.00  0.00    -0.273 OA
ATOM     17  H   UNL     1      -3.397  -2.184  -0.648  0.00  0.00    +0.149 HD
BRANCH  14  18
ATOM     18  C   UNL     1      -1.313  -2.465  -0.355  0.00  0.00    +0.104 C 
BRANCH  18  19
ATOM     19  C   UNL     1      -1.154  -1.025  -0.847  0.00  0.00    +0.018 C 
BRANCH  19  21
ATOM     20  C   UNL     1       0.487   0.795  -1.334  0.00  0.00    +0.004 C 
ATOM     21  C   UNL     1       0.328  -0.645  -0.842  0.00  0.00    -0.002 C 
ENDBRANCH  19  21
ENDBRANCH  18  19
ENDBRANCH  14  18
ENDBRANCH   1  15
BRANCH   1  22
ATOM     22  N   UNL     1      -4.703  -5.891  -0.010  0.00  0.00    -0.285 N 
ATOM     23  C   UNL     1      -5.904  -6.467   0.195  0.00  0.00    +0.221 C 
ATOM     24  O   UNL     1      -6.878  -5.778   0.416  0.00  0.00    -0.275 OA
BRANCH  22  25
ATOM     25  C   UNL     1      -3.528  -6.724  -0.277  0.00  0.00    +0.108 C 
BRANCH  25  26
ATOM     26  C   UNL     1      -2.952  -7.232   1.046  0.00  0.00    +0.016 C 
ATOM     27  C   UNL     1      -1.673  -8.026   0.774  0.00  0.00    +0.005 C 
ENDBRANCH  25  26
ENDBRANCH  22  25
BRANCH  23  28
ATOM     28  C   UNL     1      -6.038  -7.967   0.151  0.00  0.00    +0.131 C 
BRANCH  28  29
ATOM     29  C   UNL     1      -7.472  -8.352   0.410  0.00  0.00    -0.039 A 
ATOM     30  C   UNL     1      -7.904  -8.578   1.704  0.00  0.00    +0.005 A 
ATOM     31  C   UNL     1      -9.219  -8.930   1.943  0.00  0.00    +0.015 A 
ATOM     32  C   UNL     1     -10.103  -9.056   0.887  0.00  0.00    +0.018 A 
ATOM     33  C   UNL     1      -9.671  -8.830  -0.408  0.00  0.00    +0.015 A 
ATOM     34  C   UNL     1      -8.357  -8.473  -0.645  0.00  0.00    +0.005 A 
ATOM     35 BR   UNL     1     -11.902  -9.538   1.213  0.00  0.00    -0.050 Br
ENDBRANCH  28  29
ENDBRANCH  23  28
ENDBRANCH   1  22
TORSDOF 13
