REMARK  Name = ZINC39935244
REMARK  6 active torsions:
REMARK  status: ('A' for Active; 'I' for Inactive)
REMARK    1  A    between atoms: C_1  and  C_2
REMARK    2  A    between atoms: C_2  and  C_4
REMARK    3  A    between atoms: C_2  and  S_16
REMARK    4  A    between atoms: N_9  and  C_10
REMARK    5  A    between atoms: S_16  and  C_17
REMARK    6  A    between atoms: C_21  and  C_23
REMARK                            x       y       z     vdW  Elec       q    Type
REMARK                         _______ _______ _______ _____ _____    ______ ____
ROOT
ATOM      1  S   UNL     1       0.879  -0.605   1.472  0.00  0.00    -0.084 S 
ENDROOT
BRANCH   1   2
ATOM      2  C   UNL     1       2.582  -0.025   1.234  0.00  0.00    +0.340 C 
ATOM      3  N   UNL     1       3.133  -0.553  -0.026  0.00  0.00    -0.219 N 
ATOM      4  N   UNL     1       3.429   0.574  -0.807  0.00  0.00    -0.145 NA
ATOM      5  C   UNL     1       3.120   1.665  -0.158  0.00  0.00    +0.238 C 
ATOM      6  O   UNL     1       2.608   1.399   1.071  0.00  0.00    -0.443 OA
ATOM      7  H   UNL     1       3.264  -1.484  -0.265  0.00  0.00    +0.173 HD
BRANCH   5   8
ATOM      8  C   UNL     1       3.296   2.958  -0.670  0.00  0.00    +0.043 C 
ATOM      9  C   UNL     1       3.809   3.308  -1.920  0.00  0.00    +0.008 A 
ATOM     10  C   UNL     1       4.286   2.540  -3.004  0.00  0.00    +0.010 A 
ATOM     11  C   UNL     1       4.737   3.162  -4.124  0.00  0.00    +0.001 A 
ATOM     12  C   UNL     1       4.742   4.554  -4.235  0.00  0.00    +0.002 A 
ATOM     13  C   UNL     1       4.299   5.353  -3.233  0.00  0.00    +0.026 A 
ATOM     14  C   UNL     1       3.813   4.775  -2.032  0.00  0.00    +0.043 A 
ATOM     15  N   UNL     1       3.336   5.323  -0.931  0.00  0.00    -0.380 N 
ATOM     16  C   UNL     1       2.965   4.266   0.014  0.00  0.00    +0.154 C 
ATOM     17  H   UNL     1       3.242   6.275  -0.774  0.00  0.00    +0.160 HD
ENDBRANCH   5   8
ENDBRANCH   1   2
BRANCH   1  19
ATOM     18  C   UNL     1      -0.019   1.526   0.010  0.00  0.00    +0.029 C 
ATOM     19  C   UNL     1       0.002  -0.004   0.002  0.00  0.00    +0.135 C 
BRANCH  19  20
ATOM     20  C   UNL     1      -1.412  -0.526   0.013  0.00  0.00    +0.233 C 
ATOM     21  O   UNL     1      -1.939  -0.827   1.062  0.00  0.00    -0.274 OA
ATOM     22  N   UNL     1      -2.090  -0.657  -1.144  0.00  0.00    -0.239 N 
ATOM     23  C   UNL     1      -3.355  -1.124  -1.135  0.00  0.00    +0.306 C 
ATOM     24  O   UNL     1      -3.883  -1.426  -0.083  0.00  0.00    -0.252 OA
ATOM     25  N   UNL     1      -4.033  -1.255  -2.292  0.00  0.00    -0.296 N 
ATOM     26  H   UNL     1      -1.669  -0.416  -1.984  0.00  0.00    +0.159 HD
ATOM     27  H   UNL     1      -3.611  -1.014  -3.131  0.00  0.00    +0.151 HD
BRANCH  25  28
ATOM     28  C   UNL     1      -5.408  -1.762  -2.281  0.00  0.00    +0.074 C 
ATOM     29  C   UNL     1      -5.387  -3.292  -2.290  0.00  0.00    +0.022 C 
ATOM     30  C   UNL     1      -6.822  -3.822  -2.279  0.00  0.00    +0.002 C 
ATOM     31  C   UNL     1      -7.562  -3.315  -3.518  0.00  0.00    +0.000 C 
ATOM     32  C   UNL     1      -7.583  -1.785  -3.510  0.00  0.00    +0.002 C 
ATOM     33  C   UNL     1      -6.148  -1.256  -3.521  0.00  0.00    +0.022 C 
ENDBRANCH  25  28
ENDBRANCH  19  20
ENDBRANCH   1  19
TORSDOF 5
