REMARK  Name = ZINC64109006
REMARK  6 active torsions:
REMARK  status: ('A' for Active; 'I' for Inactive)
REMARK    1  A    between atoms: C_1  and  C_2
REMARK    2  A    between atoms: C_2  and  C_3
REMARK    3  A    between atoms: C_2  and  C_4
REMARK    4  A    between atoms: N_6  and  C_7
REMARK    5  A    between atoms: C_13  and  C_14
REMARK    6  A    between atoms: C_19  and  C_22
REMARK                            x       y       z     vdW  Elec       q    Type
REMARK                         _______ _______ _______ _____ _____    ______ ____
ROOT
ATOM      1  C   UNL     1      -1.076   1.480   6.587  0.00  0.00    +0.244 C 
ATOM      2  O   UNL     1      -0.137   2.029   6.038  0.00  0.00    -0.270 OA
ATOM      3  N   UNL     1      -1.833   2.161   7.469  0.00  0.00    -0.261 N 
ATOM      4  C   UNL     1      -1.543   3.486   7.753  0.00  0.00    +0.165 A 
ATOM      5  N   UNL     1      -2.156   4.307   8.580  0.00  0.00    -0.225 NA
ATOM      6  C   UNL     1      -1.696   5.559   8.696  0.00  0.00    +0.079 A 
ATOM      7  C   UNL     1      -0.594   5.928   7.935  0.00  0.00    +0.076 A 
ATOM      8  S   UNL     1      -0.241   4.513   7.097  0.00  0.00    -0.060 S 
ATOM      9  H   UNL     1      -2.581   1.724   7.906  0.00  0.00    +0.157 HD
ENDROOT
BRANCH   6  10
ATOM     10  C   UNL     1      -2.316   6.480   9.568  0.00  0.00    +0.007 C 
ATOM     11  C   UNL     1      -3.416   6.251  10.390  0.00  0.00    +0.005 A 
ATOM     12  C   UNL     1      -4.220   5.111  10.612  0.00  0.00    +0.010 A 
ATOM     13  C   UNL     1      -5.251   5.176  11.492  0.00  0.00    +0.001 A 
ATOM     14  C   UNL     1      -5.543   6.349  12.192  0.00  0.00    +0.002 A 
ATOM     15  C   UNL     1      -4.814   7.480  12.028  0.00  0.00    +0.026 A 
ATOM     16  C   UNL     1      -3.719   7.490  11.126  0.00  0.00    +0.043 A 
ATOM     17  N   UNL     1      -2.870   8.443  10.794  0.00  0.00    -0.380 N 
ATOM     18  C   UNL     1      -1.919   7.920   9.809  0.00  0.00    +0.151 C 
ATOM     19  H   UNL     1      -2.873   9.346  11.149  0.00  0.00    +0.160 HD
ENDBRANCH   6  10
BRANCH   1  25
ATOM     20  C   UNL     1       1.202  -0.672   3.847  0.00  0.00    +0.219 C 
ATOM     21  N   UNL     1       0.636  -0.092   5.085  0.00  0.00    -0.320 N 
ATOM     22  C   UNL     1      -0.546  -0.588   5.505  0.00  0.00    +0.021 C 
ATOM     23  C   UNL     1      -0.904  -1.992   5.047  0.00  0.00    +0.123 C 
ATOM     24  S   UNL     1       0.516  -2.383   3.936  0.00  0.00    -0.114 S 
ATOM     25  C   UNL     1      -1.372   0.129   6.297  0.00  0.00    +0.087 C 
ATOM     26  H   UNL     1       1.093   0.612   5.571  0.00  0.00    +0.148 HD
BRANCH  20  29
ATOM     27  C   UNL     1       1.285  -0.194   1.459  0.00  0.00    +0.218 C 
ATOM     28  O   UNL     1       2.201  -0.984   1.363  0.00  0.00    -0.275 OA
ATOM     29  N   UNL     1       0.715   0.034   2.659  0.00  0.00    -0.288 N 
ATOM     30  H   UNL     1      -0.017   0.665   2.736  0.00  0.00    +0.151 HD
BRANCH  27  32
ATOM     31  C   UNL     1       0.941   2.040   0.440  0.00  0.00    +0.017 C 
ATOM     32  C   UNL     1       0.784   0.532   0.237  0.00  0.00    +0.069 C 
ATOM     33  C   UNL     1       1.596   0.094  -0.984  0.00  0.00    +0.017 C 
ENDBRANCH  27  32
ENDBRANCH  20  29
ENDBRANCH   1  25
TORSDOF 4
