REMARK  Name = ZINC03838552
REMARK  8 active torsions:
REMARK  status: ('A' for Active; 'I' for Inactive)
REMARK    1  A    between atoms: C_1  and  S_2
REMARK    2  A    between atoms: S_2  and  C_3
REMARK    3  A    between atoms: C_3  and  C_4
REMARK    4  A    between atoms: C_9  and  C_12
REMARK    5  A    between atoms: N_14  and  C_15
REMARK    6  A    between atoms: C_15  and  C_17
REMARK    7  A    between atoms: C_15  and  C_23
REMARK    8  A    between atoms: C_17  and  C_18
REMARK                            x       y       z     vdW  Elec       q    Type
REMARK                         _______ _______ _______ _____ _____    ______ ____
ROOT
ATOM      1  C   UNL     1      -2.875   0.462  -1.145  0.00  0.00    +0.201 C 
ATOM      2  O   UNL     1      -2.364   0.800  -2.192  0.00  0.00    -0.278 OA
ATOM      3  N   UNL     1      -2.430   0.977   0.019  0.00  0.00    -0.305 N 
ATOM      4  H   UNL     1      -2.839   0.708   0.856  0.00  0.00    +0.149 HD
ENDROOT
BRANCH   1  10
ATOM      5  C   UNL     1      -4.856  -3.759   0.057  0.00  0.00    +0.225 C 
ATOM      6  O   UNL     1      -4.226  -3.733   1.093  0.00  0.00    -0.275 OA
ATOM      7  N   UNL     1      -4.556  -2.898  -0.936  0.00  0.00    -0.304 N 
ATOM      8  C   UNL     1      -5.307  -2.913  -2.200  0.00  0.00    +0.089 C 
ATOM      9  C   UNL     1      -5.774  -1.485  -2.505  0.00  0.00    -0.062 C 
ATOM     10  C   UNL     1      -4.007  -0.532  -1.145  0.00  0.00    +0.034 C 
ATOM     11  C   UNL     1      -3.467  -1.921  -0.784  0.00  0.00    +0.101 C 
ATOM     12  N   UNL     1      -4.614  -0.573  -2.490  0.00  0.00    +0.389 N 
ATOM     13  H   UNL     1      -4.922   0.371  -2.750  0.00  0.00    -0.085 HD
ATOM     14  H   UNL     1      -3.915  -0.903  -3.166  0.00  0.00    -0.085 HD
BRANCH   5  15
ATOM     15  C   UNL     1      -5.975  -4.753  -0.120  0.00  0.00    +0.164 C 
BRANCH  15  17
ATOM     16  C   UNL     1      -7.501  -6.891   1.009  0.00  0.00    +0.085 C 
ATOM     17  S   UNL     1      -6.130  -5.761   1.380  0.00  0.00    -0.155 S 
ENDBRANCH  15  17
ENDBRANCH   5  15
ENDBRANCH   1  10
BRANCH   3  18
ATOM     18  C   UNL     1      -1.330   1.944   0.019  0.00  0.00    +0.163 C 
BRANCH  18  19
ATOM     19  C   UNL     1      -0.014   1.209   0.009  0.00  0.00    +0.231 C 
ATOM     20  O   UNL     1       0.002  -0.004   0.002  0.00  0.00    -0.274 OA
ATOM     21  N   UNL     1       1.143   1.898   0.001  0.00  0.00    -0.328 N 
ATOM     22  H   UNL     1       1.990   1.425  -0.009  0.00  0.00    +0.145 HD
ATOM     23  H   UNL     1       1.130   2.868   0.007  0.00  0.00    +0.145 HD
ENDBRANCH  18  19
BRANCH  18  24
ATOM     24  C   UNL     1      -1.417   2.816   1.273  0.00  0.00    +0.074 C 
BRANCH  24  25
ATOM     25  C   UNL     1      -2.675   3.644   1.224  0.00  0.00    -0.008 A 
ATOM     26  C   UNL     1      -3.913   3.344   1.687  0.00  0.00    +0.011 A 
ATOM     27  C   UNL     1      -4.928   4.269   1.533  0.00  0.00    +0.008 A 
ATOM     28  C   UNL     1      -4.659   5.444   0.913  0.00  0.00    +0.045 A 
ATOM     29  S   UNL     1      -2.923   5.271   0.532  0.00  0.00    -0.102 S 
ENDBRANCH  24  25
ENDBRANCH  18  24
ENDBRANCH   3  18
TORSDOF 7
