REMARK  Name = ZINC01689685
REMARK  13 active torsions:
REMARK  status: ('A' for Active; 'I' for Inactive)
REMARK    1  A    between atoms: C_1  and  C_2
REMARK    2  A    between atoms: C_2  and  C_3
REMARK    3  A    between atoms: C_2  and  C_4
REMARK    4  A    between atoms: C_4  and  C_6
REMARK    5  A    between atoms: C_4  and  N_51
REMARK    6  A    between atoms: N_8  and  C_9
REMARK    7  A    between atoms: C_9  and  C_11
REMARK    8  A    between atoms: C_9  and  C_14
REMARK    9  A    between atoms: C_11  and  C_12
REMARK   10  A    between atoms: C_11  and  C_13
REMARK   11  A    between atoms: N_16  and  C_17
REMARK   12  A    between atoms: C_20  and  S_23
REMARK   13  A    between atoms: S_23  and  N_26
REMARK                            x       y       z     vdW  Elec       q    Type
REMARK                         _______ _______ _______ _____ _____    ______ ____
ROOT
ATOM      1  C   UNL     1      -0.097   0.775  -4.732  0.00  0.00    +0.162 C 
ENDROOT
BRANCH   1   4
ATOM      2  C   UNL     1       0.167   1.349  -2.379  0.00  0.00    +0.199 C 
ATOM      3  O   UNL     1       1.228   0.762  -2.385  0.00  0.00    -0.278 OA
ATOM      4  N   UNL     1      -0.574   1.414  -3.503  0.00  0.00    -0.305 N 
ATOM      5  H   UNL     1      -1.422   1.884  -3.498  0.00  0.00    +0.149 HD
BRANCH   2   6
ATOM      6  C   UNL     1      -0.323   2.006  -1.114  0.00  0.00    +0.015 C 
BRANCH   6   9
ATOM      7  H   UNL     1       0.140   0.441   0.141  0.00  0.00    -0.089 HD
ATOM      8  H   UNL     1       1.365   1.553  -0.026  0.00  0.00    -0.089 HD
ATOM      9  N   UNL     1       0.357   1.433   0.060  0.00  0.00    +0.386 N 
ATOM     10  H   UNL     1       0.034   1.917   0.907  0.00  0.00    -0.089 HD
ENDBRANCH   6   9
BRANCH   6  12
ATOM     11  C   UNL     1      -0.751   4.119  -2.378  0.00  0.00    +0.006 C 
ATOM     12  C   UNL     1      -0.032   3.507  -1.174  0.00  0.00    -0.023 C 
ATOM     13  C   UNL     1      -0.530   4.175   0.110  0.00  0.00    +0.006 C 
ENDBRANCH   6  12
ENDBRANCH   2   6
ENDBRANCH   1   4
BRANCH   1  14
ATOM     14  C   UNL     1      -0.713   1.460  -5.925  0.00  0.00    +0.238 C 
ATOM     15  O   UNL     1      -1.693   2.160  -5.784  0.00  0.00    -0.273 OA
ATOM     16  N   UNL     1      -0.174   1.294  -7.150  0.00  0.00    -0.284 N 
ATOM     17  H   UNL     1       0.564   0.677  -7.275  0.00  0.00    +0.155 HD
BRANCH  16  18
ATOM     18  C   UNL     1      -0.679   2.012  -8.239  0.00  0.00    +0.034 A 
ATOM     19  C   UNL     1      -2.041   2.269  -8.332  0.00  0.00    +0.025 A 
ATOM     20  C   UNL     1      -2.536   2.982  -9.406  0.00  0.00    +0.030 A 
ATOM     21  C   UNL     1      -1.678   3.431 -10.394  0.00  0.00    +0.105 A 
ATOM     22  C   UNL     1      -0.323   3.172 -10.307  0.00  0.00    +0.030 A 
ATOM     23  C   UNL     1       0.179   2.464  -9.233  0.00  0.00    +0.025 A 
BRANCH  21  24
ATOM     24  S   UNL     1      -2.314   4.336 -11.766  0.00  0.00    +0.056 S 
ATOM     25  O   UNL     1      -3.538   4.916 -11.337  0.00  0.00    -0.153 OA
ATOM     26  O   UNL     1      -1.239   5.114 -12.273  0.00  0.00    -0.153 OA
BRANCH  24  27
ATOM     27  N   UNL     1      -2.698   3.236 -12.942  0.00  0.00    -0.204 NA
ATOM     28  H   UNL     1      -2.554   2.289 -12.787  0.00  0.00    +0.144 HD
ATOM     29  H   UNL     1      -3.068   3.538 -13.787  0.00  0.00    +0.144 HD
ENDBRANCH  24  27
ENDBRANCH  21  24
ENDBRANCH  16  18
ENDBRANCH   1  14
BRANCH   1  30
ATOM     30  C   UNL     1      -0.498  -0.701  -4.728  0.00  0.00    +0.012 C 
ATOM     31  C   UNL     1       0.049  -1.381  -5.985  0.00  0.00    +0.009 C 
ATOM     32  C   UNL     1       0.081  -1.383  -3.487  0.00  0.00    +0.009 C 
ENDBRANCH   1  30
TORSDOF 9
