REMARK  Name = ZINC63351384
REMARK  10 active torsions:
REMARK  status: ('A' for Active; 'I' for Inactive)
REMARK    1  A    between atoms: C_1  and  C_2
REMARK    2  A    between atoms: C_2  and  C_4
REMARK    3  A    between atoms: C_10  and  C_44
REMARK    4  A    between atoms: N_22  and  O_23
REMARK    5  A    between atoms: O_23  and  C_24
REMARK    6  A    between atoms: C_24  and  C_25
REMARK    7  A    between atoms: N_27  and  C_28
REMARK    8  A    between atoms: C_28  and  C_29
REMARK    9  A    between atoms: C_29  and  C_30
REMARK   10  A    between atoms: C_42  and  C_43
REMARK                            x       y       z     vdW  Elec       q    Type
REMARK                         _______ _______ _______ _____ _____    ______ ____
ROOT
ATOM      1  C   UNL     1      -1.291  -0.773   0.016  0.00  0.00    +0.061 C 
ATOM      2  C   UNL     1      -1.793  -0.976  -1.428  0.00  0.00    +0.012 C 
ATOM      3  C   UNL     1      -1.858  -2.502  -1.658  0.00  0.00    +0.005 C 
ATOM      4  C   UNL     1      -2.009  -3.088  -0.223  0.00  0.00    -0.001 C 
ATOM      5  C   UNL     1      -1.068  -2.180   0.585  0.00  0.00    -0.019 C 
ATOM      6  C   UNL     1      -1.323  -2.254   2.074  0.00  0.00    +0.008 C 
ATOM      7  C   UNL     1      -2.785  -1.939   2.379  0.00  0.00    +0.005 C 
ATOM      8  C   UNL     1      -3.678  -2.973   1.675  0.00  0.00    +0.002 C 
ATOM      9  C   UNL     1      -3.481  -2.898   0.167  0.00  0.00    -0.003 C 
ATOM     10  C   UNL     1      -4.289  -3.941  -0.600  0.00  0.00    +0.008 C 
ATOM     11  C   UNL     1      -5.601  -4.292   0.086  0.00  0.00    +0.031 C 
ATOM     12  C   UNL     1      -6.048  -3.127   0.935  0.00  0.00    -0.062 C 
ATOM     13  C   UNL     1      -7.209  -2.532   0.705  0.00  0.00    +0.026 C 
ATOM     14  C   UNL     1      -7.646  -1.390   1.518  0.00  0.00    +0.080 C 
ATOM     15  N   UNL     1      -8.796  -0.837   1.294  0.00  0.00    -0.089 NA
ATOM     16  C   UNL     1      -6.755  -0.862   2.614  0.00  0.00    +0.059 C 
ATOM     17  C   UNL     1      -5.296  -1.164   2.254  0.00  0.00    +0.017 C 
ATOM     18  C   UNL     1      -5.128  -2.643   2.054  0.00  0.00    -0.007 C 
ATOM     19  C   UNL     1      -5.495  -3.374   3.348  0.00  0.00    +0.016 C 
ATOM     20  C   UNL     1       0.379  -2.602   0.321  0.00  0.00    +0.012 C 
ENDROOT
BRANCH   1  22
ATOM     21  C   UNL     1       0.422   0.776   1.234  0.00  0.00    +0.086 C 
ATOM     22  C   UNL     1       0.004  -0.002   0.013  0.00  0.00    +0.134 C 
ATOM     23  O   UNL     1       0.708  -0.009  -0.969  0.00  0.00    -0.297 OA
ENDBRANCH   1  22
BRANCH  15  24
ATOM     24  O   UNL     1      -9.217   0.264   2.079  0.00  0.00    -0.384 OA
BRANCH  24  25
ATOM     25  C   UNL     1     -10.504   0.773   1.723  0.00  0.00    +0.358 C 
BRANCH  25  26
ATOM     26  C   UNL     1     -10.849   1.936   2.618  0.00  0.00    +0.253 C 
ATOM     27  O   UNL     1     -10.070   2.293   3.475  0.00  0.00    -0.272 OA
ATOM     28  N   UNL     1     -12.024   2.579   2.464  0.00  0.00    -0.312 N 
ATOM     29  H   UNL     1     -12.647   2.293   1.778  0.00  0.00    +0.149 HD
BRANCH  28  30
ATOM     30  C   UNL     1     -12.359   3.709   3.333  0.00  0.00    +0.106 C 
BRANCH  30  31
ATOM     31  C   UNL     1     -13.737   4.254   2.952  0.00  0.00    +0.047 C 
BRANCH  31  32
ATOM     32  C   UNL     1     -14.087   5.435   3.860  0.00  0.00    +0.104 C 
ATOM     33  C   UNL     1     -15.473   5.946   3.539  0.00  0.00    +0.007 C 
ATOM     34  C   UNL     1     -15.317   7.231   3.146  0.00  0.00    -0.004 A 
ATOM     35  C   UNL     1     -16.269   8.260   2.709  0.00  0.00    +0.010 A 
ATOM     36  C   UNL     1     -15.802   9.483   2.371  0.00  0.00    +0.001 A 
ATOM     37  C   UNL     1     -14.437   9.793   2.428  0.00  0.00    +0.002 A 
ATOM     38  C   UNL     1     -13.502   8.901   2.820  0.00  0.00    +0.026 A 
ATOM     39  C   UNL     1     -13.880   7.583   3.198  0.00  0.00    +0.043 A 
ATOM     40  N   UNL     1     -13.175   6.556   3.607  0.00  0.00    -0.378 N 
ATOM     41  H   UNL     1     -12.212   6.539   3.723  0.00  0.00    +0.160 HD
ENDBRANCH  31  32
ENDBRANCH  30  31
ENDBRANCH  28  30
ENDBRANCH  25  26
ENDBRANCH  24  25
ENDBRANCH  15  24
TORSDOF 7
