REMARK  Name = ZINC05737799
REMARK  5 active torsions:
REMARK  status: ('A' for Active; 'I' for Inactive)
REMARK    1  A    between atoms: C_1  and  C_2
REMARK    2  A    between atoms: C_5  and  N_9
REMARK    3  A    between atoms: C_6  and  C_8
REMARK    4  A    between atoms: C_13  and  N_14
REMARK    5  A    between atoms: N_14  and  C_15
REMARK                            x       y       z     vdW  Elec       q    Type
REMARK                         _______ _______ _______ _____ _____    ______ ____
ROOT
ATOM      1  N   UNL     1       0.071  -4.209   0.363  0.00  0.00    -0.189 N 
ATOM      2  C   UNL     1      -1.086  -4.865   0.136  0.00  0.00    +0.265 C 
ATOM      3  O   UNL     1      -2.112  -4.257  -0.105  0.00  0.00    -0.269 OA
ATOM      4  C   UNL     1      -1.073  -6.338   0.187  0.00  0.00    +0.113 C 
ATOM      5  C   UNL     1      -2.220  -7.077  -0.036  0.00  0.00    +0.086 C 
ATOM      6  C   UNL     1       0.216  -6.987   0.485  0.00  0.00    +0.258 C 
ATOM      7  O   UNL     1       0.305  -8.199   0.544  0.00  0.00    -0.270 OA
ATOM      8  N   UNL     1       1.293  -6.202   0.691  0.00  0.00    -0.235 N 
ATOM      9  C   UNL     1       1.209  -4.866   0.623  0.00  0.00    +0.320 C 
ATOM     10  O   UNL     1       2.218  -4.216   0.814  0.00  0.00    -0.251 OA
ATOM     11  H   UNL     1       2.149  -6.614   0.889  0.00  0.00    +0.159 HD
ENDROOT
BRANCH   1  16
ATOM     12  C   UNL     1       0.119   1.464   0.187  0.00  0.00    +0.044 C 
ATOM     13  C   UNL     1       0.106  -0.043   0.234  0.00  0.00    -0.050 A 
ATOM     14  C   UNL     1       0.347  -0.771  -0.917  0.00  0.00    +0.005 A 
ATOM     15  C   UNL     1       0.336  -2.151  -0.877  0.00  0.00    +0.024 A 
ATOM     16  C   UNL     1       0.083  -2.808   0.320  0.00  0.00    +0.049 A 
ATOM     17  C   UNL     1      -0.158  -2.075   1.473  0.00  0.00    -0.028 A 
ATOM     18  C   UNL     1      -0.141  -0.694   1.428  0.00  0.00    +0.008 A 
ATOM     19  C   UNL     1      -0.433  -2.784   2.774  0.00  0.00    +0.046 C 
ENDBRANCH   1  16
BRANCH   5  20
ATOM     20  N   UNL     1      -2.146  -8.419  -0.145  0.00  0.00    -0.346 N 
ATOM     21  H   UNL     1      -1.281  -8.858  -0.148  0.00  0.00    +0.146 HD
BRANCH  20  22
ATOM     22  C   UNL     1      -3.372  -9.213  -0.260  0.00  0.00    +0.070 C 
ATOM     23  C   UNL     1      -3.900  -9.574   1.144  0.00  0.00    +0.022 C 
ATOM     24  C   UNL     1      -4.454 -11.012   0.983  0.00  0.00    +0.002 C 
ATOM     25  C   UNL     1      -3.430 -11.667   0.023  0.00  0.00    +0.002 C 
ATOM     26  C   UNL     1      -3.073 -10.543  -0.973  0.00  0.00    +0.022 C 
ENDBRANCH  20  22
ENDBRANCH   5  20
TORSDOF 3
