REMARK  Name = ZINC63589365
REMARK  10 active torsions:
REMARK  status: ('A' for Active; 'I' for Inactive)
REMARK    1  A    between atoms: C_1  and  C_2
REMARK    2  A    between atoms: C_6  and  N_9
REMARK    3  A    between atoms: C_7  and  C_8
REMARK    4  A    between atoms: N_11  and  C_12
REMARK    5  A    between atoms: C_12  and  C_13
REMARK    6  A    between atoms: C_13  and  C_14
REMARK    7  A    between atoms: N_23  and  C_24
REMARK    8  A    between atoms: C_24  and  C_26
REMARK    9  A    between atoms: C_29  and  O_32
REMARK   10  A    between atoms: O_32  and  C_33
REMARK                            x       y       z     vdW  Elec       q    Type
REMARK                         _______ _______ _______ _____ _____    ______ ____
ROOT
ATOM      1  N   UNL     1      -1.052  -3.828   2.211  0.00  0.00    -0.328 N 
ATOM      2  C   UNL     1      -0.203  -4.862   2.481  0.00  0.00    +0.194 C 
ATOM      3  N   UNL     1       0.270  -5.045   3.747  0.00  0.00    -0.357 N 
ATOM      4  N   UNL     1       0.163  -5.688   1.512  0.00  0.00    -0.143 NA
ATOM      5  H   UNL     1       0.917  -5.744   3.927  0.00  0.00    +0.162 HD
ATOM      6  H   UNL     1      -1.990  -4.004   2.034  0.00  0.00    +0.169 HD
ENDROOT
BRANCH   1  12
ATOM      7  C   UNL     1      -1.936   0.998   1.905  0.00  0.00    +0.044 C 
ATOM      8  C   UNL     1      -0.978  -0.156   2.043  0.00  0.00    -0.046 A 
ATOM      9  C   UNL     1       0.381   0.083   2.150  0.00  0.00    +0.004 A 
ATOM     10  C   UNL     1       1.264  -0.974   2.276  0.00  0.00    +0.002 A 
ATOM     11  C   UNL     1       0.792  -2.272   2.297  0.00  0.00    +0.026 A 
ATOM     12  C   UNL     1      -0.571  -2.515   2.191  0.00  0.00    +0.045 A 
ATOM     13  C   UNL     1      -1.456  -1.451   2.069  0.00  0.00    -0.024 A 
ATOM     14  C   UNL     1      -2.937  -1.710   1.959  0.00  0.00    +0.046 C 
ENDBRANCH   1  12
BRANCH   4  15
ATOM     15  C   UNL     1      -0.150  -5.409   0.239  0.00  0.00    +0.270 C 
ATOM     16  O   UNL     1      -0.662  -4.340  -0.041  0.00  0.00    -0.268 OA
BRANCH  15  17
ATOM     17  C   UNL     1       0.126  -6.399  -0.824  0.00  0.00    +0.039 A 
ATOM     18  C   UNL     1       0.602  -7.668  -0.492  0.00  0.00    +0.017 A 
ATOM     19  C   UNL     1       0.858  -8.588  -1.486  0.00  0.00    +0.046 A 
ATOM     20  C   UNL     1       0.643  -8.252  -2.817  0.00  0.00    +0.120 A 
ATOM     21  C   UNL     1       0.169  -6.989  -3.151  0.00  0.00    +0.046 A 
ATOM     22  C   UNL     1      -0.095  -6.067  -2.163  0.00  0.00    +0.017 A 
BRANCH  20  23
ATOM     23  O   UNL     1       0.897  -9.160  -3.793  0.00  0.00    -0.495 OA
ATOM     24  C   UNL     1       0.655  -8.749  -5.141  0.00  0.00    +0.277 C 
ENDBRANCH  20  23
ENDBRANCH  15  17
ENDBRANCH   4  15
BRANCH   3  25
ATOM     25  C   UNL     1      -0.202  -4.185   4.836  0.00  0.00    +0.120 C 
BRANCH  25  26
ATOM     26  C   UNL     1       0.520  -4.561   6.131  0.00  0.00    +0.054 C 
BRANCH  26  27
ATOM     27  C   UNL     1      -0.048  -3.758   7.274  0.00  0.00    -0.040 C 
ATOM     28  C   UNL     1      -1.158  -4.040   7.992  0.00  0.00    -0.001 A 
ATOM     29  C   UNL     1      -2.133  -5.135   7.927  0.00  0.00    +0.010 A 
ATOM     30  C   UNL     1      -3.167  -5.147   8.800  0.00  0.00    +0.001 A 
ATOM     31  C   UNL     1      -3.329  -4.141   9.762  0.00  0.00    +0.002 A 
ATOM     32  C   UNL     1      -2.475  -3.103   9.884  0.00  0.00    +0.026 A 
ATOM     33  C   UNL     1      -1.352  -2.991   9.018  0.00  0.00    +0.043 A 
ATOM     34  N   UNL     1      -0.399  -2.095   8.937  0.00  0.00    -0.380 N 
ATOM     35  C   UNL     1       0.513  -2.479   7.853  0.00  0.00    +0.144 C 
ATOM     36  H   UNL     1      -0.308  -1.312   9.502  0.00  0.00    +0.160 HD
ENDBRANCH  26  27
ENDBRANCH  25  26
ENDBRANCH   3  25
TORSDOF 7
