REMARK  Name = ZINC62054049
REMARK  8 active torsions:
REMARK  status: ('A' for Active; 'I' for Inactive)
REMARK    1  A    between atoms: C_1  and  C_2
REMARK    2  A    between atoms: C_2  and  C_4
REMARK    3  A    between atoms: C_2  and  N_21
REMARK    4  A    between atoms: C_4  and  C_6
REMARK    5  A    between atoms: C_4  and  S_14
REMARK    6  A    between atoms: C_9  and  O_12
REMARK    7  A    between atoms: O_12  and  C_13
REMARK    8  A    between atoms: S_14  and  C_15
REMARK                            x       y       z     vdW  Elec       q    Type
REMARK                         _______ _______ _______ _____ _____    ______ ____
ROOT
ATOM      1  C   UNL     1       0.611  -0.337   1.123  0.00  0.00    +0.062 C 
ENDROOT
BRANCH   1   2
ATOM      2  C   UNL     1       2.048   0.026   1.395  0.00  0.00    -0.036 A 
ATOM      3  C   UNL     1       3.054  -0.502   0.606  0.00  0.00    +0.008 A 
ATOM      4  C   UNL     1       4.372  -0.171   0.854  0.00  0.00    +0.046 A 
ATOM      5  C   UNL     1       4.686   0.692   1.893  0.00  0.00    +0.120 A 
ATOM      6  C   UNL     1       3.675   1.221   2.683  0.00  0.00    +0.046 A 
ATOM      7  C   UNL     1       2.358   0.891   2.428  0.00  0.00    +0.008 A 
BRANCH   5   8
ATOM      8  O   UNL     1       5.982   1.019   2.139  0.00  0.00    -0.495 OA
ATOM      9  C   UNL     1       6.232   1.913   3.225  0.00  0.00    +0.277 C 
ENDBRANCH   5   8
ENDBRANCH   1   2
BRANCH   1  11
ATOM     10  C   UNL     1       0.911  -0.080  -1.344  0.00  0.00    -0.013 C 
ATOM     11  C   UNL     1       0.124   0.404  -0.124  0.00  0.00    -0.061 C 
BRANCH  11  12
ATOM     12  N   UNL     1       0.332   1.848   0.052  0.00  0.00    +0.381 N 
ATOM     13  H   UNL     1      -0.069   2.343  -0.730  0.00  0.00    -0.090 HD
ATOM     14  H   UNL     1      -0.113   2.150   0.905  0.00  0.00    -0.090 HD
ATOM     15  H   UNL     1       1.321   2.042   0.101  0.00  0.00    -0.090 HD
ENDBRANCH  11  12
ENDBRANCH   1  11
BRANCH   1  16
ATOM     16  S   UNL     1       0.479  -2.126   0.854  0.00  0.00    -0.151 S 
BRANCH  16  17
ATOM     17  C   UNL     1      -1.306  -2.421   0.726  0.00  0.00    +0.051 C 
ATOM     18  C   UNL     1      -1.971  -2.128   2.075  0.00  0.00    +0.042 C 
ATOM     19  C   UNL     1      -3.464  -2.455   1.980  0.00  0.00    +0.161 C 
ATOM     20  O   UNL     1      -3.628  -3.822   1.598  0.00  0.00    -0.380 OA
ATOM     21  C   UNL     1      -3.067  -4.143   0.324  0.00  0.00    +0.161 C 
ATOM     22  C   UNL     1      -1.558  -3.884   0.352  0.00  0.00    +0.042 C 
ENDBRANCH  16  17
ENDBRANCH   1  16
TORSDOF 6
