REMARK  Name = ZINC43287366
REMARK  11 active torsions:
REMARK  status: ('A' for Active; 'I' for Inactive)
REMARK    1  A    between atoms: C_1  and  C_2
REMARK    2  A    between atoms: C_2  and  C_4
REMARK    3  A    between atoms: C_2  and  N_19
REMARK    4  A    between atoms: C_4  and  C_6
REMARK    5  A    between atoms: C_4  and  N_12
REMARK    6  A    between atoms: N_12  and  C_13
REMARK    7  A    between atoms: N_12  and  C_16
REMARK    8  A    between atoms: C_13  and  C_14
REMARK    9  A    between atoms: C_14  and  O_15
REMARK   10  A    between atoms: C_16  and  C_17
REMARK   11  A    between atoms: C_16  and  C_18
REMARK                            x       y       z     vdW  Elec       q    Type
REMARK                         _______ _______ _______ _____ _____    ______ ____
ROOT
ATOM      1  C   UNL     1      -1.707  -0.610  -0.250  0.00  0.00    -0.014 C 
ENDROOT
BRANCH   1   2
ATOM      2  C   UNL     1      -2.431  -0.526   1.069  0.00  0.00    -0.021 A 
ATOM      3  C   UNL     1      -1.924  -0.317   2.309  0.00  0.00    +0.025 A 
ATOM      4  C   UNL     1      -2.788  -0.278   3.388  0.00  0.00    +0.025 A 
ATOM      5  C   UNL     1      -4.116  -0.449   3.174  0.00  0.00    +0.060 A 
ATOM      6  S   UNL     1      -4.179  -0.667   1.403  0.00  0.00    -0.102 S 
ATOM      7 BR   UNL     1      -2.127   0.009   5.136  0.00  0.00    -0.050 Br
ENDBRANCH   1   2
BRANCH   1   9
ATOM      8  C   UNL     1      -1.021  -2.145  -2.098  0.00  0.00    +0.022 C 
ATOM      9  C   UNL     1      -1.875  -2.013  -0.836  0.00  0.00    +0.039 C 
BRANCH   9  10
ATOM     10  N   UNL     1      -1.446  -3.011   0.153  0.00  0.00    -0.329 NA
ATOM     11  H   UNL     1      -1.547  -3.947  -0.210  0.00  0.00    +0.118 HD
ATOM     12  H   UNL     1      -0.497  -2.840   0.451  0.00  0.00    +0.118 HD
ENDBRANCH   9  10
ENDBRANCH   1   9
BRANCH   1  13
ATOM     13  N   UNL     1      -2.267   0.379  -1.180  0.00  0.00    +0.389 N 
ATOM     14  H   UNL     1      -1.952   0.177  -2.117  0.00  0.00    -0.080 HD
BRANCH  13  15
ATOM     15  C   UNL     1      -1.821   1.724  -0.793  0.00  0.00    -0.074 C 
ATOM     16  C   UNL     1      -2.171   1.974   0.675  0.00  0.00    -0.013 C 
ATOM     17  C   UNL     1      -0.306   1.832  -0.981  0.00  0.00    -0.013 C 
ENDBRANCH  13  15
BRANCH  13  18
ATOM     18  C   UNL     1      -3.735   0.319  -1.134  0.00  0.00    -0.049 C 
BRANCH  18  19
ATOM     19  C   UNL     1      -4.316   1.201  -2.240  0.00  0.00    +0.137 C 
BRANCH  19  20
ATOM     20  O   UNL     1      -3.955   0.667  -3.516  0.00  0.00    -0.397 OA
ATOM     21  H   UNL     1      -4.291   1.177  -4.265  0.00  0.00    +0.209 HD
ENDBRANCH  19  20
ENDBRANCH  18  19
ENDBRANCH  13  18
ENDBRANCH   1  13
TORSDOF 8
