REMARK  Name = ZINC04729463
REMARK  6 active torsions:
REMARK  status: ('A' for Active; 'I' for Inactive)
REMARK    1  A    between atoms: C_1  and  C_2
REMARK    2  A    between atoms: C_2  and  C_3
REMARK    3  A    between atoms: C_6  and  C_9
REMARK    4  A    between atoms: C_11  and  C_23
REMARK    5  A    between atoms: C_13  and  C_16
REMARK    6  A    between atoms: C_21  and  O_22
REMARK                            x       y       z     vdW  Elec       q    Type
REMARK                         _______ _______ _______ _____ _____    ______ ____
ROOT
ATOM      1  C   UNL     1       1.142   6.945   1.898  0.00  0.00    +0.040 C 
ATOM      2  N   UNL     1       1.119   6.497   0.701  0.00  0.00    -0.299 NA
ATOM      3  C   UNL     1      -0.079   6.003   0.034  0.00  0.00    +0.081 C 
ATOM      4  C   UNL     1      -1.194   6.163   2.167  0.00  0.00    -0.028 C 
ATOM      5  C   UNL     1      -0.081   7.027   2.768  0.00  0.00    +0.044 C 
ATOM      6  N   UNL     1      -1.290   6.470   0.726  0.00  0.00    +0.401 N 
ATOM      7  H   UNL     1      -2.112   5.996   0.331  0.00  0.00    -0.081 HD
ATOM      8  H   UNL     1      -1.386   7.484   0.599  0.00  0.00    -0.081 HD
ENDROOT
BRANCH   3   9
ATOM      9  C   UNL     1      -0.059   4.497   0.026  0.00  0.00    -0.040 A 
ATOM     10  C   UNL     1       1.148   3.822   0.012  0.00  0.00    +0.005 A 
ATOM     11  C   UNL     1       1.167   2.440   0.004  0.00  0.00    +0.020 A 
ATOM     12  C   UNL     1      -0.021   1.732   0.012  0.00  0.00    +0.041 A 
ATOM     13  C   UNL     1      -1.229   2.407   0.021  0.00  0.00    +0.020 A 
ATOM     14  C   UNL     1      -1.247   3.789   0.034  0.00  0.00    +0.005 A 
ATOM     15 CL   UNL     1       0.002  -0.004   0.002  0.00  0.00    -0.084 Cl
ENDBRANCH   3   9
BRANCH   1  19
ATOM     16  C   UNL     1       4.849   8.264   3.493  0.00  0.00    -0.048 A 
ATOM     17  C   UNL     1       4.791   7.773   2.201  0.00  0.00    +0.004 A 
ATOM     18  C   UNL     1       3.590   7.343   1.676  0.00  0.00    +0.010 A 
ATOM     19  C   UNL     1       2.431   7.404   2.453  0.00  0.00    -0.004 A 
ATOM     20  C   UNL     1       2.496   7.905   3.754  0.00  0.00    +0.010 A 
ATOM     21  C   UNL     1       3.705   8.326   4.268  0.00  0.00    +0.004 A 
BRANCH  16  23
ATOM     22  C   UNL     1       6.350  10.220   3.758  0.00  0.00    +0.009 C 
ATOM     23  C   UNL     1       6.165   8.731   4.060  0.00  0.00    +0.032 C 
ENDBRANCH  16  23
ENDBRANCH   1  19
BRANCH   4  24
ATOM     24  C   UNL     1      -2.505   6.481   2.839  0.00  0.00    -0.019 A 
ATOM     25  C   UNL     1      -3.402   7.339   2.233  0.00  0.00    +0.005 A 
ATOM     26  C   UNL     1      -4.605   7.631   2.849  0.00  0.00    +0.000 A 
ATOM     27  C   UNL     1      -4.913   7.065   4.072  0.00  0.00    +0.004 A 
ATOM     28  C   UNL     1      -4.020   6.205   4.681  0.00  0.00    +0.045 A 
ATOM     29  C   UNL     1      -2.814   5.907   4.063  0.00  0.00    +0.118 A 
BRANCH  29  30
ATOM     30  O   UNL     1      -1.936   5.058   4.658  0.00  0.00    -0.507 OA
ATOM     31  H   UNL     1      -1.303   5.495   5.246  0.00  0.00    +0.292 HD
ENDBRANCH  29  30
ENDBRANCH   4  24
TORSDOF 5
