REMARK  Name = ZINC40813436
REMARK  7 active torsions:
REMARK  status: ('A' for Active; 'I' for Inactive)
REMARK    1  A    between atoms: C_1  and  C_2
REMARK    2  A    between atoms: C_5  and  N_9
REMARK    3  A    between atoms: C_10  and  C_12
REMARK    4  A    between atoms: C_13  and  C_35
REMARK    5  A    between atoms: N_21  and  N_22
REMARK    6  A    between atoms: C_23  and  C_25
REMARK    7  A    between atoms: C_29  and  N_31
REMARK                            x       y       z     vdW  Elec       q    Type
REMARK                         _______ _______ _______ _____ _____    ______ ____
ROOT
ATOM      1  C   UNL     1       0.305  -6.310   1.119  0.00  0.00    +0.193 A 
ATOM      2  C   UNL     1       0.425  -7.114   2.219  0.00  0.00    +0.009 A 
ATOM      3  C   UNL     1       0.521  -8.425   1.736  0.00  0.00    +0.042 A 
ATOM      4  C   UNL     1       0.459  -8.366   0.364  0.00  0.00    +0.115 A 
ATOM      5  O   UNL     1       0.321  -7.089   0.013  0.00  0.00    -0.454 OA
ATOM      6  C   UNL     1       0.536  -9.589  -0.514  0.00  0.00    +0.075 C 
ATOM      7  C   UNL     1       1.187 -10.734   0.265  0.00  0.00    +0.014 C 
ATOM      8  C   UNL     1       0.471 -10.954   1.602  0.00  0.00    +0.058 C 
ATOM      9  C   UNL     1       0.664  -9.710   2.456  0.00  0.00    +0.070 C 
ATOM     10  N   UNL     1       0.935  -9.771   3.724  0.00  0.00    -0.184 NA
ATOM     11  C   UNL     1       0.448  -6.676   3.660  0.00  0.00    +0.048 C 
ENDROOT
BRANCH   1  13
ATOM     12  N   UNL     1       0.059  -4.170  -0.022  0.00  0.00    -0.279 N 
ATOM     13  C   UNL     1       0.175  -4.849   1.136  0.00  0.00    +0.284 C 
ATOM     14  O   UNL     1       0.173  -4.251   2.196  0.00  0.00    -0.266 OA
ATOM     15  H   UNL     1      -0.017  -4.651  -0.861  0.00  0.00    +0.155 HD
BRANCH  12  20
ATOM     16  C   UNL     1       0.004   1.503   0.010  0.00  0.00    +0.045 C 
ATOM     17  C   UNL     1       0.019  -0.004   0.002  0.00  0.00    -0.032 A 
ATOM     18  C   UNL     1      -0.725  -0.696  -0.937  0.00  0.00    +0.006 A 
ATOM     19  C   UNL     1      -0.714  -2.077  -0.947  0.00  0.00    +0.023 A 
ATOM     20  C   UNL     1       0.046  -2.772  -0.014  0.00  0.00    +0.035 A 
ATOM     21  C   UNL     1       0.792  -2.075   0.927  0.00  0.00    +0.043 A 
ATOM     22  C   UNL     1       0.781  -0.692   0.929  0.00  0.00    +0.046 A 
ATOM     23 CL   UNL     1       1.718   0.181   2.101  0.00  0.00    -0.083 Cl
ENDBRANCH  12  20
ENDBRANCH   1  13
BRANCH  10  24
ATOM     24  N   UNL     1       1.059 -11.016   4.354  0.00  0.00    -0.203 N 
ATOM     25  C   UNL     1       1.341 -11.080   5.671  0.00  0.00    +0.263 C 
ATOM     26  O   UNL     1       1.487 -10.057   6.312  0.00  0.00    -0.268 OA
ATOM     27  H   UNL     1       0.942 -11.832   3.843  0.00  0.00    +0.178 HD
BRANCH  25  28
ATOM     28  C   UNL     1       1.471 -12.393   6.336  0.00  0.00    +0.041 A 
ATOM     29  C   UNL     1       1.309 -13.570   5.601  0.00  0.00    +0.014 A 
ATOM     30  C   UNL     1       1.433 -14.792   6.227  0.00  0.00    +0.023 A 
ATOM     31  C   UNL     1       1.716 -14.854   7.582  0.00  0.00    +0.071 A 
ATOM     32  C   UNL     1       1.877 -13.690   8.316  0.00  0.00    +0.145 A 
ATOM     33  C   UNL     1       1.763 -12.462   7.699  0.00  0.00    +0.047 A 
ATOM     34 CL   UNL     1       1.868 -16.397   8.364  0.00  0.00    -0.081 Cl
BRANCH  32  35
ATOM     35  N   UNL     1       2.180 -13.765   9.763  0.00  0.00    +0.058 N 
ATOM     36  O   UNL     1       2.321 -12.751  10.404  0.00  0.00    -0.126 OA
ATOM     37  O   UNL     1       2.285 -14.842  10.303  0.00  0.00    -0.126 OA
ENDBRANCH  32  35
ENDBRANCH  25  28
ENDBRANCH  10  24
TORSDOF 5
