REMARK  Name = ZINC40426481
REMARK  12 active torsions:
REMARK  status: ('A' for Active; 'I' for Inactive)
REMARK    1  A    between atoms: C_1  and  C_2
REMARK    2  A    between atoms: C_2  and  C_3
REMARK    3  A    between atoms: C_2  and  C_4
REMARK    4  A    between atoms: C_4  and  C_5
REMARK    5  A    between atoms: C_5  and  C_7
REMARK    6  A    between atoms: C_5  and  N_18
REMARK    7  A    between atoms: N_9  and  C_10
REMARK    8  A    between atoms: N_9  and  C_11
REMARK    9  A    between atoms: N_14  and  C_17
REMARK   10  A    between atoms: C_24  and  C_31
REMARK   11  A    between atoms: N_29  and  C_30
REMARK   12  A    between atoms: C_36  and  C_37
REMARK                            x       y       z     vdW  Elec       q    Type
REMARK                         _______ _______ _______ _____ _____    ______ ____
ROOT
ATOM      1  N   UNL     1      -1.944   1.353  -0.849  0.00  0.00    -0.281 N 
ATOM      2  C   UNL     1      -1.311   1.976  -2.021  0.00  0.00    +0.160 C 
ATOM      3  C   UNL     1      -1.885   3.374  -2.075  0.00  0.00    +0.042 C 
ATOM      4  C   UNL     1      -2.735   3.476  -1.033  0.00  0.00    +0.058 C 
ATOM      5  C   UNL     1      -2.770   2.266  -0.309  0.00  0.00    +0.247 C 
ATOM      6  O   UNL     1      -3.456   2.075   0.678  0.00  0.00    -0.270 OA
ATOM      7  C   UNL     1      -3.461   4.792  -0.842  0.00  0.00    +0.142 C 
ATOM      8  N   UNL     1      -3.175   5.859  -1.816  0.00  0.00    -0.288 N 
ATOM      9  C   UNL     1      -2.298   5.605  -2.807  0.00  0.00    +0.307 C 
ATOM     10  O   UNL     1      -2.055   6.479  -3.616  0.00  0.00    -0.252 OA
ATOM     11  N   UNL     1      -1.684   4.421  -2.929  0.00  0.00    -0.260 N 
ATOM     12  C   UNL     1      -0.745   4.239  -4.038  0.00  0.00    +0.139 C 
ATOM     13  H   UNL     1      -3.609   6.723  -1.747  0.00  0.00    +0.151 HD
ENDROOT
BRANCH   7  14
ATOM     14  C   UNL     1      -4.942   4.515  -0.877  0.00  0.00    -0.011 A 
ATOM     15  C   UNL     1      -5.548   4.149  -2.064  0.00  0.00    +0.006 A 
ATOM     16  C   UNL     1      -6.907   3.896  -2.096  0.00  0.00    +0.000 A 
ATOM     17  C   UNL     1      -7.659   4.007  -0.942  0.00  0.00    +0.001 A 
ATOM     18  C   UNL     1      -7.052   4.372   0.245  0.00  0.00    +0.013 A 
ATOM     19  C   UNL     1      -5.693   4.622   0.279  0.00  0.00    +0.060 A 
BRANCH  19  20
ATOM     20  C   UNL     1      -5.030   5.015   1.574  0.00  0.00    +0.418 C 
ATOM     21  F   UNL     1      -5.989   5.068   2.591  0.00  0.00    -0.166 F 
ATOM     22  F   UNL     1      -4.053   4.070   1.903  0.00  0.00    -0.166 F 
ATOM     23  F   UNL     1      -4.434   6.273   1.430  0.00  0.00    -0.166 F 
ENDBRANCH  19  20
ENDBRANCH   7  14
BRANCH   1  24
ATOM     24  C   UNL     1      -1.720  -0.012  -0.364  0.00  0.00    +0.163 C 
BRANCH  24  25
ATOM     25  C   UNL     1      -2.999  -0.800  -0.475  0.00  0.00    +0.236 C 
ATOM     26  O   UNL     1      -3.999  -0.275  -0.917  0.00  0.00    -0.274 OA
ATOM     27  N   UNL     1      -3.032  -2.090  -0.085  0.00  0.00    -0.300 N 
ATOM     28  C   UNL     1      -1.825  -2.725   0.448  0.00  0.00    +0.132 C 
BRANCH  27  29
ATOM     29  C   UNL     1      -4.276  -2.856  -0.193  0.00  0.00    +0.072 C 
ATOM     30  C   UNL     1      -4.693  -3.354   1.194  0.00  0.00    +0.004 C 
ATOM     31  C   UNL     1      -5.948  -4.220   1.063  0.00  0.00    -0.077 C 
ATOM     32  N   UNL     1      -5.666  -5.369   0.194  0.00  0.00    +0.378 N 
ATOM     33  C   UNL     1      -5.335  -4.901  -1.158  0.00  0.00    -0.077 C 
ATOM     34  C   UNL     1      -4.056  -4.061  -1.112  0.00  0.00    +0.004 C 
ATOM     35  C   UNL     1      -6.849  -6.237   0.133  0.00  0.00    -0.096 C 
ATOM     36  H   UNL     1      -4.887  -5.889   0.568  0.00  0.00    -0.082 HD
ENDBRANCH  27  29
ENDBRANCH  24  25
BRANCH  24  37
ATOM     37  C   UNL     1      -1.275   0.034   1.099  0.00  0.00    +0.035 C 
BRANCH  37  39
ATOM     38  C   UNL     1       0.457   0.921   2.666  0.00  0.00    +0.007 C 
ATOM     39  C   UNL     1       0.094   0.710   1.195  0.00  0.00    -0.015 C 
ATOM     40  C   UNL     1       1.149  -0.178   0.532  0.00  0.00    +0.007 C 
ENDBRANCH  37  39
ENDBRANCH  24  37
ENDBRANCH   1  24
TORSDOF 7
