REMARK  Name = ZINC46368180
REMARK  10 active torsions:
REMARK  status: ('A' for Active; 'I' for Inactive)
REMARK    1  A    between atoms: C_1  and  C_2
REMARK    2  A    between atoms: N_7  and  C_9
REMARK    3  A    between atoms: C_9  and  C_11
REMARK    4  A    between atoms: C_9  and  C_12
REMARK    5  A    between atoms: C_12  and  N_13
REMARK    6  A    between atoms: N_16  and  N_17
REMARK    7  A    between atoms: C_18  and  C_20
REMARK    8  A    between atoms: C_20  and  O_21
REMARK    9  A    between atoms: O_21  and  C_22
REMARK   10  A    between atoms: C_25  and  C_28
REMARK                            x       y       z     vdW  Elec       q    Type
REMARK                         _______ _______ _______ _____ _____    ______ ____
ROOT
ATOM      1  N   UNL     1       1.995  -4.565   1.353  0.00  0.00    -0.300 N 
ATOM      2  C   UNL     1       1.953  -5.895   1.139  0.00  0.00    +0.316 C 
ATOM      3  O   UNL     1       1.355  -6.617   1.913  0.00  0.00    -0.251 OA
ATOM      4  N   UNL     1       2.574  -6.424   0.067  0.00  0.00    -0.218 N 
ATOM      5  H   UNL     1       2.472  -3.989   0.736  0.00  0.00    +0.150 HD
ATOM      6  H   UNL     1       2.544  -7.382  -0.087  0.00  0.00    +0.174 HD
ENDROOT
BRANCH   4   7
ATOM      7  N   UNL     1       3.264  -5.592  -0.825  0.00  0.00    -0.230 N 
ATOM      8  C   UNL     1       3.885  -6.122  -1.898  0.00  0.00    +0.267 C 
ATOM      9  O   UNL     1       3.847  -7.319  -2.090  0.00  0.00    -0.271 OA
ATOM     10  H   UNL     1       3.293  -4.635  -0.671  0.00  0.00    +0.173 HD
BRANCH   8  11
ATOM     11  C   UNL     1       4.626  -5.227  -2.857  0.00  0.00    +0.326 C 
BRANCH  11  12
ATOM     12  O   UNL     1       5.195  -6.018  -3.903  0.00  0.00    -0.483 OA
BRANCH  12  13
ATOM     13  C   UNL     1       5.901  -5.360  -4.858  0.00  0.00    +0.121 A 
ATOM     14  C   UNL     1       6.047  -3.980  -4.785  0.00  0.00    +0.047 A 
ATOM     15  C   UNL     1       6.763  -3.309  -5.751  0.00  0.00    +0.022 A 
ATOM     16  C   UNL     1       7.343  -4.018  -6.807  0.00  0.00    +0.052 A 
ATOM     17  C   UNL     1       7.193  -5.406  -6.877  0.00  0.00    +0.022 A 
ATOM     18  C   UNL     1       6.480  -6.070  -5.903  0.00  0.00    +0.047 A 
BRANCH  16  19
ATOM     19  C   UNL     1       8.088  -3.325  -7.814  0.00  0.00    +0.099 C 
ATOM     20  N   UNL     1       8.678  -2.774  -8.613  0.00  0.00    -0.191 NA
ENDBRANCH  16  19
ENDBRANCH  12  13
ENDBRANCH  11  12
ENDBRANCH   8  11
ENDBRANCH   4   7
BRANCH   1  21
ATOM     21  C   UNL     1       1.320  -3.989   2.519  0.00  0.00    +0.090 C 
BRANCH  21  22
ATOM     22  C   UNL     1       1.403  -2.463   2.455  0.00  0.00    -0.054 C 
ATOM     23  C   UNL     1       0.598  -1.859   3.607  0.00  0.00    -0.012 C 
BRANCH  22  29
ATOM     24  C   UNL     1      -2.636  -2.213  -0.299  0.00  0.00    +0.005 C 
ATOM     25  C   UNL     1      -1.141  -1.893  -0.244  0.00  0.00    -0.031 C 
ATOM     26  C   UNL     1      -0.932  -0.389  -0.444  0.00  0.00    -0.001 C 
ATOM     27  C   UNL     1       0.559  -0.068  -0.309  0.00  0.00    -0.018 C 
ATOM     28  C   UNL     1       1.057  -0.547   1.057  0.00  0.00    -0.078 C 
ATOM     29  N   UNL     1       0.854  -1.996   1.175  0.00  0.00    +0.383 N 
ATOM     30  C   UNL     1      -0.580  -2.305   1.118  0.00  0.00    -0.075 C 
ATOM     31  H   UNL     1       1.327  -2.464   0.417  0.00  0.00    -0.081 HD
ENDBRANCH  22  29
ENDBRANCH  21  22
ENDBRANCH   1  21
TORSDOF 8
