REMARK  Name = ZINC50603597
REMARK  5 active torsions:
REMARK  status: ('A' for Active; 'I' for Inactive)
REMARK    1  A    between atoms: C_6  and  S_7
REMARK    2  A    between atoms: S_7  and  N_10
REMARK    3  A    between atoms: N_10  and  C_11
REMARK    4  A    between atoms: C_11  and  C_12
REMARK    5  A    between atoms: N_20  and  N_21
REMARK                            x       y       z     vdW  Elec       q    Type
REMARK                         _______ _______ _______ _____ _____    ______ ____
ROOT
ATOM      1  S   UNL     1      -1.409  -0.929   0.040  0.00  0.00    +0.062 S 
ATOM      2  O   UNL     1      -1.305  -1.808   1.152  0.00  0.00    -0.153 OA
ATOM      3  O   UNL     1      -2.367   0.119  -0.014  0.00  0.00    -0.153 OA
ENDROOT
BRANCH   1   9
ATOM      4  C   UNL     1       1.200  -0.465   0.723  0.00  0.00    +0.048 A 
ATOM      5  C   UNL     1       2.430   0.151   0.529  0.00  0.00    +0.038 A 
ATOM      6  C   UNL     1       2.590   1.025  -0.528  0.00  0.00    +0.128 A 
ATOM      7  N   UNL     1       1.591   1.281  -1.351  0.00  0.00    -0.236 NA
ATOM      8  C   UNL     1       0.404   0.714  -1.200  0.00  0.00    +0.159 A 
ATOM      9  C   UNL     1       0.172  -0.177  -0.157  0.00  0.00    +0.147 A 
ATOM     10  N   UNL     1      -0.621   1.013  -2.091  0.00  0.00    -0.266 N 
ATOM     11 BR   UNL     1       3.871  -0.205   1.700  0.00  0.00    -0.049 Br
ATOM     12  H   UNL     1      -1.462   0.532  -2.042  0.00  0.00    +0.167 HD
BRANCH  10  13
ATOM     13  N   UNL     1      -0.444   1.984  -3.035  0.00  0.00    -0.255 NA
ATOM     14  H   UNL     1      -1.269   2.089  -3.606  0.00  0.00    +0.140 HD
ATOM     15  H   UNL     1      -0.186   2.862  -2.608  0.00  0.00    +0.140 HD
ENDBRANCH  10  13
ENDBRANCH   1   9
BRANCH   1  16
ATOM     16  N   UNL     1      -1.670  -1.878  -1.291  0.00  0.00    -0.190 NA
ATOM     17  H   UNL     1      -2.389  -1.664  -1.906  0.00  0.00    +0.148 HD
BRANCH  16  18
ATOM     18  C   UNL     1      -0.814  -3.041  -1.541  0.00  0.00    +0.111 C 
BRANCH  18  19
ATOM     19  C   UNL     1      -1.472  -3.943  -2.587  0.00  0.00    +0.027 C 
ATOM     20  C   UNL     1      -1.536  -3.202  -3.932  0.00  0.00    +0.029 C 
ATOM     21  C   UNL     1      -1.911  -4.232  -5.036  0.00  0.00    +0.166 C 
ATOM     22  S   UNL     1      -0.893  -5.675  -4.509  0.00  0.00    -0.031 S 
ATOM     23  O   UNL     1       0.359  -5.627  -5.178  0.00  0.00    -0.174 OA
ATOM     24  O   UNL     1      -1.685  -6.853  -4.590  0.00  0.00    -0.174 OA
ATOM     25  C   UNL     1      -0.643  -5.241  -2.740  0.00  0.00    +0.170 C 
ENDBRANCH  18  19
ENDBRANCH  16  18
ENDBRANCH   1  16
TORSDOF 5
