REMARK  Name = ZINC20504122
REMARK  11 active torsions:
REMARK  status: ('A' for Active; 'I' for Inactive)
REMARK    1  A    between atoms: C_1  and  C_2
REMARK    2  A    between atoms: C_4  and  C_33
REMARK    3  A    between atoms: C_6  and  N_8
REMARK    4  A    between atoms: C_13  and  O_32
REMARK    5  A    between atoms: C_15  and  O_31
REMARK    6  A    between atoms: C_18  and  C_23
REMARK    7  A    between atoms: N_25  and  C_26
REMARK    8  A    between atoms: C_26  and  C_27
REMARK    9  A    between atoms: C_27  and  N_28
REMARK   10  A    between atoms: N_28  and  C_29
REMARK   11  A    between atoms: N_28  and  C_30
REMARK                            x       y       z     vdW  Elec       q    Type
REMARK                         _______ _______ _______ _____ _____    ______ ____
ROOT
ATOM      1  N   UNL     1       0.052  -2.797   2.392  0.00  0.00    -0.296 N 
ATOM      2  C   UNL     1       0.152  -2.120   3.587  0.00  0.00    +0.133 C 
ATOM      3  N   UNL     1       0.275  -2.636   4.781  0.00  0.00    -0.361 N 
ATOM      4  C   UNL     1       0.346  -1.780   5.947  0.00  0.00    +0.126 C 
ATOM      5  C   UNL     1       1.160  -2.370   7.070  0.00  0.00    +0.166 C 
ATOM      6  C   UNL     1       2.652  -2.104   6.904  0.00  0.00    +0.146 C 
ATOM      7  C   UNL     1       2.876  -0.591   6.821  0.00  0.00    +0.048 C 
ATOM      8  C   UNL     1       2.185  -0.056   5.573  0.00  0.00    +0.093 C 
ATOM      9  C   UNL     1       0.718  -0.339   5.588  0.00  0.00    +0.091 C 
ATOM     10  S   UNL     1       0.150  -0.350   3.831  0.00  0.00    -0.086 S 
ATOM     11  H   UNL     1       0.319  -3.599   4.887  0.00  0.00    +0.162 HD
ATOM     12  H   UNL     1       0.301  -3.733   2.343  0.00  0.00    +0.154 HD
ENDROOT
BRANCH   1  18
ATOM     13  C   UNL     1      -2.794   0.660   0.363  0.00  0.00    +0.044 C 
ATOM     14  C   UNL     1      -1.789  -0.456   0.237  0.00  0.00    -0.048 A 
ATOM     15  C   UNL     1      -1.321  -0.826  -1.011  0.00  0.00    +0.006 A 
ATOM     16  C   UNL     1      -0.398  -1.849  -1.131  0.00  0.00    -0.048 A 
ATOM     17  C   UNL     1       0.059  -2.504  -0.005  0.00  0.00    +0.026 A 
ATOM     18  C   UNL     1      -0.409  -2.135   1.250  0.00  0.00    +0.033 A 
ATOM     19  C   UNL     1      -1.332  -1.104   1.367  0.00  0.00    +0.026 A 
ATOM     20  C   UNL     1       0.109  -2.249  -2.493  0.00  0.00    +0.044 C 
ENDBRANCH   1  18
BRANCH   8  21
ATOM     21  C   UNL     1       2.404   1.433   5.492  0.00  0.00    +0.217 C 
ATOM     22  O   UNL     1       1.454   2.186   5.495  0.00  0.00    -0.275 OA
ATOM     23  N   UNL     1       3.656   1.926   5.417  0.00  0.00    -0.314 N 
ATOM     24  H   UNL     1       4.416   1.323   5.415  0.00  0.00    +0.149 HD
BRANCH  23  25
ATOM     25  C   UNL     1       3.869   3.374   5.338  0.00  0.00    +0.119 C 
BRANCH  25  26
ATOM     26  C   UNL     1       5.369   3.665   5.263  0.00  0.00    +0.102 C 
BRANCH  26  27
ATOM     27  N   UNL     1       5.583   5.116   5.184  0.00  0.00    -0.307 NA
ATOM     28  C   UNL     1       5.160   5.779   6.425  0.00  0.00    +0.104 C 
ATOM     29  C   UNL     1       6.985   5.426   4.872  0.00  0.00    +0.104 C 
ENDBRANCH  26  27
ENDBRANCH  25  26
ENDBRANCH  23  25
ENDBRANCH   8  21
BRANCH   6  30
ATOM     30  O   UNL     1       3.361  -2.635   8.026  0.00  0.00    -0.389 OA
ATOM     31  H   UNL     1       4.317  -2.500   7.986  0.00  0.00    +0.210 HD
ENDBRANCH   6  30
BRANCH   5  32
ATOM     32  O   UNL     1       0.944  -3.782   7.107  0.00  0.00    -0.387 OA
ATOM     33  H   UNL     1       1.435  -4.237   7.805  0.00  0.00    +0.210 HD
ENDBRANCH   5  32
TORSDOF 7
