REMARK  Name = ZINC64357305
REMARK  6 active torsions:
REMARK  status: ('A' for Active; 'I' for Inactive)
REMARK    1  A    between atoms: C_7  and  C_10
REMARK    2  A    between atoms: N_12  and  N_13
REMARK    3  A    between atoms: C_14  and  C_16
REMARK    4  A    between atoms: C_16  and  S_17
REMARK    5  A    between atoms: S_17  and  C_18
REMARK    6  A    between atoms: N_23  and  C_24
REMARK                            x       y       z     vdW  Elec       q    Type
REMARK                         _______ _______ _______ _____ _____    ______ ____
ROOT
ATOM      1  N   UNL     1       0.203  -5.517  -0.029  0.00  0.00    -0.233 N 
ATOM      2  C   UNL     1       0.676  -6.779  -0.040  0.00  0.00    +0.239 C 
ATOM      3  O   UNL     1       1.872  -6.979  -0.052  0.00  0.00    -0.273 OA
ATOM      4  H   UNL     1      -0.753  -5.357  -0.019  0.00  0.00    +0.173 HD
ENDROOT
BRANCH   1   7
ATOM      5  C   UNL     1       0.622  -3.174  -0.021  0.00  0.00    +0.258 C 
ATOM      6  O   UNL     1      -0.578  -2.973  -0.009  0.00  0.00    -0.269 OA
ATOM      7  N   UNL     1       1.094  -4.436  -0.032  0.00  0.00    -0.231 N 
ATOM      8  H   UNL     1       2.051  -4.596  -0.042  0.00  0.00    +0.173 HD
BRANCH   5  15
ATOM      9  C   UNL     1      -0.016   1.346   0.009  0.00  0.00    +0.001 A 
ATOM     10  C   UNL     1       1.158   2.116   0.002  0.00  0.00    +0.002 A 
ATOM     11  C   UNL     1       2.384   1.551  -0.012  0.00  0.00    +0.026 A 
ATOM     12  C   UNL     1       2.495   0.083  -0.021  0.00  0.00    +0.043 A 
ATOM     13  N   UNL     1       3.529  -0.711  -0.035  0.00  0.00    -0.380 N 
ATOM     14  C   UNL     1       3.066  -2.103  -0.039  0.00  0.00    +0.154 C 
ATOM     15  C   UNL     1       1.555  -2.042  -0.024  0.00  0.00    +0.044 C 
ATOM     16  C   UNL     1       1.237  -0.701  -0.014  0.00  0.00    +0.008 A 
ATOM     17  C   UNL     1       0.002  -0.004   0.002  0.00  0.00    +0.010 A 
ATOM     18  H   UNL     1       4.456  -0.427  -0.043  0.00  0.00    +0.160 HD
ENDBRANCH   5  15
ENDBRANCH   1   7
BRANCH   2  19
ATOM     19  C   UNL     1      -0.283  -7.943  -0.037  0.00  0.00    +0.169 C 
BRANCH  19  20
ATOM     20  S   UNL     1       0.653  -9.497  -0.054  0.00  0.00    -0.107 S 
BRANCH  20  21
ATOM     21  C   UNL     1      -0.629 -10.780  -0.048  0.00  0.00    +0.255 C 
ATOM     22  N   UNL     1      -1.531 -10.613   1.107  0.00  0.00    -0.218 N 
ATOM     23  N   UNL     1      -2.803 -10.382   0.569  0.00  0.00    -0.063 NA
ATOM     24  N   UNL     1      -2.805 -10.385  -0.659  0.00  0.00    -0.060 NA
ATOM     25  N   UNL     1      -1.532 -10.621  -1.203  0.00  0.00    -0.202 N 
ATOM     26  H   UNL     1      -1.293 -10.654   2.046  0.00  0.00    +0.173 HD
BRANCH  25  27
ATOM     27  C   UNL     1      -1.173 -10.692  -2.622  0.00  0.00    +0.097 C 
ATOM     28  C   UNL     1      -2.242 -10.295  -3.642  0.00  0.00    +0.026 C 
ATOM     29  C   UNL     1      -1.857 -11.766  -3.470  0.00  0.00    +0.026 C 
ENDBRANCH  25  27
ENDBRANCH  20  21
ENDBRANCH  19  20
ENDBRANCH   2  19
TORSDOF 6
