REMARK  Name = ZINC38546298
REMARK  12 active torsions:
REMARK  status: ('A' for Active; 'I' for Inactive)
REMARK    1  A    between atoms: C_1  and  C_2
REMARK    2  A    between atoms: C_2  and  C_3
REMARK    3  A    between atoms: C_5  and  C_16
REMARK    4  A    between atoms: C_6  and  N_8
REMARK    5  A    between atoms: C_9  and  C_11
REMARK    6  A    between atoms: C_16  and  C_18
REMARK    7  A    between atoms: C_16  and  N_28
REMARK    8  A    between atoms: C_21  and  O_26
REMARK    9  A    between atoms: C_23  and  O_24
REMARK   10  A    between atoms: O_24  and  C_25
REMARK   11  A    between atoms: O_26  and  C_27
REMARK   12  A    between atoms: C_31  and  C_34
REMARK                            x       y       z     vdW  Elec       q    Type
REMARK                         _______ _______ _______ _____ _____    ______ ____
ROOT
ATOM      1  C   UNL     1       3.571  -1.254  -2.900  0.00  0.00    -0.001 C 
ENDROOT
BRANCH   1   2
ATOM      2  N   UNL     1       4.041  -0.501  -1.729  0.00  0.00    +0.387 N 
ATOM      3  C   UNL     1       5.459  -0.797  -1.495  0.00  0.00    -0.077 C 
ATOM      4  C   UNL     1       5.932  -0.079  -0.230  0.00  0.00    -0.015 C 
ATOM      5  C   UNL     1       5.747   1.431  -0.407  0.00  0.00    -0.018 C 
ATOM      6  C   UNL     1       4.277   1.721  -0.724  0.00  0.00    -0.015 C 
ATOM      7  C   UNL     1       3.865   0.936  -1.971  0.00  0.00    -0.077 C 
ATOM      8  C   UNL     1       6.143   2.150   0.884  0.00  0.00    +0.007 C 
ATOM      9  H   UNL     1       3.504  -0.772  -0.919  0.00  0.00    -0.080 HD
ENDBRANCH   1   2
BRANCH   1  10
ATOM     10  C   UNL     1       3.751  -2.729  -2.654  0.00  0.00    -0.015 A 
ATOM     11  C   UNL     1       3.916  -3.199  -1.364  0.00  0.00    +0.009 A 
ATOM     12  C   UNL     1       4.081  -4.551  -1.135  0.00  0.00    +0.046 A 
ATOM     13  C   UNL     1       4.081  -5.442  -2.199  0.00  0.00    +0.124 A 
ATOM     14  C   UNL     1       3.916  -4.973  -3.493  0.00  0.00    +0.091 A 
ATOM     15  C   UNL     1       3.744  -3.616  -3.720  0.00  0.00    +0.125 A 
BRANCH  15  16
ATOM     16  O   UNL     1       3.576  -3.155  -4.987  0.00  0.00    -0.495 OA
ATOM     17  C   UNL     1       3.501  -4.131  -6.029  0.00  0.00    +0.277 C 
ENDBRANCH  15  16
BRANCH  13  18
ATOM     18  O   UNL     1       4.244  -6.772  -1.973  0.00  0.00    -0.495 OA
ATOM     19  C   UNL     1       4.410  -7.183  -0.615  0.00  0.00    +0.277 C 
ENDBRANCH  13  18
ENDBRANCH   1  10
BRANCH   1  22
ATOM     20  C   UNL     1      -0.069  -0.581  -2.320  0.00  0.00    -0.008 A 
ATOM     21  C   UNL     1       1.236  -0.849  -2.073  0.00  0.00    +0.015 A 
ATOM     22  C   UNL     1       2.113  -0.958  -3.136  0.00  0.00    -0.028 A 
ATOM     23  C   UNL     1       1.634  -0.792  -4.401  0.00  0.00    +0.074 A 
ATOM     24  S   UNL     1      -0.098  -0.481  -4.102  0.00  0.00    -0.078 S 
BRANCH  23  25
ATOM     25  N   UNL     1       2.320  -0.855  -5.616  0.00  0.00    -0.273 N 
ATOM     26  C   UNL     1       1.690  -0.531  -6.763  0.00  0.00    +0.284 C 
ATOM     27  O   UNL     1       0.559  -0.081  -6.730  0.00  0.00    -0.266 OA
ATOM     28  H   UNL     1       3.249  -1.132  -5.635  0.00  0.00    +0.156 HD
BRANCH  26  29
ATOM     29  C   UNL     1       2.366  -0.722  -8.050  0.00  0.00    +0.189 A 
ATOM     30  C   UNL     1       1.813  -0.527  -9.283  0.00  0.00    +0.054 A 
ATOM     31  C   UNL     1       2.811  -0.825 -10.224  0.00  0.00    +0.042 A 
ATOM     32  C   UNL     1       3.915  -1.184  -9.533  0.00  0.00    +0.196 A 
ATOM     33  O   UNL     1       3.644  -1.116  -8.223  0.00  0.00    -0.458 OA
ENDBRANCH  26  29
ENDBRANCH  23  25
BRANCH  20  35
ATOM     34  C   UNL     1      -1.320   1.053  -0.937  0.00  0.00    +0.009 C 
ATOM     35  C   UNL     1      -1.205  -0.417  -1.343  0.00  0.00    +0.039 C 
ENDBRANCH  20  35
ENDBRANCH   1  22
TORSDOF 8
