REMARK  Name = ZINC12499946
REMARK  12 active torsions:
REMARK  status: ('A' for Active; 'I' for Inactive)
REMARK    1  A    between atoms: C_1  and  C_2
REMARK    2  A    between atoms: C_4  and  O_12
REMARK    3  A    between atoms: C_5  and  C_9
REMARK    4  A    between atoms: C_9  and  C_10
REMARK    5  A    between atoms: C_9  and  C_11
REMARK    6  A    between atoms: O_12  and  C_13
REMARK    7  A    between atoms: C_13  and  C_14
REMARK    8  A    between atoms: N_16  and  C_17
REMARK    9  A    between atoms: C_17  and  N_19
REMARK   10  A    between atoms: N_19  and  C_20
REMARK   11  A    between atoms: C_23  and  S_26
REMARK   12  A    between atoms: S_26  and  N_29
REMARK                            x       y       z     vdW  Elec       q    Type
REMARK                         _______ _______ _______ _____ _____    ______ ____
ROOT
ATOM      1  C   UNL     1      -0.793  -2.868  -4.868  0.00  0.00    +0.256 C 
ATOM      2  O   UNL     1      -1.114  -4.034  -4.777  0.00  0.00    -0.272 OA
ATOM      3  N   UNL     1      -0.411  -2.365  -6.058  0.00  0.00    -0.265 N 
ATOM      4  H   UNL     1      -0.154  -1.433  -6.131  0.00  0.00    +0.157 HD
ENDROOT
BRANCH   3   5
ATOM      5  C   UNL     1      -0.386  -3.158  -7.148  0.00  0.00    +0.141 C 
ATOM      6  S   UNL     1      -0.839  -4.804  -7.020  0.00  0.00    -0.018 S 
BRANCH   5   7
ATOM      7  N   UNL     1      -0.004  -2.655  -8.338  0.00  0.00    -0.297 N 
ATOM      8  H   UNL     1       0.193  -1.709  -8.424  0.00  0.00    +0.154 HD
BRANCH   7   9
ATOM      9  C   UNL     1       0.107  -3.496  -9.450  0.00  0.00    +0.033 A 
ATOM     10  C   UNL     1      -0.894  -4.416  -9.729  0.00  0.00    +0.025 A 
ATOM     11  C   UNL     1      -0.781  -5.246 -10.828  0.00  0.00    +0.030 A 
ATOM     12  C   UNL     1       0.328  -5.161 -11.649  0.00  0.00    +0.105 A 
ATOM     13  C   UNL     1       1.327  -4.245 -11.374  0.00  0.00    +0.030 A 
ATOM     14  C   UNL     1       1.218  -3.409 -10.280  0.00  0.00    +0.025 A 
BRANCH  12  15
ATOM     15  S   UNL     1       0.469  -6.221 -13.049  0.00  0.00    +0.056 S 
ATOM     16  O   UNL     1       1.855  -6.321 -13.346  0.00  0.00    -0.153 OA
ATOM     17  O   UNL     1      -0.336  -7.361 -12.778  0.00  0.00    -0.153 OA
BRANCH  15  18
ATOM     18  N   UNL     1      -0.234  -5.439 -14.329  0.00  0.00    -0.204 NA
ATOM     19  H   UNL     1      -0.620  -4.558 -14.205  0.00  0.00    +0.144 HD
ATOM     20  H   UNL     1      -0.259  -5.862 -15.201  0.00  0.00    +0.144 HD
ENDBRANCH  15  18
ENDBRANCH  12  15
ENDBRANCH   7   9
ENDBRANCH   5   7
ENDBRANCH   3   5
BRANCH   1  21
ATOM     21  C   UNL     1      -0.821  -1.982  -3.649  0.00  0.00    +0.325 C 
BRANCH  21  22
ATOM     22  O   UNL     1      -1.257  -2.740  -2.519  0.00  0.00    -0.482 OA
BRANCH  22  26
ATOM     23  C   UNL     1      -0.729   1.384   0.037  0.00  0.00    +0.045 C 
ATOM     24  C   UNL     1      -1.090  -0.076  -0.046  0.00  0.00    -0.033 A 
ATOM     25  C   UNL     1      -1.006  -0.741  -1.255  0.00  0.00    +0.050 A 
ATOM     26  C   UNL     1      -1.338  -2.085  -1.331  0.00  0.00    +0.125 A 
ATOM     27  C   UNL     1      -1.754  -2.760  -0.192  0.00  0.00    -0.002 A 
ATOM     28  C   UNL     1      -1.837  -2.093   1.014  0.00  0.00    +0.023 A 
ATOM     29  C   UNL     1      -1.500  -0.753   1.089  0.00  0.00    +0.021 A 
ATOM     30 BR   UNL     1      -1.607   0.157   2.743  0.00  0.00    -0.050 Br
BRANCH  27  31
ATOM     31  C   UNL     1      -2.116  -4.221  -0.272  0.00  0.00    +0.016 C 
ATOM     32  C   UNL     1      -1.204  -5.024   0.658  0.00  0.00    +0.012 C 
ATOM     33  C   UNL     1      -3.573  -4.410   0.156  0.00  0.00    +0.012 C 
ENDBRANCH  27  31
ENDBRANCH  22  26
ENDBRANCH  21  22
ENDBRANCH   1  21
TORSDOF 9
