REMARK  Name = ZINC12901582
REMARK  10 active torsions:
REMARK  status: ('A' for Active; 'I' for Inactive)
REMARK    1  A    between atoms: C_1  and  C_2
REMARK    2  A    between atoms: C_2  and  C_3
REMARK    3  A    between atoms: C_14  and  C_16
REMARK    4  A    between atoms: C_16  and  C_18
REMARK    5  A    between atoms: C_16  and  O_19
REMARK    6  A    between atoms: N_22  and  C_25
REMARK    7  A    between atoms: C_25  and  C_26
REMARK    8  A    between atoms: C_26  and  C_27
REMARK    9  A    between atoms: C_27  and  O_28
REMARK   10  A    between atoms: O_28  and  C_29
REMARK                            x       y       z     vdW  Elec       q    Type
REMARK                         _______ _______ _______ _____ _____    ______ ____
ROOT
ATOM      1  C   UNL     1      -5.348   0.220   0.670  0.00  0.00    -0.047 A 
ATOM      2  C   UNL     1      -5.174  -0.834   1.550  0.00  0.00    +0.005 A 
ATOM      3  C   UNL     1      -4.020  -0.932   2.299  0.00  0.00    +0.024 A 
ATOM      4  C   UNL     1      -3.020   0.030   2.176  0.00  0.00    +0.036 A 
ATOM      5  C   UNL     1      -3.207   1.087   1.290  0.00  0.00    -0.027 A 
ATOM      6  C   UNL     1      -4.360   1.180   0.543  0.00  0.00    +0.008 A 
ATOM      7  C   UNL     1      -1.971   1.934   1.395  0.00  0.00    +0.050 C 
ATOM      8  C   UNL     1      -1.260   2.064   0.019  0.00  0.00    +0.088 C 
ATOM      9  C   UNL     1      -0.698   3.514   0.033  0.00  0.00    +0.075 C 
ATOM     10  C   UNL     1      -1.110   4.106   1.398  0.00  0.00    -0.028 C 
ATOM     11  C   UNL     1       0.800   3.306   0.014  0.00  0.00    +0.224 C 
ATOM     12  O   UNL     1       1.629   4.191   0.010  0.00  0.00    -0.275 OA
ATOM     13  N   UNL     1       1.067   1.996   0.003  0.00  0.00    -0.242 N 
ATOM     14  C   UNL     1      -0.014   1.208   0.009  0.00  0.00    +0.225 C 
ATOM     15  O   UNL     1       0.002  -0.004   0.002  0.00  0.00    -0.275 OA
ATOM     16  C   UNL     1      -1.104   1.238   2.409  0.00  0.00    +0.211 C 
ATOM     17  O   UNL     1      -0.007   1.590   2.788  0.00  0.00    -0.277 OA
ATOM     18  N   UNL     1      -1.784   0.148   2.814  0.00  0.00    -0.286 N 
ATOM     19  H   UNL     1      -1.452  -0.483   3.472  0.00  0.00    +0.155 HD
ATOM     20  N   UNL     1      -2.263   3.298   1.801  0.00  0.00    +0.396 N 
ATOM     21  H   UNL     1      -2.392   3.346   2.818  0.00  0.00    -0.083 HD
ATOM     22  H   UNL     1      -3.113   3.633   1.332  0.00  0.00    -0.083 HD
ENDROOT
BRANCH   1  24
ATOM     23  C   UNL     1      -6.420  -0.418  -1.473  0.00  0.00    +0.009 C 
ATOM     24  C   UNL     1      -6.610   0.322  -0.147  0.00  0.00    +0.032 C 
ENDBRANCH   1  24
BRANCH  10  25
ATOM     25  C   UNL     1      -1.485   5.582   1.246  0.00  0.00    +0.098 C 
ATOM     26  C   UNL     1      -1.889   6.148   2.609  0.00  0.00    +0.036 C 
BRANCH  25  27
ATOM     27  O   UNL     1      -0.363   6.309   0.742  0.00  0.00    -0.394 OA
ATOM     28  H   UNL     1      -0.529   7.254   0.620  0.00  0.00    +0.210 HD
ENDBRANCH  25  27
ENDBRANCH  10  25
BRANCH  13  29
ATOM     29  C   UNL     1       2.433   1.466  -0.016  0.00  0.00    +0.118 C 
BRANCH  29  30
ATOM     30  C   UNL     1       2.893   1.292  -1.464  0.00  0.00    +0.047 C 
BRANCH  30  31
ATOM     31  C   UNL     1       4.319   0.738  -1.484  0.00  0.00    +0.161 C 
BRANCH  31  32
ATOM     32  O   UNL     1       4.749   0.576  -2.837  0.00  0.00    -0.383 OA
ATOM     33  C   UNL     1       6.076   0.061  -2.967  0.00  0.00    +0.193 C 
ENDBRANCH  31  32
ENDBRANCH  30  31
ENDBRANCH  29  30
ENDBRANCH  13  29
TORSDOF 7
