REMARK  Name = ZINC64057155
REMARK  6 active torsions:
REMARK  status: ('A' for Active; 'I' for Inactive)
REMARK    1  A    between atoms: C_1  and  C_2
REMARK    2  A    between atoms: C_2  and  C_4
REMARK    3  A    between atoms: C_2  and  S_15
REMARK    4  A    between atoms: C_4  and  C_6
REMARK    5  A    between atoms: S_15  and  C_16
REMARK    6  A    between atoms: N_22  and  C_23
REMARK                            x       y       z     vdW  Elec       q    Type
REMARK                         _______ _______ _______ _____ _____    ______ ____
ROOT
ATOM      1  S   UNL     1       0.856  -0.746  -2.169  0.00  0.00    -0.115 S 
ENDROOT
BRANCH   1   2
ATOM      2  C   UNL     1      -0.309  -0.002  -3.343  0.00  0.00    +0.212 C 
ATOM      3  N   UNL     1      -0.497   1.442  -3.074  0.00  0.00    -0.244 N 
ATOM      4  N   UNL     1      -1.778   1.813  -2.729  0.00  0.00    -0.163 NA
ATOM      5  C   UNL     1      -2.763   0.974  -2.641  0.00  0.00    +0.178 C 
ATOM      6  S   UNL     1      -2.026  -0.601  -3.055  0.00  0.00    -0.054 S 
ATOM      7  N   UNL     1      -4.085   1.238  -2.304  0.00  0.00    -0.293 N 
ATOM      8  H   UNL     1       0.230   2.081  -3.135  0.00  0.00    +0.170 HD
ATOM      9  H   UNL     1      -4.713   0.507  -2.194  0.00  0.00    +0.154 HD
BRANCH   7  10
ATOM     10  C   UNL     1      -4.509   2.557  -2.123  0.00  0.00    +0.033 A 
ATOM     11  C   UNL     1      -3.875   3.592  -2.799  0.00  0.00    +0.023 A 
ATOM     12  C   UNL     1      -4.298   4.894  -2.618  0.00  0.00    +0.002 A 
ATOM     13  C   UNL     1      -5.351   5.168  -1.765  0.00  0.00    +0.000 A 
ATOM     14  C   UNL     1      -5.985   4.141  -1.091  0.00  0.00    +0.002 A 
ATOM     15  C   UNL     1      -5.571   2.836  -1.271  0.00  0.00    +0.023 A 
ENDBRANCH   7  10
ENDBRANCH   1   2
BRANCH   1  17
ATOM     16  C   UNL     1       0.163   1.151  -0.324  0.00  0.00    +0.027 C 
ATOM     17  C   UNL     1       0.146  -0.363  -0.544  0.00  0.00    +0.117 C 
BRANCH  17  18
ATOM     18  C   UNL     1       0.960  -1.036   0.531  0.00  0.00    +0.174 C 
ATOM     19  O   UNL     1       2.125  -1.312   0.327  0.00  0.00    -0.291 OA
BRANCH  18  20
ATOM     20  C   UNL     1       0.369  -1.347   1.774  0.00  0.00    +0.024 C 
ATOM     21  C   UNL     1       0.974  -1.954   2.860  0.00  0.00    +0.006 A 
ATOM     22  C   UNL     1       2.284  -2.436   3.086  0.00  0.00    +0.010 A 
ATOM     23  C   UNL     1       2.608  -2.998   4.272  0.00  0.00    +0.001 A 
ATOM     24  C   UNL     1       1.683  -3.132   5.320  0.00  0.00    +0.002 A 
ATOM     25  C   UNL     1       0.407  -2.705   5.207  0.00  0.00    +0.026 A 
ATOM     26  C   UNL     1      -0.028  -2.079   3.947  0.00  0.00    +0.043 A 
ATOM     27  N   UNL     1      -1.174  -1.588   3.571  0.00  0.00    -0.380 N 
ATOM     28  C   UNL     1      -1.058  -1.079   2.201  0.00  0.00    +0.152 C 
ATOM     29  H   UNL     1      -1.978  -1.560   4.114  0.00  0.00    +0.160 HD
ENDBRANCH  18  20
ENDBRANCH  17  18
ENDBRANCH   1  17
TORSDOF 5
