REMARK  Name = ZINC09850378
REMARK  11 active torsions:
REMARK  status: ('A' for Active; 'I' for Inactive)
REMARK    1  A    between atoms: C_1  and  C_2
REMARK    2  A    between atoms: C_2  and  C_28
REMARK    3  A    between atoms: N_3  and  N_4
REMARK    4  A    between atoms: C_10  and  C_13
REMARK    5  A    between atoms: N_15  and  C_16
REMARK    6  A    between atoms: C_16  and  C_17
REMARK    7  A    between atoms: C_17  and  C_18
REMARK    8  A    between atoms: C_21  and  S_24
REMARK    9  A    between atoms: S_24  and  N_27
REMARK   10  A    between atoms: C_31  and  O_34
REMARK   11  A    between atoms: O_34  and  C_35
REMARK                            x       y       z     vdW  Elec       q    Type
REMARK                         _______ _______ _______ _____ _____    ______ ____
ROOT
ATOM      1  N   UNL     1      -0.054  -1.778   1.381  0.00  0.00    -0.126 NA
ATOM      2  C   UNL     1      -0.031  -2.281   2.598  0.00  0.00    +0.183 C 
ATOM      3  N   UNL     1      -0.108  -3.644   2.815  0.00  0.00    -0.264 N 
ATOM      4  C   UNL     1       0.214  -4.236   3.955  0.00  0.00    +0.220 C 
ATOM      5  O   UNL     1       0.217  -5.449   3.935  0.00  0.00    -0.275 OA
ATOM      6  C   UNL     1       0.573  -3.611   5.259  0.00  0.00    +0.120 C 
ATOM      7  C   UNL     1       1.201  -2.226   5.090  0.00  0.00    +0.148 C 
ATOM      8  S   UNL     1       0.107  -1.238   4.024  0.00  0.00    -0.075 S 
ATOM      9  H   UNL     1      -0.418  -4.203   2.085  0.00  0.00    +0.157 HD
ENDROOT
BRANCH   7  10
ATOM     10  C   UNL     1       1.341  -1.562   6.435  0.00  0.00    +0.227 C 
ATOM     11  O   UNL     1       0.553  -1.816   7.322  0.00  0.00    -0.275 OA
ATOM     12  N   UNL     1       2.342  -0.687   6.654  0.00  0.00    -0.314 N 
ATOM     13  H   UNL     1       2.973  -0.485   5.945  0.00  0.00    +0.149 HD
BRANCH  12  14
ATOM     14  C   UNL     1       2.479  -0.042   7.962  0.00  0.00    +0.109 C 
BRANCH  14  15
ATOM     15  C   UNL     1       3.686   0.898   7.944  0.00  0.00    +0.054 C 
BRANCH  15  16
ATOM     16  C   UNL     1       3.826   1.562   9.290  0.00  0.00    -0.046 A 
ATOM     17  C   UNL     1       3.183   2.759   9.540  0.00  0.00    +0.005 A 
ATOM     18  C   UNL     1       3.312   3.368  10.774  0.00  0.00    +0.029 A 
ATOM     19  C   UNL     1       4.083   2.779  11.758  0.00  0.00    +0.105 A 
ATOM     20  C   UNL     1       4.725   1.581  11.508  0.00  0.00    +0.029 A 
ATOM     21  C   UNL     1       4.593   0.970  10.276  0.00  0.00    +0.005 A 
BRANCH  19  22
ATOM     22  S   UNL     1       4.248   3.556  13.331  0.00  0.00    +0.056 S 
ATOM     23  O   UNL     1       5.463   3.080  13.894  0.00  0.00    -0.153 OA
ATOM     24  O   UNL     1       3.993   4.939  13.130  0.00  0.00    -0.153 OA
BRANCH  22  25
ATOM     25  N   UNL     1       3.025   2.984  14.290  0.00  0.00    -0.204 NA
ATOM     26  H   UNL     1       2.393   2.339  13.937  0.00  0.00    +0.144 HD
ATOM     27  H   UNL     1       2.941   3.294  15.206  0.00  0.00    +0.144 HD
ENDBRANCH  22  25
ENDBRANCH  19  22
ENDBRANCH  15  16
ENDBRANCH  14  15
ENDBRANCH  12  14
ENDBRANCH   7  10
BRANCH   1  30
ATOM     28  C   UNL     1       0.241   1.469  -0.210  0.00  0.00    +0.068 C 
ATOM     29  C   UNL     1       0.002  -0.004   0.002  0.00  0.00    +0.068 C 
ATOM     30  N   UNL     1       0.025  -0.502   1.208  0.00  0.00    -0.152 NA
BRANCH  29  31
ATOM     31  C   UNL     1      -0.257  -0.880  -1.151  0.00  0.00    -0.002 A 
ATOM     32  C   UNL     1      -1.135  -1.963  -1.026  0.00  0.00    +0.013 A 
ATOM     33  C   UNL     1      -1.374  -2.780  -2.109  0.00  0.00    +0.046 A 
ATOM     34  C   UNL     1      -0.746  -2.531  -3.323  0.00  0.00    +0.120 A 
ATOM     35  C   UNL     1       0.127  -1.458  -3.452  0.00  0.00    +0.046 A 
ATOM     36  C   UNL     1       0.368  -0.631  -2.377  0.00  0.00    +0.013 A 
BRANCH  34  37
ATOM     37  O   UNL     1      -0.986  -3.341  -4.388  0.00  0.00    -0.495 OA
ATOM     38  C   UNL     1      -0.307  -3.028  -5.606  0.00  0.00    +0.277 C 
ENDBRANCH  34  37
ENDBRANCH  29  31
ENDBRANCH   1  30
TORSDOF 9
