REMARK  Name = ZINC40687546
REMARK  5 active torsions:
REMARK  status: ('A' for Active; 'I' for Inactive)
REMARK    1  A    between atoms: C_9  and  O_11
REMARK    2  A    between atoms: O_11  and  C_12
REMARK    3  A    between atoms: C_13  and  N_25
REMARK    4  A    between atoms: C_14  and  N_18
REMARK    5  A    between atoms: N_18  and  C_19
REMARK                            x       y       z     vdW  Elec       q    Type
REMARK                         _______ _______ _______ _____ _____    ______ ____
ROOT
ATOM      1  C   UNL     1       0.003  -2.689   0.115  0.00  0.00    +0.246 A 
ATOM      2  C   UNL     1      -0.045  -4.080   0.199  0.00  0.00    +0.128 A 
ATOM      3  C   UNL     1      -1.294  -4.690   0.335  0.00  0.00    +0.151 A 
ATOM      4  N   UNL     1      -2.383  -3.927   0.378  0.00  0.00    -0.218 NA
ATOM      5  C   UNL     1      -2.293  -2.615   0.295  0.00  0.00    +0.227 A 
ATOM      6  N   UNL     1      -1.133  -2.001   0.172  0.00  0.00    -0.199 NA
ENDROOT
BRANCH   2   7
ATOM      7  N   UNL     1       1.129  -4.846   0.149  0.00  0.00    -0.351 N 
ATOM      8  H   UNL     1       1.990  -4.408   0.054  0.00  0.00    +0.143 HD
ATOM      9  H   UNL     1       1.081  -5.813   0.208  0.00  0.00    +0.143 HD
ENDBRANCH   2   7
BRANCH   3  10
ATOM     10  N   UNL     1      -1.399  -6.074   0.422  0.00  0.00    -0.298 N 
ATOM     11  H   UNL     1      -0.598  -6.619   0.478  0.00  0.00    +0.154 HD
BRANCH  10  12
ATOM     12  C   UNL     1      -2.653  -6.679   0.429  0.00  0.00    +0.035 A 
ATOM     13  C   UNL     1      -3.749  -6.061  -0.172  0.00  0.00    +0.041 A 
ATOM     14  C   UNL     1      -4.974  -6.693  -0.144  0.00  0.00    +0.084 A 
ATOM     15  N   UNL     1      -5.117  -7.867   0.442  0.00  0.00    -0.367 N 
ATOM     16  C   UNL     1      -4.105  -8.484   1.022  0.00  0.00    +0.084 A 
ATOM     17  C   UNL     1      -2.845  -7.922   1.033  0.00  0.00    +0.041 A 
ATOM     18  H   UNL     1      -5.991  -8.288   0.448  0.00  0.00    +0.165 HD
ENDBRANCH  10  12
ENDBRANCH   3  10
BRANCH   1  19
ATOM     19  O   UNL     1       1.191  -2.047  -0.017  0.00  0.00    -0.434 OA
BRANCH  19  28
ATOM     20  C   UNL     1       1.246   1.422  -1.140  0.00  0.00    +0.004 A 
ATOM     21  C   UNL     1       1.188   2.108   0.035  0.00  0.00    +0.010 A 
ATOM     22  C   UNL     1       1.129   1.409   1.251  0.00  0.00    +0.004 A 
ATOM     23  C   UNL     1       1.068   2.088   2.483  0.00  0.00    +0.011 A 
ATOM     24  C   UNL     1       1.011   1.344   3.627  0.00  0.00    +0.020 A 
ATOM     25  C   UNL     1       1.014  -0.047   3.552  0.00  0.00    +0.111 A 
ATOM     26  N   UNL     1       1.072  -0.676   2.403  0.00  0.00    -0.251 NA
ATOM     27  C   UNL     1       1.128  -0.007   1.248  0.00  0.00    +0.113 A 
ATOM     28  C   UNL     1       1.189  -0.690   0.014  0.00  0.00    +0.156 A 
ATOM     29  C   UNL     1       1.246   0.030  -1.157  0.00  0.00    +0.048 A 
ENDBRANCH  19  28
ENDBRANCH   1  19
TORSDOF 5
