REMARK  Name = ZINC13573991
REMARK  9 active torsions:
REMARK  status: ('A' for Active; 'I' for Inactive)
REMARK    1  A    between atoms: C_1  and  C_2
REMARK    2  A    between atoms: C_6  and  N_8
REMARK    3  A    between atoms: N_11  and  C_16
REMARK    4  A    between atoms: C_13  and  C_15
REMARK    5  A    between atoms: C_16  and  N_17
REMARK    6  A    between atoms: N_17  and  C_18
REMARK    7  A    between atoms: C_24  and  C_35
REMARK    8  A    between atoms: C_26  and  N_28
REMARK    9  A    between atoms: N_31  and  C_34
REMARK                            x       y       z     vdW  Elec       q    Type
REMARK                         _______ _______ _______ _____ _____    ______ ____
ROOT
ATOM      1  C   UNL     1       0.796  -4.431   8.386  0.00  0.00    +0.033 A 
ATOM      2  C   UNL     1       0.663  -5.799   8.647  0.00  0.00    +0.025 A 
ATOM      3  C   UNL     1       0.564  -6.261   9.922  0.00  0.00    +0.030 A 
ATOM      4  C   UNL     1       0.596  -5.360  11.001  0.00  0.00    +0.073 A 
ATOM      5  C   UNL     1       0.732  -3.974  10.743  0.00  0.00    +0.005 A 
ATOM      6  C   UNL     1       0.837  -3.521   9.419  0.00  0.00    +0.033 A 
ATOM      7  C   UNL     1       0.764  -3.074  11.828  0.00  0.00    -0.038 A 
ATOM      8  C   UNL     1       0.662  -3.578  13.089  0.00  0.00    +0.047 A 
ATOM      9  C   UNL     1       0.530  -4.961  13.280  0.00  0.00    +0.122 A 
ATOM     10  N   UNL     1       0.501  -5.797  12.263  0.00  0.00    -0.232 NA
ATOM     11  C   UNL     1       0.907  -1.591  11.597  0.00  0.00    +0.044 C 
ENDROOT
BRANCH   9  12
ATOM     12  N   UNL     1       0.428  -5.460  14.570  0.00  0.00    -0.319 N 
ATOM     13  C   UNL     1       0.521  -6.905  14.832  0.00  0.00    +0.088 C 
ATOM     14  C   UNL     1       1.547  -7.131  15.947  0.00  0.00    -0.060 C 
ATOM     15  N   UNL     1       1.181  -6.326  17.119  0.00  0.00    +0.380 N 
ATOM     16  C   UNL     1       1.264  -4.897  16.790  0.00  0.00    -0.060 C 
ATOM     17  C   UNL     1       0.230  -4.559  15.716  0.00  0.00    +0.088 C 
ATOM     18  C   UNL     1       2.100  -6.626  18.224  0.00  0.00    -0.096 C 
ATOM     19  H   UNL     1       0.238  -6.551  17.399  0.00  0.00    -0.082 HD
ENDBRANCH   9  12
BRANCH   1  20
ATOM     20  N   UNL     1       0.895  -3.984   7.063  0.00  0.00    -0.297 N 
ATOM     21  H   UNL     1       1.571  -3.332   6.821  0.00  0.00    +0.154 HD
BRANCH  20  22
ATOM     22  C   UNL     1       0.050  -4.458   6.127  0.00  0.00    +0.137 C 
ATOM     23  S   UNL     1      -1.071  -5.688   6.529  0.00  0.00    -0.018 S 
BRANCH  22  27
ATOM     24  N   UNL     1      -0.562  -2.173   2.914  0.00  0.00    -0.324 N 
ATOM     25  C   UNL     1       0.424  -1.746   3.916  0.00  0.00    +0.124 C 
ATOM     26  C   UNL     1       1.117  -2.991   4.483  0.00  0.00    +0.125 C 
ATOM     27  N   UNL     1       0.088  -3.965   4.873  0.00  0.00    -0.309 N 
ATOM     28  C   UNL     1      -0.899  -4.392   3.871  0.00  0.00    +0.129 C 
ATOM     29  C   UNL     1      -1.595  -3.143   3.305  0.00  0.00    +0.088 C 
ATOM     30  C   UNL     1      -2.429  -3.527   2.082  0.00  0.00    +0.029 C 
BRANCH  24  36
ATOM     31  C   UNL     1       1.220  -2.383  -1.661  0.00  0.00    +0.044 C 
ATOM     32  C   UNL     1       0.333  -1.744  -0.624  0.00  0.00    -0.049 A 
ATOM     33  C   UNL     1      -0.445  -0.650  -0.959  0.00  0.00    +0.003 A 
ATOM     34  C   UNL     1      -1.260  -0.061  -0.011  0.00  0.00    +0.002 A 
ATOM     35  C   UNL     1      -1.301  -0.564   1.275  0.00  0.00    +0.023 A 
ATOM     36  C   UNL     1      -0.523  -1.662   1.615  0.00  0.00    +0.030 A 
ATOM     37  C   UNL     1       0.292  -2.255   0.658  0.00  0.00    +0.026 A 
ENDBRANCH  24  36
ENDBRANCH  22  27
ENDBRANCH  20  22
ENDBRANCH   1  20
TORSDOF 5
