REMARK  Name = ZINC12212582
REMARK  13 active torsions:
REMARK  status: ('A' for Active; 'I' for Inactive)
REMARK    1  A    between atoms: C_1  and  C_2
REMARK    2  A    between atoms: C_2  and  O_3
REMARK    3  A    between atoms: O_3  and  C_4
REMARK    4  A    between atoms: C_8  and  C_11
REMARK    5  A    between atoms: C_9  and  O_10
REMARK    6  A    between atoms: C_11  and  N_62
REMARK    7  A    between atoms: C_12  and  N_62
REMARK    8  A    between atoms: C_15  and  N_18
REMARK    9  A    between atoms: C_20  and  C_23
REMARK   10  A    between atoms: N_25  and  C_26
REMARK   11  A    between atoms: C_26  and  C_27
REMARK   12  A    between atoms: C_27  and  C_28
REMARK   13  A    between atoms: C_27  and  C_29
REMARK                            x       y       z     vdW  Elec       q    Type
REMARK                         _______ _______ _______ _____ _____    ______ ____
ROOT
ATOM      1  C   UNL     1       4.503  -4.569  -4.825  0.00  0.00    -0.071 C 
ATOM      2  C   UNL     1       4.507  -6.087  -4.636  0.00  0.00    -0.014 C 
ATOM      3  C   UNL     1       5.182  -6.749  -5.839  0.00  0.00    +0.025 C 
ATOM      4  C   UNL     1       6.622  -6.246  -5.956  0.00  0.00    +0.109 C 
ATOM      5  C   UNL     1       6.617  -4.728  -6.146  0.00  0.00    +0.025 C 
ATOM      6  C   UNL     1       5.942  -4.065  -4.943  0.00  0.00    -0.014 C 
ENDROOT
BRANCH   4   7
ATOM      7  N   UNL     1       7.359  -6.583  -4.736  0.00  0.00    -0.248 N 
ATOM      8  C   UNL     1       8.448  -5.952  -4.254  0.00  0.00    +0.143 A 
ATOM      9  C   UNL     1       8.801  -6.595  -3.102  0.00  0.00    +0.167 A 
ATOM     10  N   UNL     1       7.939  -7.606  -2.898  0.00  0.00    -0.125 NA
ATOM     11  N   UNL     1       7.070  -7.629  -3.847  0.00  0.00    -0.065 NA
BRANCH   9  12
ATOM     12  C   UNL     1       9.939  -6.243  -2.232  0.00  0.00    +0.266 C 
ATOM     13  O   UNL     1      10.655  -5.302  -2.518  0.00  0.00    -0.268 OA
ATOM     14  N   UNL     1      10.185  -6.963  -1.119  0.00  0.00    -0.310 N 
ATOM     15  H   UNL     1       9.614  -7.713  -0.891  0.00  0.00    +0.149 HD
BRANCH  14  16
ATOM     16  C   UNL     1      11.314  -6.613  -0.255  0.00  0.00    +0.107 C 
BRANCH  16  17
ATOM     17  C   UNL     1      11.369  -7.580   0.929  0.00  0.00    -0.000 C 
ATOM     18  C   UNL     1      11.671  -8.992   0.421  0.00  0.00    +0.009 C 
ATOM     19  C   UNL     1      12.470  -7.141   1.896  0.00  0.00    +0.009 C 
ENDBRANCH  16  17
ENDBRANCH  14  16
ENDBRANCH   9  12
ENDBRANCH   4   7
BRANCH   1  20
ATOM     20  N   UNL     1       3.860  -3.929  -3.662  0.00  0.00    +0.384 N 
ATOM     21  H   UNL     1       4.085  -4.463  -2.815  0.00  0.00    -0.085 HD
ATOM     22  H   UNL     1       4.211  -2.969  -3.566  0.00  0.00    -0.085 HD
BRANCH  20  23
ATOM     23  C   UNL     1       2.396  -3.895  -3.841  0.00  0.00    -0.043 C 
BRANCH  23  28
ATOM     24  C   UNL     1       1.174  -1.252  -1.422  0.00  0.00    +0.162 A 
ATOM     25  C   UNL     1       0.609  -2.034  -0.427  0.00  0.00    +0.049 A 
ATOM     26  C   UNL     1       0.624  -3.412  -0.540  0.00  0.00    +0.004 A 
ATOM     27  C   UNL     1       1.202  -4.012  -1.644  0.00  0.00    +0.005 A 
ATOM     28  C   UNL     1       1.767  -3.237  -2.639  0.00  0.00    -0.019 A 
ATOM     29  C   UNL     1       1.751  -1.856  -2.535  0.00  0.00    +0.160 A 
BRANCH  29  30
ATOM     30  O   UNL     1       2.301  -1.092  -3.516  0.00  0.00    -0.503 OA
ATOM     31  H   UNL     1       3.239  -0.897  -3.383  0.00  0.00    +0.292 HD
ENDBRANCH  29  30
BRANCH  24  32
ATOM     32  O   UNL     1       1.161   0.103  -1.312  0.00  0.00    -0.489 OA
BRANCH  32  34
ATOM     33  C   UNL     1       0.627   2.181  -0.198  0.00  0.00    +0.048 C 
ATOM     34  C   UNL     1       0.547   0.654  -0.145  0.00  0.00    +0.226 C 
ENDBRANCH  32  34
ENDBRANCH  24  32
ENDBRANCH  23  28
ENDBRANCH  20  23
ENDBRANCH   1  20
TORSDOF 10
