REMARK  Name = ZINC47848595
REMARK  4 active torsions:
REMARK  status: ('A' for Active; 'I' for Inactive)
REMARK    1  A    between atoms: C_4  and  N_7
REMARK    2  A    between atoms: N_9  and  C_31
REMARK    3  A    between atoms: N_20  and  C_21
REMARK    4  A    between atoms: C_31  and  C_32
REMARK                            x       y       z     vdW  Elec       q    Type
REMARK                         _______ _______ _______ _____ _____    ______ ____
ROOT
ATOM      1  N   UNL     1       3.620  -0.649  -0.036  0.00  0.00    -0.300 N 
ATOM      2  C   UNL     1       4.960  -0.060  -0.142  0.00  0.00    +0.217 C 
ATOM      3  N   UNL     1       5.937  -1.148  -0.118  0.00  0.00    -0.275 N 
ATOM      4  C   UNL     1       5.312  -2.332  -0.008  0.00  0.00    +0.241 C 
ATOM      5  O   UNL     1       5.858  -3.414   0.038  0.00  0.00    -0.273 OA
ATOM      6  C   UNL     1       3.825  -2.100   0.056  0.00  0.00    +0.115 C 
ATOM      7  C   UNL     1       3.137  -2.799  -1.117  0.00  0.00    +0.054 C 
ATOM      8  C   UNL     1       1.633  -2.507  -1.071  0.00  0.00    +0.112 C 
ATOM      9  N   UNL     1       1.119  -2.886   0.252  0.00  0.00    -0.285 N 
ATOM     10  C   UNL     1       1.764  -2.328   1.448  0.00  0.00    +0.112 C 
ATOM     11  C   UNL     1       3.267  -2.622   1.380  0.00  0.00    +0.054 C 
ATOM     12  C   UNL     1       0.074  -3.730   0.367  0.00  0.00    +0.303 C 
ATOM     13  O   UNL     1      -0.394  -4.256  -0.625  0.00  0.00    -0.253 OA
ATOM     14  N   UNL     1      -0.452  -3.990   1.580  0.00  0.00    -0.294 N 
ATOM     15  H   UNL     1      -0.127  -3.517   2.361  0.00  0.00    +0.151 HD
ENDROOT
BRANCH  14  16
ATOM     16  C   UNL     1      -1.515  -4.989   1.718  0.00  0.00    +0.037 C 
ATOM     17  C   UNL     1      -2.720  -4.572   0.874  0.00  0.00    +0.029 C 
ATOM     18  C   UNL     1      -3.830  -5.615   1.018  0.00  0.00    -0.008 C 
ATOM     19  C   UNL     1      -4.246  -5.717   2.487  0.00  0.00    +0.007 C 
ATOM     20  C   UNL     1      -3.041  -6.135   3.331  0.00  0.00    -0.008 C 
ATOM     21  C   UNL     1      -1.931  -5.091   3.187  0.00  0.00    +0.029 C 
ATOM     22  C   UNL     1      -2.528  -7.494   2.851  0.00  0.00    +0.007 C 
ATOM     23  C   UNL     1      -2.112  -7.392   1.382  0.00  0.00    -0.008 C 
ATOM     24  C   UNL     1      -3.318  -6.974   0.538  0.00  0.00    +0.007 C 
ATOM     25  C   UNL     1      -1.002  -6.349   1.237  0.00  0.00    +0.029 C 
ENDBRANCH  14  16
BRANCH   1  29
ATOM     26  C   UNL     1      -0.017   1.379   0.010  0.00  0.00    +0.000 A 
ATOM     27  C   UNL     1       1.169   2.089  -0.021  0.00  0.00    +0.002 A 
ATOM     28  C   UNL     1       2.377   1.420  -0.037  0.00  0.00    +0.023 A 
ATOM     29  C   UNL     1       2.400   0.031  -0.020  0.00  0.00    +0.032 A 
ATOM     30  C   UNL     1       1.207  -0.680   0.011  0.00  0.00    +0.023 A 
ATOM     31  C   UNL     1       0.003  -0.004   0.026  0.00  0.00    +0.002 A 
ENDBRANCH   1  29
BRANCH   3  32
ATOM     32  C   UNL     1       7.389  -0.972  -0.203  0.00  0.00    +0.205 C 
BRANCH  32  33
ATOM     33  C   UNL     1       7.958  -0.817   1.184  0.00  0.00    +0.233 C 
ATOM     34  O   UNL     1       7.223  -0.850   2.148  0.00  0.00    -0.274 OA
ATOM     35  N   UNL     1       9.283  -0.641   1.353  0.00  0.00    -0.300 N 
ATOM     36  C   UNL     1      10.283  -0.576   0.277  0.00  0.00    +0.108 C 
ATOM     37  C   UNL     1      11.663  -0.393   0.944  0.00  0.00    +0.020 C 
ATOM     38  C   UNL     1      11.429  -0.932   2.380  0.00  0.00    +0.020 C 
ATOM     39  C   UNL     1       9.970  -0.477   2.647  0.00  0.00    +0.108 C 
ENDBRANCH  32  33
ENDBRANCH   3  32
TORSDOF 4
