REMARK  Name = ZINC49079655
REMARK  6 active torsions:
REMARK  status: ('A' for Active; 'I' for Inactive)
REMARK    1  A    between atoms: C_3  and  O_8
REMARK    2  A    between atoms: O_8  and  C_9
REMARK    3  A    between atoms: C_9  and  C_10
REMARK    4  A    between atoms: C_10  and  C_11
REMARK    5  A    between atoms: C_11  and  S_12
REMARK    6  A    between atoms: S_12  and  C_13
REMARK                            x       y       z     vdW  Elec       q    Type
REMARK                         _______ _______ _______ _____ _____    ______ ____
ROOT
ATOM      1  C   UNL     1       5.958   2.290  -0.043  0.00  0.00    +0.052 C 
ENDROOT
BRANCH   1   2
ATOM      2  C   UNL     1       4.757   1.342  -0.036  0.00  0.00    +0.230 C 
BRANCH   2   3
ATOM      3  O   UNL     1       3.548   2.104  -0.021  0.00  0.00    -0.492 OA
BRANCH   3   6
ATOM      4  C   UNL     1      -0.017   1.378   0.010  0.00  0.00    +0.005 A 
ATOM      5  C   UNL     1       1.170   2.087   0.002  0.00  0.00    +0.046 A 
ATOM      6  C   UNL     1       2.380   1.410  -0.013  0.00  0.00    +0.121 A 
ATOM      7  C   UNL     1       2.397   0.022  -0.021  0.00  0.00    +0.060 A 
ATOM      8  C   UNL     1       1.208  -0.682  -0.013  0.00  0.00    +0.017 A 
ATOM      9  C   UNL     1       0.002  -0.004   0.002  0.00  0.00    +0.014 A 
ATOM     10  I   UNL     1       1.232  -2.776  -0.025  0.00  0.00    -0.044 I 
ENDBRANCH   3   6
ENDBRANCH   2   3
ENDBRANCH   1   2
BRANCH   1  11
ATOM     11  C   UNL     1       7.252   1.473  -0.060  0.00  0.00    +0.080 C 
BRANCH  11  12
ATOM     12  S   UNL     1       8.676   2.597  -0.068  0.00  0.00    -0.093 S 
BRANCH  12  13
ATOM     13  C   UNL     1      10.069   1.519  -0.087  0.00  0.00    +0.123 C 
ATOM     14  N   UNL     1      11.203   1.905  -0.673  0.00  0.00    -0.382 N 
ATOM     15  N   UNL     1       9.990   0.317   0.485  0.00  0.00    -0.340 N 
ATOM     16  H   UNL     1      11.260   2.779  -1.090  0.00  0.00    +0.158 HD
ATOM     17  H   UNL     1       9.166   0.036   0.911  0.00  0.00    +0.144 HD
ATOM     18  H   UNL     1      10.758  -0.276   0.474  0.00  0.00    +0.144 HD
ATOM     19  H   UNL     1      11.970   1.311  -0.684  0.00  0.00    +0.158 HD
ENDBRANCH  12  13
ENDBRANCH  11  12
ENDBRANCH   1  11
TORSDOF 6
