REMARK  Name = ZINC40427240
REMARK  2 active torsions:
REMARK  status: ('A' for Active; 'I' for Inactive)
REMARK    1  A    between atoms: N_20  and  S_23
REMARK    2  A    between atoms: S_23  and  C_26
REMARK                            x       y       z     vdW  Elec       q    Type
REMARK                         _______ _______ _______ _____ _____    ______ ____
ROOT
ATOM      1  C   UNL     1       0.251   1.452  -0.218  0.00  0.00    +0.001 A 
ATOM      2  C   UNL     1       1.484   2.081  -0.182  0.00  0.00    +0.004 A 
ATOM      3  C   UNL     1       2.649   1.339  -0.118  0.00  0.00    +0.047 A 
ATOM      4  C   UNL     1       2.582  -0.043  -0.080  0.00  0.00    +0.139 A 
ATOM      5  C   UNL     1       1.336  -0.678  -0.074  0.00  0.00    +0.055 A 
ATOM      6  C   UNL     1       0.170   0.074  -0.167  0.00  0.00    +0.015 A 
ATOM      7  C   UNL     1       1.291  -2.146   0.103  0.00  0.00    +0.110 C 
ATOM      8  N   UNL     1       1.848  -2.681   1.244  0.00  0.00    -0.298 N 
ATOM      9  C   UNL     1       3.201  -2.502   1.571  0.00  0.00    +0.075 A 
ATOM     10  C   UNL     1       3.688  -3.289   2.618  0.00  0.00    +0.027 A 
ATOM     11  C   UNL     1       5.003  -3.193   3.019  0.00  0.00    +0.002 A 
ATOM     12  C   UNL     1       5.852  -2.308   2.380  0.00  0.00    +0.004 A 
ATOM     13  C   UNL     1       5.379  -1.528   1.346  0.00  0.00    +0.048 A 
ATOM     14  C   UNL     1       4.048  -1.618   0.931  0.00  0.00    +0.150 A 
ATOM     15  O   UNL     1       3.693  -0.808  -0.091  0.00  0.00    -0.453 OA
ATOM     16  N   UNL     1       0.740  -2.912  -0.795  0.00  0.00    -0.357 N 
ATOM     17  C   UNL     1      -0.027  -2.307  -1.846  0.00  0.00    +0.119 C 
ATOM     18  C   UNL     1      -1.466  -2.122  -1.337  0.00  0.00    +0.038 C 
ATOM     19  C   UNL     1      -2.227  -3.381  -1.377  0.00  0.00    +0.111 C 
ATOM     20  N   UNL     1      -1.552  -4.418  -0.560  0.00  0.00    -0.175 NA
ATOM     21  C   UNL     1      -0.396  -5.098  -1.074  0.00  0.00    +0.130 C 
ATOM     22  C   UNL     1       0.932  -4.385  -0.702  0.00  0.00    +0.134 C 
ATOM     23  H   UNL     1       1.286  -3.199   1.841  0.00  0.00    +0.154 HD
ENDROOT
BRANCH  20  24
ATOM     24  S   UNL     1      -2.130  -4.791   0.946  0.00  0.00    +0.061 S 
ATOM     25  O   UNL     1      -1.041  -5.340   1.674  0.00  0.00    -0.153 OA
ATOM     26  O   UNL     1      -2.853  -3.654   1.397  0.00  0.00    -0.153 OA
BRANCH  24  27
ATOM     27  C   UNL     1      -3.306  -6.088   0.745  0.00  0.00    +0.107 A 
ATOM     28  C   UNL     1      -4.638  -5.786   0.527  0.00  0.00    +0.028 A 
ATOM     29  C   UNL     1      -5.561  -6.802   0.370  0.00  0.00    +0.003 A 
ATOM     30  C   UNL     1      -5.154  -8.122   0.430  0.00  0.00    +0.020 A 
ATOM     31  C   UNL     1      -3.821  -8.425   0.648  0.00  0.00    +0.043 A 
ATOM     32  C   UNL     1      -2.897  -7.407   0.799  0.00  0.00    +0.048 A 
ATOM     33 CL   UNL     1      -3.309 -10.082   0.724  0.00  0.00    -0.083 Cl
ENDBRANCH  24  27
ENDBRANCH  20  24
TORSDOF 2
