REMARK  Name = ZINC63139554
REMARK  7 active torsions:
REMARK  status: ('A' for Active; 'I' for Inactive)
REMARK    1  A    between atoms: C_1  and  O_2
REMARK    2  A    between atoms: O_2  and  C_3
REMARK    3  A    between atoms: C_3  and  C_5
REMARK    4  A    between atoms: C_8  and  C_11
REMARK    5  A    between atoms: N_30  and  C_33
REMARK    6  A    between atoms: C_33  and  C_34
REMARK    7  A    between atoms: C_34  and  C_35
REMARK                            x       y       z     vdW  Elec       q    Type
REMARK                         _______ _______ _______ _____ _____    ______ ____
ROOT
ATOM      1  C   UNL     1      -1.413  -6.381  -0.019  0.00  0.00    +0.133 C 
ATOM      2  C   UNL     1      -1.647  -6.877   1.408  0.00  0.00    +0.131 C 
ATOM      3  C   UNL     1      -3.120  -6.609   1.706  0.00  0.00    -0.034 C 
ATOM      4  C   UNL     1      -3.157  -5.775   2.736  0.00  0.00    -0.001 A 
ATOM      5  C   UNL     1      -4.282  -5.187   3.481  0.00  0.00    +0.010 A 
ATOM      6  C   UNL     1      -3.954  -4.350   4.501  0.00  0.00    +0.001 A 
ATOM      7  C   UNL     1      -2.635  -4.044   4.850  0.00  0.00    +0.002 A 
ATOM      8  C   UNL     1      -1.540  -4.539   4.221  0.00  0.00    +0.026 A 
ATOM      9  C   UNL     1      -1.757  -5.433   3.131  0.00  0.00    +0.043 A 
ATOM     10  N   UNL     1      -0.888  -6.062   2.366  0.00  0.00    -0.375 N 
ATOM     11  C   UNL     1      -4.209  -7.230   0.874  0.00  0.00    +0.065 C 
ATOM     12  C   UNL     1      -3.822  -7.194  -0.582  0.00  0.00    +0.167 C 
ATOM     13  N   UNL     1      -2.471  -6.809  -0.922  0.00  0.00    -0.279 N 
ATOM     14  C   UNL     1      -2.182  -6.808  -2.266  0.00  0.00    +0.234 C 
ATOM     15  O   UNL     1      -1.065  -6.569  -2.675  0.00  0.00    -0.274 OA
ATOM     16  C   UNL     1      -3.323  -7.119  -3.211  0.00  0.00    +0.203 C 
ATOM     17  N   UNL     1      -4.516  -6.377  -2.763  0.00  0.00    -0.291 N 
ATOM     18  C   UNL     1      -4.799  -6.421  -1.433  0.00  0.00    +0.237 C 
ATOM     19  O   UNL     1      -5.774  -5.875  -0.962  0.00  0.00    -0.274 OA
ATOM     20  H   UNL     1       0.079  -6.003   2.416  0.00  0.00    +0.160 HD
ENDROOT
BRANCH   1  24
ATOM     21  C   UNL     1      -1.247  -2.108   0.003  0.00  0.00    +0.059 A 
ATOM     22  C   UNL     1      -0.068  -2.856  -0.007  0.00  0.00    +0.015 A 
ATOM     23  C   UNL     1      -0.129  -4.234  -0.014  0.00  0.00    +0.006 A 
ATOM     24  C   UNL     1      -1.354  -4.875  -0.011  0.00  0.00    -0.025 A 
ATOM     25  C   UNL     1      -2.527  -4.141  -0.002  0.00  0.00    +0.006 A 
ATOM     26  C   UNL     1      -2.481  -2.762   0.011  0.00  0.00    +0.015 A 
BRANCH  21  27
ATOM     27  C   UNL     1      -1.190  -0.632   0.010  0.00  0.00    +0.339 C 
ATOM     28  O   UNL     1      -2.217   0.016   0.023  0.00  0.00    -0.245 OA
BRANCH  27  30
ATOM     29  C   UNL     1      -0.017   1.425   0.010  0.00  0.00    +0.280 C 
ATOM     30  O   UNL     1       0.002  -0.004   0.002  0.00  0.00    -0.464 OA
ENDBRANCH  27  30
ENDBRANCH  21  27
ENDBRANCH   1  24
BRANCH  17  31
ATOM     31  C   UNL     1      -5.355  -5.630  -3.704  0.00  0.00    +0.113 C 
BRANCH  31  32
ATOM     32  C   UNL     1      -6.457  -6.545  -4.243  0.00  0.00    +0.054 C 
BRANCH  32  33
ATOM     33  C   UNL     1      -7.319  -5.776  -5.210  0.00  0.00    -0.046 A 
ATOM     34  C   UNL     1      -8.427  -5.088  -4.752  0.00  0.00    +0.004 A 
ATOM     35  C   UNL     1      -9.218  -4.383  -5.640  0.00  0.00    +0.000 A 
ATOM     36  C   UNL     1      -8.902  -4.365  -6.985  0.00  0.00    +0.000 A 
ATOM     37  C   UNL     1      -7.793  -5.053  -7.443  0.00  0.00    +0.000 A 
ATOM     38  C   UNL     1      -6.999  -5.754  -6.555  0.00  0.00    +0.004 A 
ENDBRANCH  32  33
ENDBRANCH  31  32
ENDBRANCH  17  31
TORSDOF 6
