REMARK  Name = ZINC09783536
REMARK  8 active torsions:
REMARK  status: ('A' for Active; 'I' for Inactive)
REMARK    1  A    between atoms: C_1  and  C_2
REMARK    2  A    between atoms: C_3  and  S_8
REMARK    3  A    between atoms: C_4  and  C_7
REMARK    4  A    between atoms: S_8  and  N_11
REMARK    5  A    between atoms: C_16  and  C_17
REMARK    6  A    between atoms: C_16  and  N_56
REMARK    7  A    between atoms: N_19  and  C_20
REMARK    8  A    between atoms: C_21  and  C_28
REMARK                            x       y       z     vdW  Elec       q    Type
REMARK                         _______ _______ _______ _____ _____    ______ ____
ROOT
ATOM      1  C   UNL     1       2.164   7.144   1.257  0.00  0.00    +0.019 C 
ENDROOT
BRANCH   1   7
ATOM      2  N   UNL     1       2.350   3.122   2.441  0.00  0.00    -0.180 NA
ATOM      3  C   UNL     1       3.139   3.505   1.260  0.00  0.00    +0.091 C 
ATOM      4  C   UNL     1       2.571   4.822   0.707  0.00  0.00    -0.061 C 
ATOM      5  C   UNL     1       1.629   5.412   2.863  0.00  0.00    -0.061 C 
ATOM      6  C   UNL     1       2.154   4.122   3.501  0.00  0.00    +0.091 C 
ATOM      7  N   UNL     1       2.563   5.826   1.793  0.00  0.00    +0.387 N 
ATOM      8  H   UNL     1       3.509   5.899   2.186  0.00  0.00    -0.081 HD
BRANCH   2   9
ATOM      9  S   UNL     1       1.705   1.602   2.575  0.00  0.00    +0.066 S 
ATOM     10  O   UNL     1       1.523   1.360   3.963  0.00  0.00    -0.153 OA
ATOM     11  O   UNL     1       2.490   0.753   1.750  0.00  0.00    -0.153 OA
BRANCH   9  14
ATOM     12  C   UNL     1       0.660   1.043  -0.618  0.00  0.00    +0.071 C 
ATOM     13  C   UNL     1      -0.266   1.408   0.514  0.00  0.00    +0.107 A 
ATOM     14  C   UNL     1       0.096   1.654   1.858  0.00  0.00    +0.170 A 
ATOM     15  C   UNL     1      -1.080   1.938   2.467  0.00  0.00    +0.161 A 
ATOM     16  O   UNL     1      -2.027   1.854   1.522  0.00  0.00    -0.358 OA
ATOM     17  N   UNL     1      -1.556   1.565   0.446  0.00  0.00    -0.081 NA
ATOM     18  C   UNL     1      -1.284   2.279   3.921  0.00  0.00    +0.091 C 
ENDBRANCH   9  14
ENDBRANCH   2   9
ENDBRANCH   1   7
BRANCH   1  19
ATOM     19  C   UNL     1       0.804   7.065   0.612  0.00  0.00    +0.201 C 
ATOM     20  O   UNL     1       0.160   6.040   0.680  0.00  0.00    -0.278 OA
ATOM     21  N   UNL     1       0.304   8.133  -0.039  0.00  0.00    -0.281 N 
ATOM     22  H   UNL     1       0.820   8.954  -0.093  0.00  0.00    +0.155 HD
BRANCH  21  23
ATOM     23  C   UNL     1      -0.947   8.061  -0.633  0.00  0.00    +0.084 A 
ATOM     24  C   UNL     1      -1.625   9.043  -1.334  0.00  0.00    +0.068 A 
ATOM     25  C   UNL     1      -2.944   8.706  -1.867  0.00  0.00    -0.023 A 
ATOM     26  C   UNL     1      -3.364   7.456  -1.604  0.00  0.00    -0.004 A 
ATOM     27  S   UNL     1      -2.043   6.722  -0.670  0.00  0.00    -0.077 S 
ATOM     28  C   UNL     1      -4.727   7.185  -2.181  0.00  0.00    +0.043 C 
ATOM     29  C   UNL     1      -4.937   8.304  -3.225  0.00  0.00    +0.010 C 
ATOM     30  C   UNL     1      -4.029   9.422  -2.674  0.00  0.00    +0.037 C 
BRANCH  24  31
ATOM     31  C   UNL     1      -1.040  10.372  -1.537  0.00  0.00    +0.244 C 
ATOM     32  O   UNL     1      -0.353  10.591  -2.518  0.00  0.00    -0.270 OA
ATOM     33  N   UNL     1      -1.263  11.351  -0.638  0.00  0.00    -0.325 N 
ATOM     34  H   UNL     1      -1.810  11.177   0.143  0.00  0.00    +0.145 HD
ATOM     35  H   UNL     1      -0.876  12.230  -0.773  0.00  0.00    +0.145 HD
ENDBRANCH  24  31
ENDBRANCH  21  23
ENDBRANCH   1  19
TORSDOF 6
