REMARK  Name = ZINC10435497
REMARK  12 active torsions:
REMARK  status: ('A' for Active; 'I' for Inactive)
REMARK    1  A    between atoms: C_1  and  N_46
REMARK    2  A    between atoms: C_2  and  C_3
REMARK    3  A    between atoms: C_2  and  N_46
REMARK    4  A    between atoms: C_3  and  C_4
REMARK    5  A    between atoms: C_4  and  N_49
REMARK    6  A    between atoms: C_5  and  C_6
REMARK    7  A    between atoms: C_5  and  N_49
REMARK    8  A    between atoms: C_10  and  O_20
REMARK    9  A    between atoms: C_11  and  O_12
REMARK   10  A    between atoms: O_12  and  C_13
REMARK   11  A    between atoms: C_13  and  C_14
REMARK   12  A    between atoms: O_20  and  C_21
REMARK                            x       y       z     vdW  Elec       q    Type
REMARK                         _______ _______ _______ _____ _____    ______ ____
ROOT
ATOM      1  C   UNL     1       2.405   0.034  -0.021  0.00  0.00    -0.018 A 
ATOM      2  C   UNL     1       2.380   1.416  -0.013  0.00  0.00    +0.020 A 
ATOM      3  C   UNL     1       1.172   2.089   0.002  0.00  0.00    +0.022 A 
ATOM      4  C   UNL     1      -0.017   1.381   0.010  0.00  0.00    +0.064 A 
ATOM      5  C   UNL     1       0.002  -0.004   0.002  0.00  0.00    +0.163 A 
ATOM      6  C   UNL     1       1.218  -0.681  -0.013  0.00  0.00    +0.164 A 
ATOM      7 BR   UNL     1       1.145   3.980   0.012  0.00  0.00    -0.050 Br
ENDROOT
BRANCH   5   8
ATOM      8  O   UNL     1      -1.165  -0.701   0.009  0.00  0.00    -0.491 OA
ATOM      9  C   UNL     1      -2.375   0.059   0.024  0.00  0.00    +0.277 C 
ENDBRANCH   5   8
BRANCH   1  10
ATOM     10  C   UNL     1       3.724  -0.696  -0.037  0.00  0.00    -0.043 C 
BRANCH  10  11
ATOM     11  N   UNL     1       4.016  -1.135  -1.414  0.00  0.00    +0.382 N 
ATOM     12  H   UNL     1       3.268  -1.760  -1.737  0.00  0.00    -0.085 HD
ATOM     13  H   UNL     1       4.065  -0.314  -2.028  0.00  0.00    -0.085 HD
BRANCH  11  14
ATOM     14  C   UNL     1       5.304  -1.854  -1.460  0.00  0.00    -0.084 C 
BRANCH  14  15
ATOM     15  C   UNL     1       5.580  -2.296  -2.898  0.00  0.00    -0.038 C 
BRANCH  15  16
ATOM     16  C   UNL     1       6.915  -3.042  -2.955  0.00  0.00    -0.085 C 
BRANCH  16  18
ATOM     17  C   UNL     1       8.456  -4.189  -4.428  0.00  0.00    -0.101 C 
ATOM     18  N   UNL     1       7.174  -3.465  -4.344  0.00  0.00    +0.377 N 
ATOM     19  H   UNL     1       6.415  -4.082  -4.657  0.00  0.00    -0.086 HD
ATOM     20  H   UNL     1       7.212  -2.636  -4.949  0.00  0.00    -0.086 HD
ENDBRANCH  16  18
ENDBRANCH  15  16
ENDBRANCH  14  15
ENDBRANCH  11  14
ENDBRANCH  10  11
ENDBRANCH   1  10
BRANCH   6  21
ATOM     21  O   UNL     1       1.242  -2.041  -0.021  0.00  0.00    -0.484 OA
BRANCH  21  22
ATOM     22  C   UNL     1       1.241  -2.682  -1.298  0.00  0.00    +0.264 C 
BRANCH  22  23
ATOM     23  C   UNL     1       1.268  -4.177  -1.109  0.00  0.00    -0.010 A 
ATOM     24  C   UNL     1       2.477  -4.843  -1.040  0.00  0.00    +0.007 A 
ATOM     25  C   UNL     1       2.502  -6.213  -0.861  0.00  0.00    +0.000 A 
ATOM     26  C   UNL     1       1.318  -6.919  -0.764  0.00  0.00    +0.000 A 
ATOM     27  C   UNL     1       0.109  -6.254  -0.839  0.00  0.00    +0.000 A 
ATOM     28  C   UNL     1       0.084  -4.883  -1.012  0.00  0.00    +0.007 A 
ENDBRANCH  22  23
ENDBRANCH  21  22
ENDBRANCH   6  21
TORSDOF 10
