REMARK  Name = ZINC00271124
REMARK  5 active torsions:
REMARK  status: ('A' for Active; 'I' for Inactive)
REMARK    1  A    between atoms: C_1  and  C_2
REMARK    2  A    between atoms: C_9  and  N_12
REMARK    3  A    between atoms: N_12  and  C_13
REMARK    4  A    between atoms: C_13  and  N_15
REMARK    5  A    between atoms: C_16  and  C_18
REMARK                            x       y       z     vdW  Elec       q    Type
REMARK                         _______ _______ _______ _____ _____    ______ ____
ROOT
ATOM      1  N   UNL     1       1.123   3.506   0.010  0.00  0.00    -0.295 N 
ATOM      2  H   UNL     1       1.872   4.011  -0.343  0.00  0.00    +0.154 HD
ENDROOT
BRANCH   1  11
ATOM      3  C   UNL     1       5.709   2.234   1.562  0.00  0.00    +0.065 C 
ATOM      4  C   UNL     1       4.502   1.440   1.132  0.00  0.00    +0.039 A 
ATOM      5  C   UNL     1       4.571   0.049   1.129  0.00  0.00    +0.023 A 
ATOM      6  C   UNL     1       3.487  -0.686   0.743  0.00  0.00    +0.012 A 
ATOM      7  C   UNL     1       2.321   0.002   0.355  0.00  0.00    +0.002 A 
ATOM      8  C   UNL     1       1.169  -0.688  -0.054  0.00  0.00    +0.010 A 
ATOM      9  C   UNL     1       0.057   0.006  -0.423  0.00  0.00    +0.003 A 
ATOM     10  C   UNL     1       0.041   1.397  -0.402  0.00  0.00    +0.025 A 
ATOM     11  C   UNL     1       1.152   2.110  -0.006  0.00  0.00    +0.059 A 
ATOM     12  C   UNL     1       2.320   1.418   0.382  0.00  0.00    +0.092 A 
ATOM     13  N   UNL     1       3.414   2.077   0.771  0.00  0.00    -0.250 NA
ENDBRANCH   1  11
BRANCH   1  14
ATOM     14  C   UNL     1       0.054   4.152   0.517  0.00  0.00    +0.141 C 
ATOM     15  S   UNL     1      -1.205   3.266   1.267  0.00  0.00    -0.018 S 
BRANCH  14  16
ATOM     16  N   UNL     1      -0.024   5.495   0.434  0.00  0.00    -0.263 N 
ATOM     17  C   UNL     1      -1.092   6.141   0.941  0.00  0.00    +0.256 C 
ATOM     18  O   UNL     1      -1.987   5.511   1.474  0.00  0.00    -0.269 OA
ATOM     19  H   UNL     1       0.690   5.996   0.009  0.00  0.00    +0.157 HD
BRANCH  17  20
ATOM     20  C   UNL     1      -1.177   7.600   0.851  0.00  0.00    +0.074 A 
ATOM     21  C   UNL     1      -2.180   8.447   1.298  0.00  0.00    +0.021 A 
ATOM     22  C   UNL     1      -2.003   9.791   1.085  0.00  0.00    +0.008 A 
ATOM     23  C   UNL     1      -0.881  10.221   0.449  0.00  0.00    +0.046 A 
ATOM     24  S   UNL     1      -0.020   8.751   0.130  0.00  0.00    -0.092 S 
ENDBRANCH  17  20
ENDBRANCH  14  16
ENDBRANCH   1  14
TORSDOF 4
