REMARK  Name = ZINC03495619
REMARK  5 active torsions:
REMARK  status: ('A' for Active; 'I' for Inactive)
REMARK    1  A    between atoms: C_3  and  C_6
REMARK    2  A    between atoms: C_13  and  C_14
REMARK    3  A    between atoms: C_13  and  N_53
REMARK    4  A    between atoms: N_16  and  C_17
REMARK    5  A    between atoms: C_18  and  C_26
REMARK                            x       y       z     vdW  Elec       q    Type
REMARK                         _______ _______ _______ _____ _____    ______ ____
ROOT
ATOM      1  C   UNL     1       0.021   1.405   0.108  0.00  0.00    +0.201 C 
ATOM      2  O   UNL     1      -0.008   0.193   0.122  0.00  0.00    -0.278 OA
ATOM      3  N   UNL     1      -1.130   2.106   0.131  0.00  0.00    -0.281 N 
ATOM      4  H   UNL     1      -1.108   3.076   0.119  0.00  0.00    +0.155 HD
ENDROOT
BRANCH   3   5
ATOM      5  C   UNL     1      -2.346   1.442   0.170  0.00  0.00    +0.084 A 
ATOM      6  C   UNL     1      -3.624   1.982   0.204  0.00  0.00    +0.068 A 
ATOM      7  C   UNL     1      -4.744   1.057   0.238  0.00  0.00    -0.023 A 
ATOM      8  C   UNL     1      -4.409  -0.251   0.244  0.00  0.00    -0.004 A 
ATOM      9  S   UNL     1      -2.640  -0.266   0.197  0.00  0.00    -0.077 S 
ATOM     10  C   UNL     1      -5.343  -1.422   0.283  0.00  0.00    +0.043 C 
ATOM     11  C   UNL     1      -6.734  -0.918   0.693  0.00  0.00    +0.005 C 
ATOM     12  C   UNL     1      -7.080   0.314  -0.149  0.00  0.00    +0.005 C 
ATOM     13  C   UNL     1      -6.203   1.494   0.272  0.00  0.00    +0.037 C 
BRANCH   6  14
ATOM     14  C   UNL     1      -3.836   3.433   0.201  0.00  0.00    +0.244 C 
ATOM     15  O   UNL     1      -3.955   4.029  -0.854  0.00  0.00    -0.270 OA
ATOM     16  N   UNL     1      -3.899   4.107   1.366  0.00  0.00    -0.325 N 
ATOM     17  H   UNL     1      -3.804   3.633   2.207  0.00  0.00    +0.145 HD
ATOM     18  H   UNL     1      -4.039   5.067   1.364  0.00  0.00    +0.145 HD
ENDBRANCH   6  14
ENDBRANCH   3   5
BRANCH   1  19
ATOM     19  C   UNL     1       1.342   2.127   0.059  0.00  0.00    +0.019 C 
BRANCH  19  27
ATOM     20  C   UNL     1       5.940  -0.425   1.394  0.00  0.00    +0.282 C 
ATOM     21  O   UNL     1       7.000   0.009   0.984  0.00  0.00    -0.267 OA
ATOM     22  N   UNL     1       4.799  -0.157   0.730  0.00  0.00    -0.299 N 
ATOM     23  C   UNL     1       4.800   0.728  -0.446  0.00  0.00    +0.089 C 
ATOM     24  C   UNL     1       3.721   1.798  -0.251  0.00  0.00    -0.059 C 
ATOM     25  C   UNL     1       2.490   0.389   1.292  0.00  0.00    -0.059 C 
ATOM     26  C   UNL     1       3.519  -0.739   1.160  0.00  0.00    +0.089 C 
ATOM     27  N   UNL     1       2.429   1.128   0.012  0.00  0.00    +0.387 N 
ATOM     28  H   UNL     1       2.239   0.463  -0.747  0.00  0.00    -0.081 HD
BRANCH  20  31
ATOM     29  C   UNL     1       6.474  -2.306   4.478  0.00  0.00    +0.042 A 
ATOM     30  C   UNL     1       6.956  -1.481   3.449  0.00  0.00    +0.054 A 
ATOM     31  C   UNL     1       5.904  -1.242   2.612  0.00  0.00    +0.189 A 
ATOM     32  O   UNL     1       4.825  -1.885   3.104  0.00  0.00    -0.458 OA
ATOM     33  C   UNL     1       5.166  -2.531   4.226  0.00  0.00    +0.196 A 
ENDBRANCH  20  31
ENDBRANCH  19  27
ENDBRANCH   1  19
TORSDOF 5
