REMARK  Name = ZINC25058656
REMARK  11 active torsions:
REMARK  status: ('A' for Active; 'I' for Inactive)
REMARK    1  A    between atoms: C_1  and  C_2
REMARK    2  A    between atoms: C_4  and  C_28
REMARK    3  A    between atoms: C_5  and  N_9
REMARK    4  A    between atoms: C_6  and  C_8
REMARK    5  A    between atoms: C_10  and  C_12
REMARK    6  A    between atoms: C_12  and  N_13
REMARK    7  A    between atoms: C_14  and  C_16
REMARK    8  A    between atoms: C_16  and  N_17
REMARK    9  A    between atoms: N_17  and  C_18
REMARK   10  A    between atoms: C_18  and  C_20
REMARK   11  A    between atoms: C_18  and  C_21
REMARK                            x       y       z     vdW  Elec       q    Type
REMARK                         _______ _______ _______ _____ _____    ______ ____
ROOT
ATOM      1  N   UNL     1       3.094   2.263   2.779  0.00  0.00    -0.308 N 
ATOM      2  C   UNL     1       1.774   2.008   2.696  0.00  0.00    +0.196 C 
ATOM      3  O   UNL     1       1.360   0.883   2.881  0.00  0.00    -0.278 OA
ATOM      4  H   UNL     1       3.469   3.283   2.611  0.00  0.00    +0.149 HD
ENDROOT
BRANCH   1   5
ATOM      5  C   UNL     1       4.031   1.181   3.093  0.00  0.00    +0.200 C 
BRANCH   5   7
ATOM      6  N   UNL     1       6.470   0.906   3.397  0.00  0.00    -0.284 N 
ATOM      7  C   UNL     1       5.436   1.726   3.126  0.00  0.00    +0.234 C 
ATOM      8  O   UNL     1       5.635   2.902   2.908  0.00  0.00    -0.274 OA
ATOM      9  H   UNL     1       6.285  -0.147   3.652  0.00  0.00    +0.155 HD
BRANCH   6  14
ATOM     10  C   UNL     1      11.783   2.888   3.217  0.00  0.00    +0.044 C 
ATOM     11  C   UNL     1      10.372   2.361   3.265  0.00  0.00    -0.050 A 
ATOM     12  C   UNL     1       9.924   1.688   4.386  0.00  0.00    +0.008 A 
ATOM     13  C   UNL     1       8.632   1.204   4.433  0.00  0.00    -0.029 A 
ATOM     14  C   UNL     1       7.781   1.395   3.353  0.00  0.00    +0.039 A 
ATOM     15  C   UNL     1       8.235   2.068   2.226  0.00  0.00    -0.029 A 
ATOM     16  C   UNL     1       9.527   2.554   2.187  0.00  0.00    +0.008 A 
ATOM     17  C   UNL     1       7.316   2.273   1.048  0.00  0.00    +0.045 C 
ATOM     18  C   UNL     1       8.145   0.470   5.656  0.00  0.00    +0.045 C 
ENDBRANCH   6  14
ENDBRANCH   5   7
ENDBRANCH   1   5
BRANCH   2  19
ATOM     19  C   UNL     1       0.810   3.121   2.373  0.00  0.00    +0.016 C 
BRANCH  19  20
ATOM     20  N   UNL     1      -0.559   2.590   2.341  0.00  0.00    +0.389 N 
ATOM     21  H   UNL     1      -0.631   1.807   1.571  0.00  0.00    -0.084 HD
ATOM     22  H   UNL     1      -0.809   2.161   3.323  0.00  0.00    -0.084 HD
BRANCH  20  23
ATOM     23  C   UNL     1      -1.528   3.649   2.029  0.00  0.00    -0.042 C 
ATOM     24  C   UNL     1      -1.913   4.383   3.315  0.00  0.00    -0.009 C 
BRANCH  23  25
ATOM     25  C   UNL     1      -2.759   3.037   1.412  0.00  0.00    -0.043 A 
ATOM     26  C   UNL     1      -3.080   1.718   1.671  0.00  0.00    +0.003 A 
ATOM     27  C   UNL     1      -4.212   1.158   1.108  0.00  0.00    +0.000 A 
ATOM     28  C   UNL     1      -5.018   1.915   0.278  0.00  0.00    +0.001 A 
ATOM     29  C   UNL     1      -4.695   3.232   0.013  0.00  0.00    +0.020 A 
ATOM     30  C   UNL     1      -3.565   3.794   0.580  0.00  0.00    +0.043 A 
ATOM     31 CL   UNL     1      -3.158   5.449   0.248  0.00  0.00    -0.083 Cl
ENDBRANCH  23  25
ENDBRANCH  20  23
ENDBRANCH  19  20
ENDBRANCH   2  19
TORSDOF 7
