REMARK  Name = ZINC08748185
REMARK  8 active torsions:
REMARK  status: ('A' for Active; 'I' for Inactive)
REMARK    1  A    between atoms: C_1  and  C_2
REMARK    2  A    between atoms: C_2  and  C_22
REMARK    3  A    between atoms: N_5  and  N_9
REMARK    4  A    between atoms: C_10  and  C_12
REMARK    5  A    between atoms: C_15  and  C_18
REMARK    6  A    between atoms: C_18  and  C_19
REMARK    7  A    between atoms: C_18  and  C_20
REMARK    8  A    between atoms: C_18  and  C_21
REMARK                            x       y       z     vdW  Elec       q    Type
REMARK                         _______ _______ _______ _____ _____    ______ ____
ROOT
ATOM      1  C   UNL     1      -1.220   4.059   1.294  0.00  0.00    +0.050 C 
ATOM      2  C   UNL     1      -0.727   3.357   0.027  0.00  0.00    +0.169 C 
ATOM      3  C   UNL     1       0.787   3.284   0.012  0.00  0.00    +0.271 C 
ATOM      4  O   UNL     1       1.565   4.213   0.010  0.00  0.00    -0.271 OA
ATOM      5  N   UNL     1       1.087   1.970   0.002  0.00  0.00    -0.137 N 
ATOM      6  C   UNL     1      -0.014   1.211   0.009  0.00  0.00    +0.327 C 
ATOM      7  O   UNL     1       0.002  -0.004   0.002  0.00  0.00    -0.251 OA
ATOM      8  N   UNL     1      -1.143   1.944   0.018  0.00  0.00    -0.278 N 
ATOM      9  H   UNL     1      -2.052   1.607   0.019  0.00  0.00    +0.152 HD
ENDROOT
BRANCH   2  10
ATOM     10  C   UNL     1      -1.236   4.062  -1.204  0.00  0.00    +0.137 A 
ATOM     11  C   UNL     1      -2.413   3.832  -1.812  0.00  0.00    +0.047 A 
ATOM     12  C   UNL     1      -2.482   4.711  -2.917  0.00  0.00    +0.041 A 
ATOM     13  C   UNL     1      -1.339   5.421  -2.923  0.00  0.00    +0.195 A 
ATOM     14  O   UNL     1      -0.588   5.023  -1.883  0.00  0.00    -0.465 OA
ENDBRANCH   2  10
BRANCH   5  15
ATOM     15  N   UNL     1       2.393   1.462  -0.012  0.00  0.00    -0.220 N 
ATOM     16  C   UNL     1       2.901   0.942  -1.147  0.00  0.00    +0.261 C 
ATOM     17  O   UNL     1       2.227   0.914  -2.158  0.00  0.00    -0.269 OA
ATOM     18  H   UNL     1       2.931   1.484   0.794  0.00  0.00    +0.174 HD
BRANCH  16  19
ATOM     19  C   UNL     1       4.279   0.405  -1.162  0.00  0.00    +0.038 A 
ATOM     20  C   UNL     1       5.058   0.441  -0.005  0.00  0.00    +0.013 A 
ATOM     21  C   UNL     1       6.340  -0.067  -0.024  0.00  0.00    +0.005 A 
ATOM     22  C   UNL     1       6.859  -0.600  -1.191  0.00  0.00    -0.042 A 
ATOM     23  C   UNL     1       6.094  -0.633  -2.343  0.00  0.00    +0.005 A 
ATOM     24  C   UNL     1       4.808  -0.134  -2.336  0.00  0.00    +0.013 A 
BRANCH  22  25
ATOM     25  C   UNL     1       8.263  -1.147  -1.206  0.00  0.00    -0.013 C 
ATOM     26  C   UNL     1       9.100  -0.377  -2.230  0.00  0.00    +0.015 C 
ATOM     27  C   UNL     1       8.886  -0.992   0.183  0.00  0.00    +0.015 C 
ATOM     28  C   UNL     1       8.228  -2.629  -1.587  0.00  0.00    +0.015 C 
ENDBRANCH  22  25
ENDBRANCH  16  19
ENDBRANCH   5  15
TORSDOF 4
