REMARK  Name = ZINC43287613
REMARK  12 active torsions:
REMARK  status: ('A' for Active; 'I' for Inactive)
REMARK    1  A    between atoms: C_1  and  C_2
REMARK    2  A    between atoms: C_2  and  C_4
REMARK    3  A    between atoms: C_2  and  N_7
REMARK    4  A    between atoms: N_7  and  C_8
REMARK    5  A    between atoms: N_7  and  C_12
REMARK    6  A    between atoms: C_8  and  C_9
REMARK    7  A    between atoms: C_9  and  O_10
REMARK    8  A    between atoms: O_10  and  C_11
REMARK    9  A    between atoms: C_12  and  C_14
REMARK   10  A    between atoms: C_12  and  C_20
REMARK   11  A    between atoms: C_20  and  C_22
REMARK   12  A    between atoms: C_20  and  N_23
REMARK                            x       y       z     vdW  Elec       q    Type
REMARK                         _______ _______ _______ _____ _____    ______ ____
ROOT
ATOM      1  C   UNL     1       0.680  -2.047  -1.175  0.00  0.00    -0.014 C 
ENDROOT
BRANCH   1   2
ATOM      2  C   UNL     1      -0.795  -2.206  -1.442  0.00  0.00    -0.021 A 
ATOM      3  C   UNL     1      -1.664  -3.108  -0.925  0.00  0.00    +0.025 A 
ATOM      4  C   UNL     1      -2.989  -3.066  -1.319  0.00  0.00    +0.025 A 
ATOM      5  C   UNL     1      -3.379  -2.123  -2.211  0.00  0.00    +0.060 A 
ATOM      6  S   UNL     1      -1.852  -1.249  -2.516  0.00  0.00    -0.102 S 
ATOM      7 BR   UNL     1      -4.237  -4.305  -0.624  0.00  0.00    -0.050 Br
ENDBRANCH   1   2
BRANCH   1   8
ATOM      8  N   UNL     1       0.943  -0.693  -0.669  0.00  0.00    +0.389 N 
ATOM      9  H   UNL     1       1.880  -0.417  -0.919  0.00  0.00    -0.080 HD
BRANCH   8  11
ATOM     10  C   UNL     1       1.803  -1.663   1.409  0.00  0.00    -0.013 C 
ATOM     11  C   UNL     1       0.803  -0.682   0.794  0.00  0.00    -0.068 C 
BRANCH  11  12
ATOM     12  C   UNL     1      -0.619  -1.099   1.174  0.00  0.00    -0.025 C 
ATOM     13  C   UNL     1      -1.566  -0.005   1.671  0.00  0.00    +0.002 C 
ATOM     14  C   UNL     1      -1.003  -1.034   2.653  0.00  0.00    +0.002 C 
ENDBRANCH  11  12
ENDBRANCH   8  11
BRANCH   8  15
ATOM     15  C   UNL     1      -0.020   0.246  -1.260  0.00  0.00    -0.049 C 
BRANCH  15  16
ATOM     16  C   UNL     1       0.348   1.675  -0.854  0.00  0.00    +0.141 C 
BRANCH  16  17
ATOM     17  O   UNL     1       1.627   2.010  -1.397  0.00  0.00    -0.385 OA
ATOM     18  C   UNL     1       2.067   3.331  -1.076  0.00  0.00    +0.193 C 
ENDBRANCH  16  17
ENDBRANCH  15  16
ENDBRANCH   8  15
ENDBRANCH   1   8
BRANCH   1  19
ATOM     19  C   UNL     1       1.459  -2.266  -2.473  0.00  0.00    +0.039 C 
ATOM     20  C   UNL     1       2.960  -2.239  -2.177  0.00  0.00    +0.022 C 
BRANCH  19  21
ATOM     21  N   UNL     1       1.097  -3.569  -3.048  0.00  0.00    -0.329 NA
ATOM     22  H   UNL     1       1.315  -4.319  -2.409  0.00  0.00    +0.118 HD
ATOM     23  H   UNL     1       0.124  -3.589  -3.312  0.00  0.00    +0.118 HD
ENDBRANCH  19  21
ENDBRANCH   1  19
TORSDOF 9
