REMARK  Name = ZINC39654558
REMARK  7 active torsions:
REMARK  status: ('A' for Active; 'I' for Inactive)
REMARK    1  A    between atoms: C_1  and  C_2
REMARK    2  A    between atoms: C_2  and  C_3
REMARK    3  A    between atoms: C_6  and  C_9
REMARK    4  A    between atoms: C_9  and  C_10
REMARK    5  A    between atoms: C_10  and  N_11
REMARK    6  A    between atoms: C_12  and  C_14
REMARK    7  A    between atoms: C_25  and  C_27
REMARK                            x       y       z     vdW  Elec       q    Type
REMARK                         _______ _______ _______ _____ _____    ______ ____
ROOT
ATOM      1  C   UNL     1     -10.222  -0.998   0.084  0.00  0.00    +0.100 C 
ATOM      2  C   UNL     1     -10.450  -1.907   1.312  0.00  0.00    +0.121 C 
ATOM      3  N   UNL     1     -11.038  -1.012   2.337  0.00  0.00    -0.300 N 
ATOM      4  C   UNL     1     -11.963  -0.139   1.576  0.00  0.00    +0.115 C 
ATOM      5  C   UNL     1     -11.219   0.159   0.259  0.00  0.00    -0.004 C 
ATOM      6  C   UNL     1     -12.202   0.191  -0.908  0.00  0.00    -0.010 C 
ATOM      7  C   UNL     1     -13.147   1.384  -0.742  0.00  0.00    -0.082 C 
ATOM      8  N   UNL     1     -12.366   2.627  -0.701  0.00  0.00    +0.379 N 
ATOM      9  C   UNL     1     -11.490   2.628   0.477  0.00  0.00    -0.082 C 
ATOM     10  C   UNL     1     -10.475   1.487   0.363  0.00  0.00    -0.010 C 
ATOM     11  C   UNL     1     -10.788  -0.996   3.661  0.00  0.00    +0.219 C 
ATOM     12  O   UNL     1     -11.354  -0.196   4.375  0.00  0.00    -0.275 OA
ATOM     13  H   UNL     1     -11.804   2.697  -1.536  0.00  0.00    -0.086 HD
ATOM     14  H   UNL     1     -12.993   3.415  -0.653  0.00  0.00    -0.086 HD
ENDROOT
BRANCH  11  15
ATOM     15  C   UNL     1      -9.805  -1.972   4.254  0.00  0.00    +0.079 C 
ATOM     16  C   UNL     1      -9.712  -1.753   5.769  0.00  0.00    +0.017 C 
ATOM     17  C   UNL     1      -8.583  -2.630   6.317  0.00  0.00    +0.027 C 
ATOM     18  C   UNL     1      -8.732  -4.036   5.815  0.00  0.00    -0.031 C 
ATOM     19  C   UNL     1      -9.468  -4.372   4.805  0.00  0.00    -0.030 C 
ATOM     20  C   UNL     1     -10.282  -3.403   3.996  0.00  0.00    +0.039 C 
ENDBRANCH  11  15
BRANCH   1  22
ATOM     21  N   UNL     1      -8.213  -0.167  -1.096  0.00  0.00    -0.315 N 
ATOM     22  C   UNL     1      -8.808  -0.475   0.073  0.00  0.00    +0.218 C 
ATOM     23  O   UNL     1      -8.207  -0.333   1.117  0.00  0.00    -0.275 OA
ATOM     24  H   UNL     1      -8.694  -0.281  -1.930  0.00  0.00    +0.149 HD
BRANCH  21  25
ATOM     25  C   UNL     1      -6.839   0.341  -1.106  0.00  0.00    +0.109 C 
BRANCH  25  26
ATOM     26  C   UNL     1      -6.406   0.611  -2.549  0.00  0.00    +0.054 C 
BRANCH  26  30
ATOM     27  C   UNL     1      -2.399   2.092  -2.581  0.00  0.00    -0.048 A 
ATOM     28  C   UNL     1      -2.634   0.732  -2.660  0.00  0.00    +0.004 A 
ATOM     29  C   UNL     1      -3.930   0.253  -2.649  0.00  0.00    +0.004 A 
ATOM     30  C   UNL     1      -4.992   1.133  -2.559  0.00  0.00    -0.046 A 
ATOM     31  C   UNL     1      -4.757   2.493  -2.479  0.00  0.00    +0.004 A 
ATOM     32  C   UNL     1      -3.461   2.972  -2.486  0.00  0.00    +0.004 A 
BRANCH  27  34
ATOM     33  C   UNL     1      -0.459   2.694  -1.159  0.00  0.00    +0.009 C 
ATOM     34  C   UNL     1      -0.986   2.615  -2.593  0.00  0.00    +0.032 C 
ENDBRANCH  27  34
ENDBRANCH  26  30
ENDBRANCH  25  26
ENDBRANCH  21  25
ENDBRANCH   1  22
TORSDOF 6
