REMARK  Name = ZINC26198718
REMARK  12 active torsions:
REMARK  status: ('A' for Active; 'I' for Inactive)
REMARK    1  A    between atoms: C_1  and  C_2
REMARK    2  A    between atoms: C_7  and  C_8
REMARK    3  A    between atoms: C_8  and  N_9
REMARK    4  A    between atoms: N_9  and  C_10
REMARK    5  A    between atoms: N_9  and  C_11
REMARK    6  A    between atoms: C_11  and  C_13
REMARK    7  A    between atoms: C_11  and  C_14
REMARK    8  A    between atoms: N_16  and  C_17
REMARK    9  A    between atoms: C_17  and  C_19
REMARK   10  A    between atoms: C_17  and  C_20
REMARK   11  A    between atoms: C_23  and  S_26
REMARK   12  A    between atoms: S_26  and  N_29
REMARK                            x       y       z     vdW  Elec       q    Type
REMARK                         _______ _______ _______ _____ _____    ______ ____
ROOT
ATOM      1  C   UNL     1       2.222   0.375   0.740  0.00  0.00    +0.200 C 
ATOM      2  O   UNL     1       1.852  -0.121   1.783  0.00  0.00    -0.278 OA
ATOM      3  N   UNL     1       1.399   0.394  -0.327  0.00  0.00    -0.310 N 
ATOM      4  H   UNL     1       1.736   0.844  -1.273  0.00  0.00    +0.149 HD
ENDROOT
BRANCH   1   5
ATOM      5  C   UNL     1       3.603   0.970   0.638  0.00  0.00    +0.016 C 
ATOM      6  C   UNL     1       3.538   2.467   0.949  0.00  0.00    -0.004 C 
BRANCH   5   7
ATOM      7  N   UNL     1       4.494   0.308   1.600  0.00  0.00    +0.388 N 
ATOM      8  C   UNL     1       4.631  -1.122   1.293  0.00  0.00    -0.095 C 
ATOM      9  H   UNL     1       4.040   0.398   2.598  0.00  0.00    -0.081 HD
BRANCH   7  10
ATOM     10  C   UNL     1       5.807   0.966   1.641  0.00  0.00    -0.042 C 
BRANCH  10  17
ATOM     11  C   UNL     1       5.176   1.764   4.345  0.00  0.00    +0.044 C 
ATOM     12  C   UNL     1       6.306   0.801   4.088  0.00  0.00    -0.049 A 
ATOM     13  C   UNL     1       7.040   0.298   5.146  0.00  0.00    +0.003 A 
ATOM     14  C   UNL     1       8.076  -0.586   4.910  0.00  0.00    +0.000 A 
ATOM     15  C   UNL     1       8.378  -0.967   3.616  0.00  0.00    +0.000 A 
ATOM     16  C   UNL     1       7.641  -0.469   2.559  0.00  0.00    +0.002 A 
ATOM     17  C   UNL     1       6.608   0.419   2.794  0.00  0.00    -0.061 A 
ENDBRANCH  10  17
ENDBRANCH   7  10
ENDBRANCH   5   7
ENDBRANCH   1   5
BRANCH   3  18
ATOM     18  C   UNL     1       0.057  -0.184  -0.227  0.00  0.00    +0.100 C 
ATOM     19  C   UNL     1      -0.905   0.856   0.349  0.00  0.00    +0.033 C 
BRANCH  18  20
ATOM     20  C   UNL     1      -0.414  -0.600  -1.597  0.00  0.00    -0.027 A 
ATOM     21  C   UNL     1      -0.153   0.204  -2.691  0.00  0.00    +0.007 A 
ATOM     22  C   UNL     1      -0.581  -0.180  -3.948  0.00  0.00    +0.029 A 
ATOM     23  C   UNL     1      -1.278  -1.362  -4.110  0.00  0.00    +0.105 A 
ATOM     24  C   UNL     1      -1.544  -2.164  -3.015  0.00  0.00    +0.029 A 
ATOM     25  C   UNL     1      -1.111  -1.782  -1.759  0.00  0.00    +0.007 A 
BRANCH  23  26
ATOM     26  S   UNL     1      -1.830  -1.848  -5.712  0.00  0.00    +0.056 S 
ATOM     27  O   UNL     1      -0.982  -1.197  -6.648  0.00  0.00    -0.153 OA
ATOM     28  O   UNL     1      -1.984  -3.260  -5.677  0.00  0.00    -0.153 OA
BRANCH  26  29
ATOM     29  N   UNL     1      -3.344  -1.211  -5.922  0.00  0.00    -0.204 NA
ATOM     30  H   UNL     1      -3.725  -1.493  -6.914  0.00  0.00    +0.144 HD
ATOM     31  H   UNL     1      -3.295  -0.115  -5.846  0.00  0.00    +0.144 HD
ENDBRANCH  26  29
ENDBRANCH  23  26
ENDBRANCH  18  20
ENDBRANCH   3  18
TORSDOF 8
