REMARK  Name = ZINC35877468
REMARK  7 active torsions:
REMARK  status: ('A' for Active; 'I' for Inactive)
REMARK    1  A    between atoms: C_1  and  C_2
REMARK    2  A    between atoms: C_2  and  C_4
REMARK    3  A    between atoms: C_2  and  O_32
REMARK    4  A    between atoms: C_7  and  C_20
REMARK    5  A    between atoms: N_22  and  C_23
REMARK    6  A    between atoms: C_28  and  O_29
REMARK    7  A    between atoms: O_29  and  C_30
REMARK                            x       y       z     vdW  Elec       q    Type
REMARK                         _______ _______ _______ _____ _____    ______ ____
ROOT
ATOM      1  C   UNL     1       1.029  -0.735   1.026  0.00  0.00    -0.040 C 
ATOM      2  C   UNL     1       0.972  -2.281   1.124  0.00  0.00    -0.001 C 
ATOM      3  C   UNL     1       1.085  -2.536   2.646  0.00  0.00    +0.076 C 
ATOM      4  C   UNL     1       0.637  -1.223   3.299  0.00  0.00    +0.049 C 
ATOM      5  N   UNL     1       0.272  -0.284   2.224  0.00  0.00    +0.395 N 
ATOM      6  C   UNL     1      -0.515  -1.451   4.239  0.00  0.00    -0.028 A 
ATOM      7  C   UNL     1      -1.788  -1.948   4.071  0.00  0.00    +0.004 A 
ATOM      8  C   UNL     1      -2.644  -2.039   5.154  0.00  0.00    +0.000 A 
ATOM      9  C   UNL     1      -2.218  -1.629   6.405  0.00  0.00    +0.002 A 
ATOM     10  C   UNL     1      -0.944  -1.131   6.578  0.00  0.00    +0.023 A 
ATOM     11  C   UNL     1      -0.075  -1.036   5.492  0.00  0.00    +0.036 A 
ATOM     12  N   UNL     1       1.240  -0.575   5.413  0.00  0.00    -0.286 N 
ATOM     13  C   UNL     1       1.731  -0.650   4.163  0.00  0.00    +0.211 C 
ATOM     14  O   UNL     1       2.841  -0.321   3.800  0.00  0.00    -0.277 OA
ATOM     15  H   UNL     1       0.540   0.656   2.472  0.00  0.00    -0.083 HD
ATOM     16  H   UNL     1       1.742  -0.238   6.172  0.00  0.00    +0.155 HD
ATOM     17  H   UNL     1      -0.721  -0.329   2.046  0.00  0.00    -0.083 HD
ENDROOT
BRANCH   3  18
ATOM     18  C   UNL     1       0.175  -3.665   3.057  0.00  0.00    +0.220 C 
ATOM     19  O   UNL     1      -0.781  -3.954   2.369  0.00  0.00    -0.275 OA
ATOM     20  N   UNL     1       0.424  -4.353   4.189  0.00  0.00    -0.282 N 
ATOM     21  H   UNL     1       1.139  -4.072   4.780  0.00  0.00    +0.155 HD
BRANCH  20  22
ATOM     22  C   UNL     1      -0.350  -5.476   4.511  0.00  0.00    +0.077 A 
ATOM     23  C   UNL     1      -1.077  -6.126   3.524  0.00  0.00    +0.047 A 
ATOM     24  C   UNL     1      -1.840  -7.234   3.844  0.00  0.00    +0.043 A 
ATOM     25  C   UNL     1      -1.881  -7.696   5.148  0.00  0.00    +0.024 A 
ATOM     26  C   UNL     1      -1.160  -7.053   6.136  0.00  0.00    +0.049 A 
ATOM     27  C   UNL     1      -0.388  -5.946   5.822  0.00  0.00    +0.141 A 
ATOM     28 CL   UNL     1      -2.749  -8.046   2.608  0.00  0.00    -0.083 Cl
BRANCH  27  29
ATOM     29  O   UNL     1       0.327  -5.316   6.792  0.00  0.00    -0.493 OA
ATOM     30  C   UNL     1       0.240  -5.853   8.113  0.00  0.00    +0.277 C 
ENDBRANCH  27  29
ENDBRANCH  20  22
ENDBRANCH   3  18
BRANCH   1  32
ATOM     31  C   UNL     1       0.339   1.279  -0.281  0.00  0.00    +0.036 C 
ATOM     32  C   UNL     1       0.349  -0.250  -0.256  0.00  0.00    +0.098 C 
BRANCH  32  33
ATOM     33  O   UNL     1      -0.994  -0.736  -0.296  0.00  0.00    -0.394 OA
ATOM     34  H   UNL     1      -1.541  -0.442   0.446  0.00  0.00    +0.210 HD
ENDBRANCH  32  33
ENDBRANCH   1  32
TORSDOF 5
