REMARK  Name = ZINC13881229
REMARK  5 active torsions:
REMARK  status: ('A' for Active; 'I' for Inactive)
REMARK    1  A    between atoms: C_4  and  N_28
REMARK    2  A    between atoms: C_5  and  C_7
REMARK    3  A    between atoms: C_7  and  O_8
REMARK    4  A    between atoms: O_8  and  C_9
REMARK    5  A    between atoms: C_12  and  C_16
REMARK                            x       y       z     vdW  Elec       q    Type
REMARK                         _______ _______ _______ _____ _____    ______ ____
ROOT
ATOM      1  C   UNL     1      -0.494  -4.127  -0.066  0.00  0.00    +0.135 A 
ATOM      2  C   UNL     1       0.612  -4.931  -0.324  0.00  0.00    +0.047 A 
ATOM      3  C   UNL     1       0.504  -6.291  -0.262  0.00  0.00    +0.011 A 
ATOM      4  C   UNL     1      -0.724  -6.883   0.064  0.00  0.00    -0.023 A 
ATOM      5  C   UNL     1      -1.839  -6.073   0.326  0.00  0.00    +0.027 A 
ATOM      6  C   UNL     1      -1.717  -4.703   0.265  0.00  0.00    +0.060 A 
ATOM      7 BR   UNL     1      -3.213  -3.603   0.623  0.00  0.00    -0.046 Br
ENDROOT
BRANCH   4   8
ATOM      8  C   UNL     1      -0.843  -8.341   0.132  0.00  0.00    +0.024 C 
ATOM      9  C   UNL     1       0.227  -9.100   0.549  0.00  0.00    +0.081 C 
ATOM     10  C   UNL     1       1.458  -8.478   1.114  0.00  0.00    +0.152 C 
ATOM     11  N   UNL     1       1.448  -7.379   1.819  0.00  0.00    -0.283 NA
ATOM     12  N   UNL     1       2.636  -9.195   0.812  0.00  0.00    -0.152 N 
ATOM     13  C   UNL     1       2.508 -10.534   0.513  0.00  0.00    +0.180 C 
ATOM     14  N   UNL     1       1.400 -11.220   0.380  0.00  0.00    -0.152 NA
ATOM     15  C   UNL     1       0.214 -10.582   0.466  0.00  0.00    +0.273 C 
ATOM     16  O   UNL     1      -0.837 -11.202   0.472  0.00  0.00    -0.268 OA
ATOM     17  S   UNL     1       4.199 -11.041   0.344  0.00  0.00    -0.041 S 
ATOM     18  C   UNL     1       4.949  -9.435   0.578  0.00  0.00    +0.179 C 
ATOM     19  N   UNL     1       3.914  -8.677   0.799  0.00  0.00    -0.173 NA
ATOM     20  H   UNL     1       2.279  -7.017   2.165  0.00  0.00    +0.188 HD
ENDBRANCH   4   8
BRANCH   1  21
ATOM     21  O   UNL     1      -0.377  -2.777  -0.131  0.00  0.00    -0.486 OA
BRANCH  21  22
ATOM     22  C   UNL     1       0.906  -2.252  -0.475  0.00  0.00    +0.266 C 
BRANCH  22  27
ATOM     23  C   UNL     1      -0.402   1.282  -0.232  0.00  0.00    +0.001 A 
ATOM     24  C   UNL     1       0.728   2.016  -0.541  0.00  0.00    +0.002 A 
ATOM     25  C   UNL     1       1.915   1.369  -0.830  0.00  0.00    +0.033 A 
ATOM     26  C   UNL     1       1.973  -0.012  -0.808  0.00  0.00    +0.133 A 
ATOM     27  C   UNL     1       0.844  -0.746  -0.498  0.00  0.00    +0.020 A 
ATOM     28  C   UNL     1      -0.344  -0.099  -0.211  0.00  0.00    +0.009 A 
BRANCH  26  29
ATOM     29  N   UNL     1       3.244  -0.705  -1.118  0.00  0.00    +0.057 N 
ATOM     30  O   UNL     1       4.231  -0.063  -1.389  0.00  0.00    -0.126 OA
ATOM     31  O   UNL     1       3.294  -1.913  -1.099  0.00  0.00    -0.126 OA
ENDBRANCH  26  29
ENDBRANCH  22  27
ENDBRANCH  21  22
ENDBRANCH   1  21
TORSDOF 5
