REMARK  Name = ZINC17080894
REMARK  12 active torsions:
REMARK  status: ('A' for Active; 'I' for Inactive)
REMARK    1  A    between atoms: C_1  and  C_2
REMARK    2  A    between atoms: C_3  and  C_23
REMARK    3  A    between atoms: C_4  and  N_10
REMARK    4  A    between atoms: C_6  and  C_7
REMARK    5  A    between atoms: C_11  and  C_13
REMARK    6  A    between atoms: C_13  and  N_56
REMARK    7  A    between atoms: C_14  and  C_22
REMARK    8  A    between atoms: C_19  and  C_21
REMARK    9  A    between atoms: C_23  and  O_25
REMARK   10  A    between atoms: O_25  and  C_26
REMARK   11  A    between atoms: C_26  and  C_27
REMARK   12  A    between atoms: C_26  and  C_28
REMARK                            x       y       z     vdW  Elec       q    Type
REMARK                         _______ _______ _______ _____ _____    ______ ____
ROOT
ATOM      1  C   UNL     1      -1.586  -3.431  -0.286  0.00  0.00    +0.046 C 
ATOM      2  C   UNL     1      -0.518  -2.368  -0.254  0.00  0.00    -0.015 A 
ATOM      3  C   UNL     1      -0.846  -1.022  -0.192  0.00  0.00    +0.091 A 
ATOM      4  C   UNL     1       0.203  -0.097  -0.171  0.00  0.00    +0.087 A 
ATOM      5  S   UNL     1       1.611  -1.107  -0.225  0.00  0.00    -0.068 S 
ATOM      6  C   UNL     1       0.810  -2.698  -0.280  0.00  0.00    +0.079 A 
ENDROOT
BRANCH   6   7
ATOM      7  C   UNL     1       1.421  -4.028  -0.338  0.00  0.00    +0.248 C 
ATOM      8  O   UNL     1       0.717  -5.020  -0.370  0.00  0.00    -0.270 OA
ATOM      9  N   UNL     1       2.763  -4.153  -0.355  0.00  0.00    -0.325 N 
ATOM     10  H   UNL     1       3.324  -3.362  -0.329  0.00  0.00    +0.145 HD
ATOM     11  H   UNL     1       3.167  -5.034  -0.394  0.00  0.00    +0.145 HD
ENDBRANCH   6   7
BRANCH   4  12
ATOM     12  N   UNL     1       0.134   1.281  -0.116  0.00  0.00    -0.281 N 
ATOM     13  C   UNL     1       1.266   2.013  -0.098  0.00  0.00    +0.201 C 
ATOM     14  O   UNL     1       2.345   1.460  -0.131  0.00  0.00    -0.278 OA
ATOM     15  H   UNL     1      -0.729   1.723  -0.094  0.00  0.00    +0.155 HD
BRANCH  13  16
ATOM     16  C   UNL     1       1.190   3.517  -0.038  0.00  0.00    +0.020 C 
BRANCH  16  24
ATOM     17  C   UNL     1       3.213   3.825   1.257  0.00  0.00    -0.071 C 
ATOM     18  C   UNL     1       4.669   4.289   1.180  0.00  0.00    -0.016 C 
ATOM     19  C   UNL     1       4.706   5.783   0.847  0.00  0.00    -0.003 C 
ATOM     20  C   UNL     1       3.967   6.023  -0.472  0.00  0.00    -0.016 C 
ATOM     21  C   UNL     1       2.531   5.508  -0.347  0.00  0.00    -0.071 C 
ATOM     22  C   UNL     1       1.794   5.728  -1.670  0.00  0.00    -0.013 C 
ATOM     23  C   UNL     1       2.489   4.597   2.362  0.00  0.00    -0.013 C 
ATOM     24  N   UNL     1       2.564   4.061  -0.051  0.00  0.00    +0.389 N 
ATOM     25  H   UNL     1       3.105   3.583  -0.781  0.00  0.00    -0.080 HD
ENDBRANCH  16  24
ENDBRANCH  13  16
ENDBRANCH   4  12
BRANCH   3  26
ATOM     26  C   UNL     1      -2.246  -0.584  -0.153  0.00  0.00    +0.342 C 
ATOM     27  O   UNL     1      -2.842  -0.360  -1.189  0.00  0.00    -0.245 OA
BRANCH  26  28
ATOM     28  O   UNL     1      -2.871  -0.428   1.032  0.00  0.00    -0.458 OA
BRANCH  28  29
ATOM     29  C   UNL     1      -4.255   0.009   0.994  0.00  0.00    +0.171 C 
ATOM     30  C   UNL     1      -5.174  -1.213   0.934  0.00  0.00    +0.052 C 
ATOM     31  C   UNL     1      -4.568   0.820   2.253  0.00  0.00    +0.052 C 
ENDBRANCH  28  29
ENDBRANCH  26  28
ENDBRANCH   3  26
TORSDOF 7
