REMARK  Name = ZINC20292468
REMARK  8 active torsions:
REMARK  status: ('A' for Active; 'I' for Inactive)
REMARK    1  A    between atoms: C_4  and  O_7
REMARK    2  A    between atoms: O_7  and  C_8
REMARK    3  A    between atoms: C_12  and  C_14
REMARK    4  A    between atoms: N_15  and  N_16
REMARK    5  A    between atoms: C_20  and  S_23
REMARK    6  A    between atoms: N_21  and  N_22
REMARK    7  A    between atoms: S_23  and  C_24
REMARK    8  A    between atoms: C_24  and  C_25
REMARK                            x       y       z     vdW  Elec       q    Type
REMARK                         _______ _______ _______ _____ _____    ______ ____
ROOT
ATOM      1  N   UNL     1       6.656  -7.146  -0.074  0.00  0.00    -0.204 N 
ATOM      2  C   UNL     1       6.519  -8.526  -0.115  0.00  0.00    +0.254 A 
ATOM      3  N   UNL     1       5.388  -9.186  -0.185  0.00  0.00    -0.109 NA
ATOM      4  N   UNL     1       5.687 -10.555  -0.205  0.00  0.00    -0.119 NA
ATOM      5  C   UNL     1       6.990 -10.686  -0.148  0.00  0.00    +0.210 A 
ATOM      6  N   UNL     1       7.539  -9.437  -0.095  0.00  0.00    -0.211 N 
ATOM      7  H   UNL     1       7.539  -6.748  -0.027  0.00  0.00    +0.177 HD
ENDROOT
BRANCH   6   8
ATOM      8  N   UNL     1       8.872  -9.147  -0.031  0.00  0.00    -0.294 N 
ATOM      9  H   UNL     1       9.185  -9.095   0.927  0.00  0.00    +0.163 HD
ATOM     10  H   UNL     1       9.414  -9.820  -0.553  0.00  0.00    +0.163 HD
ENDBRANCH   6   8
BRANCH   1  12
ATOM     11  C   UNL     1       5.648  -5.036  -0.062  0.00  0.00    +0.138 C 
ATOM     12  N   UNL     1       5.519  -6.328  -0.101  0.00  0.00    -0.188 NA
BRANCH  11  17
ATOM     13  C   UNL     1       3.459  -1.984  -0.077  0.00  0.00    +0.129 A 
ATOM     14  C   UNL     1       2.197  -2.561  -0.144  0.00  0.00    +0.046 A 
ATOM     15  C   UNL     1       2.061  -3.936  -0.185  0.00  0.00    +0.004 A 
ATOM     16  C   UNL     1       3.178  -4.746  -0.159  0.00  0.00    +0.010 A 
ATOM     17  C   UNL     1       4.452  -4.175  -0.091  0.00  0.00    -0.002 A 
ATOM     18  C   UNL     1       4.587  -2.786  -0.056  0.00  0.00    +0.055 A 
BRANCH  13  19
ATOM     19  O   UNL     1       3.586  -0.632  -0.037  0.00  0.00    -0.456 OA
BRANCH  19  23
ATOM     20  C   UNL     1       3.912   1.389  -3.619  0.00  0.00    +0.000 A 
ATOM     21  C   UNL     1       3.772   0.013  -3.613  0.00  0.00    +0.004 A 
ATOM     22  C   UNL     1       3.663  -0.666  -2.415  0.00  0.00    +0.046 A 
ATOM     23  C   UNL     1       3.694   0.034  -1.217  0.00  0.00    +0.128 A 
ATOM     24  C   UNL     1       3.835   1.414  -1.226  0.00  0.00    +0.046 A 
ATOM     25  C   UNL     1       3.944   2.088  -2.426  0.00  0.00    +0.004 A 
ENDBRANCH  19  23
ENDBRANCH  13  19
ENDBRANCH  11  17
ENDBRANCH   1  12
BRANCH   5  26
ATOM     26  S   UNL     1       7.879 -12.208  -0.144  0.00  0.00    -0.080 S 
BRANCH  26  27
ATOM     27  C   UNL     1       6.582 -13.473  -0.238  0.00  0.00    +0.112 C 
BRANCH  27  28
ATOM     28  C   UNL     1       7.215 -14.841  -0.243  0.00  0.00    -0.036 A 
ATOM     29  C   UNL     1       7.567 -15.435  -1.442  0.00  0.00    +0.006 A 
ATOM     30  C   UNL     1       8.146 -16.690  -1.448  0.00  0.00    +0.022 A 
ATOM     31  C   UNL     1       8.375 -17.352  -0.255  0.00  0.00    +0.059 A 
ATOM     32  C   UNL     1       8.024 -16.757   0.945  0.00  0.00    +0.060 A 
ATOM     33  C   UNL     1       7.448 -15.499   0.950  0.00  0.00    +0.026 A 
ATOM     34 CL   UNL     1       8.310 -17.587   2.443  0.00  0.00    -0.082 Cl
ATOM     35 CL   UNL     1       9.103 -18.928  -0.262  0.00  0.00    -0.082 Cl
ENDBRANCH  27  28
ENDBRANCH  26  27
ENDBRANCH   5  26
TORSDOF 8
