REMARK  Name = ZINC18053573
REMARK  4 active torsions:
REMARK  status: ('A' for Active; 'I' for Inactive)
REMARK    1  A    between atoms: C_4  and  C_7
REMARK    2  A    between atoms: C_7  and  N_8
REMARK    3  A    between atoms: C_10  and  C_18
REMARK    4  A    between atoms: C_11  and  C_13
REMARK                            x       y       z     vdW  Elec       q    Type
REMARK                         _______ _______ _______ _____ _____    ______ ____
ROOT
ATOM      1  C   UNL     1       5.689  -2.899   4.019  0.00  0.00    +0.212 C 
ATOM      2  N   UNL     1       4.767  -3.286   5.102  0.00  0.00    -0.294 N 
ATOM      3  C   UNL     1       3.802  -4.243   4.822  0.00  0.00    +0.159 C 
ATOM      4  N   UNL     1       2.541  -4.043   5.081  0.00  0.00    -0.375 N 
ATOM      5  N   UNL     1       4.256  -5.431   4.248  0.00  0.00    -0.259 N 
ATOM      6  C   UNL     1       5.337  -5.295   3.381  0.00  0.00    +0.205 A 
ATOM      7  N   UNL     1       6.031  -4.111   3.265  0.00  0.00    -0.288 N 
ATOM      8  C   UNL     1       7.027  -4.313   2.353  0.00  0.00    +0.072 A 
ATOM      9  C   UNL     1       8.028  -3.491   1.848  0.00  0.00    +0.028 A 
ATOM     10  C   UNL     1       8.886  -4.044   0.910  0.00  0.00    +0.002 A 
ATOM     11  C   UNL     1       8.763  -5.356   0.487  0.00  0.00    +0.002 A 
ATOM     12  C   UNL     1       7.776  -6.194   0.974  0.00  0.00    +0.030 A 
ATOM     13  C   UNL     1       6.898  -5.657   1.922  0.00  0.00    +0.091 A 
ATOM     14  N   UNL     1       5.850  -6.194   2.585  0.00  0.00    -0.214 NA
ATOM     15  H   UNL     1       4.833  -2.884   5.983  0.00  0.00    +0.151 HD
ATOM     16  H   UNL     1       3.848  -6.290   4.440  0.00  0.00    +0.158 HD
ATOM     17  H   UNL     1       2.255  -3.207   5.481  0.00  0.00    +0.158 HD
ATOM     18  H   UNL     1       1.889  -4.730   4.874  0.00  0.00    +0.158 HD
ENDROOT
BRANCH   1  21
ATOM     19  N   UNL     1       3.976  -1.019   1.402  0.00  0.00    -0.266 N 
ATOM     20  C   UNL     1       4.478  -2.170   1.899  0.00  0.00    +0.116 A 
ATOM     21  C   UNL     1       5.018  -1.904   3.108  0.00  0.00    +0.039 A 
ATOM     22  C   UNL     1       4.840  -0.529   3.366  0.00  0.00    +0.106 A 
ATOM     23  N   UNL     1       4.218   0.000   2.332  0.00  0.00    -0.170 NA
BRANCH  22  24
ATOM     24  C   UNL     1       5.282   0.193   4.580  0.00  0.00    +0.040 A 
ATOM     25  C   UNL     1       5.825   1.444   4.689  0.00  0.00    +0.018 A 
ATOM     26  C   UNL     1       6.162   1.913   5.941  0.00  0.00    +0.008 A 
ATOM     27  C   UNL     1       5.946   1.123   7.023  0.00  0.00    +0.046 A 
ATOM     28  S   UNL     1       5.237  -0.339   6.284  0.00  0.00    -0.095 S 
ENDBRANCH  22  24
BRANCH  19  29
ATOM     29  C   UNL     1       3.301  -0.862   0.111  0.00  0.00    +0.178 C 
BRANCH  29  33
ATOM     30  C   UNL     1      -0.535   0.918   0.714  0.00  0.00    +0.000 A 
ATOM     31  C   UNL     1       0.572   1.718   0.497  0.00  0.00    +0.000 A 
ATOM     32  C   UNL     1       1.813   1.142   0.302  0.00  0.00    +0.005 A 
ATOM     33  C   UNL     1       1.948  -0.234   0.325  0.00  0.00    -0.026 A 
ATOM     34  C   UNL     1       0.842  -1.034   0.544  0.00  0.00    +0.005 A 
ATOM     35  C   UNL     1      -0.400  -0.458   0.737  0.00  0.00    +0.000 A 
ENDBRANCH  29  33
ENDBRANCH  19  29
ENDBRANCH   1  21
TORSDOF 4
