REMARK  Name = ZINC52038723
REMARK  4 active torsions:
REMARK  status: ('A' for Active; 'I' for Inactive)
REMARK    1  A    between atoms: C_1  and  N_2
REMARK    2  A    between atoms: N_2  and  C_3
REMARK    3  A    between atoms: C_3  and  C_4
REMARK    4  A    between atoms: N_13  and  C_14
REMARK                            x       y       z     vdW  Elec       q    Type
REMARK                         _______ _______ _______ _____ _____    ______ ____
ROOT
ATOM      1  C   UNL     1      -0.073   1.517   0.044  0.00  0.00    +0.146 C 
ATOM      2  N   UNL     1      -0.025   0.053   0.035  0.00  0.00    -0.343 N 
ATOM      3  C   UNL     1      -0.053  -0.628  -1.159  0.00  0.00    +0.172 C 
ATOM      4  N   UNL     1      -0.130  -1.929  -1.166  0.00  0.00    -0.371 N 
ATOM      5  N   UNL     1       0.002   0.063  -2.346  0.00  0.00    -0.355 N 
ATOM      6  H   UNL     1      -0.223  -2.405  -2.006  0.00  0.00    +0.159 HD
ATOM      7  H   UNL     1       0.059   1.032  -2.341  0.00  0.00    +0.163 HD
ATOM      8  H   UNL     1      -0.095  -2.421  -0.330  0.00  0.00    +0.159 HD
ENDROOT
BRANCH   5   9
ATOM      9  C   UNL     1      -0.028  -0.662  -3.618  0.00  0.00    +0.082 C 
ATOM     10  C   UNL     1       0.949  -0.217  -4.708  0.00  0.00    +0.026 C 
ATOM     11  C   UNL     1      -0.544   0.088  -4.848  0.00  0.00    +0.026 C 
ENDBRANCH   5   9
BRANCH   2  12
ATOM     12  C   UNL     1       0.051  -0.685   1.298  0.00  0.00    +0.155 C 
BRANCH  12  13
ATOM     13  C   UNL     1       1.491  -1.013   1.602  0.00  0.00    -0.014 A 
ATOM     14  C   UNL     1       1.996  -2.262   1.293  0.00  0.00    +0.006 A 
ATOM     15  C   UNL     1       3.316  -2.562   1.571  0.00  0.00    +0.000 A 
ATOM     16  C   UNL     1       4.132  -1.613   2.159  0.00  0.00    +0.001 A 
ATOM     17  C   UNL     1       3.628  -0.364   2.468  0.00  0.00    +0.015 A 
ATOM     18  C   UNL     1       2.308  -0.061   2.185  0.00  0.00    +0.023 A 
ATOM     19 BR   UNL     1       1.619   1.650   2.602  0.00  0.00    -0.050 Br
ENDBRANCH  12  13
ENDBRANCH   2  12
TORSDOF 3
