REMARK  Name = ZINC49631660
REMARK  4 active torsions:
REMARK  status: ('A' for Active; 'I' for Inactive)
REMARK    1  A    between atoms: C_1  and  C_2
REMARK    2  A    between atoms: N_8  and  S_9
REMARK    3  A    between atoms: S_9  and  C_12
REMARK    4  A    between atoms: C_12  and  C_13
REMARK                            x       y       z     vdW  Elec       q    Type
REMARK                         _______ _______ _______ _____ _____    ______ ____
ROOT
ATOM      1  S   UNL     1       0.075  -4.876   1.468  0.00  0.00    +0.070 S 
ATOM      2  O   UNL     1       1.308  -4.511   2.073  0.00  0.00    -0.152 OA
ATOM      3  O   UNL     1      -1.161  -4.544   2.085  0.00  0.00    -0.152 OA
ENDROOT
BRANCH   1  11
ATOM      4  C   UNL     1      -0.018   1.503   0.010  0.00  0.00    +0.045 C 
ATOM      5  C   UNL     1       0.002  -0.004   0.002  0.00  0.00    -0.034 A 
ATOM      6  C   UNL     1       0.006  -0.696  -1.222  0.00  0.00    +0.008 A 
ATOM      7  C   UNL     1       0.024  -2.054  -1.226  0.00  0.00    +0.048 A 
ATOM      8  C   UNL     1       0.039  -2.750   0.006  0.00  0.00    +0.152 A 
ATOM      9  N   UNL     1       0.035  -2.044   1.185  0.00  0.00    -0.345 N 
ATOM     10  C   UNL     1       0.022  -0.681   1.169  0.00  0.00    +0.087 A 
ATOM     11  N   UNL     1       0.057  -4.067   0.023  0.00  0.00    -0.116 NA
ATOM     12  H   UNL     1       0.045  -2.517   2.031  0.00  0.00    +0.167 HD
ENDBRANCH   1  11
BRANCH   1  13
ATOM     13  C   UNL     1       0.096  -6.633   1.018  0.00  0.00    +0.177 C 
BRANCH  13  14
ATOM     14  C   UNL     1       0.113  -7.485   2.288  0.00  0.00    -0.049 C 
ATOM     15  C   UNL     1       0.214  -8.980   1.917  0.00  0.00    -0.016 C 
ATOM     16  C   UNL     1      -0.712  -9.662   2.959  0.00  0.00    -0.021 C 
ATOM     17  C   UNL     1      -1.837  -8.608   3.114  0.00  0.00    -0.082 C 
ATOM     18  N   UNL     1      -1.145  -7.300   3.034  0.00  0.00    +0.382 N 
ATOM     19  H   UNL     1      -0.944  -6.963   3.963  0.00  0.00    -0.085 HD
ATOM     20  H   UNL     1      -1.731  -6.635   2.551  0.00  0.00    -0.085 HD
ENDBRANCH  13  14
ENDBRANCH   1  13
TORSDOF 3
