REMARK  Name = ZINC09225472
REMARK  3 active torsions:
REMARK  status: ('A' for Active; 'I' for Inactive)
REMARK    1  A    between atoms: C_6  and  N_7
REMARK    2  A    between atoms: C_8  and  C_10
REMARK    3  A    between atoms: C_10  and  C_11
REMARK                            x       y       z     vdW  Elec       q    Type
REMARK                         _______ _______ _______ _____ _____    ______ ____
ROOT
ATOM      1  C   UNL     1      -0.021   1.526   0.011  0.00  0.00    +0.025 C 
ATOM      2  C   UNL     1      -0.772   2.020  -1.192  0.00  0.00    +0.200 C 
ATOM      3  O   UNL     1      -1.817   1.477  -1.482  0.00  0.00    -0.278 OA
ATOM      4  N   UNL     1      -0.346   3.028  -1.959  0.00  0.00    -0.315 N 
ATOM      5  C   UNL     1       0.930   3.709  -1.724  0.00  0.00    +0.059 C 
ATOM      6  C   UNL     1       1.943   3.127  -2.690  0.00  0.00    +0.020 C 
ATOM      7  C   UNL     1       3.310   3.765  -2.443  0.00  0.00    +0.002 C 
ATOM      8  C   UNL     1       3.756   3.461  -1.011  0.00  0.00    -0.001 C 
ATOM      9  C   UNL     1       2.745   4.064  -0.034  0.00  0.00    -0.014 C 
ATOM     10  C   UNL     1       1.363   3.471  -0.279  0.00  0.00    -0.050 C 
ATOM     11  H   UNL     1      -0.902   3.320  -2.699  0.00  0.00    +0.149 HD
ATOM     12  N   UNL     1       1.363   2.026  -0.009  0.00  0.00    +0.390 N 
ATOM     13  H   UNL     1       1.890   1.542  -0.745  0.00  0.00    -0.084 HD
ATOM     14  H   UNL     1       1.803   1.849   0.901  0.00  0.00    -0.084 HD
ENDROOT
BRANCH   1  15
ATOM     15  C   UNL     1      -0.004  -0.004   0.005  0.00  0.00    +0.089 C 
BRANCH  15  17
ATOM     16  N   UNL     1       0.746  -1.830   1.496  0.00  0.00    -0.285 N 
ATOM     17  C   UNL     1       0.623  -0.505   1.280  0.00  0.00    +0.216 C 
ATOM     18  O   UNL     1       1.018   0.284   2.113  0.00  0.00    -0.276 OA
ATOM     19  H   UNL     1       0.370  -2.461   0.863  0.00  0.00    +0.155 HD
BRANCH  16  25
ATOM     20  C   UNL     1       2.170  -3.458   2.571  0.00  0.00    +0.026 A 
ATOM     21  C   UNL     1       2.833  -3.913   3.695  0.00  0.00    +0.041 A 
ATOM     22  C   UNL     1       2.737  -3.215   4.886  0.00  0.00    +0.142 A 
ATOM     23  C   UNL     1       1.980  -2.056   4.954  0.00  0.00    +0.078 A 
ATOM     24  C   UNL     1       1.319  -1.595   3.831  0.00  0.00    +0.046 A 
ATOM     25  C   UNL     1       1.415  -2.295   2.635  0.00  0.00    +0.035 A 
ATOM     26 CL   UNL     1       1.862  -1.183   6.450  0.00  0.00    -0.081 Cl
ATOM     27  F   UNL     1       3.382  -3.665   5.985  0.00  0.00    -0.204 F 
ENDBRANCH  16  25
ENDBRANCH  15  17
ENDBRANCH   1  15
TORSDOF 3
