REMARK  Name = ZINC18210052
REMARK  6 active torsions:
REMARK  status: ('A' for Active; 'I' for Inactive)
REMARK    1  A    between atoms: C_1  and  C_2
REMARK    2  A    between atoms: C_2  and  O_3
REMARK    3  A    between atoms: O_3  and  C_4
REMARK    4  A    between atoms: C_12  and  C_14
REMARK    5  A    between atoms: C_19  and  C_34
REMARK    6  A    between atoms: C_22  and  C_25
REMARK                            x       y       z     vdW  Elec       q    Type
REMARK                         _______ _______ _______ _____ _____    ______ ____
ROOT
ATOM      1  C   UNL     1       4.391  -5.164  -5.029  0.00  0.00    +0.149 A 
ATOM      2  C   UNL     1       5.113  -5.813  -6.056  0.00  0.00    +0.078 A 
ATOM      3  C   UNL     1       5.068  -7.137  -5.811  0.00  0.00    +0.119 A 
ATOM      4  N   UNL     1       4.347  -7.334  -4.668  0.00  0.00    -0.238 N 
ATOM      5  N   UNL     1       3.939  -6.087  -4.198  0.00  0.00    -0.164 NA
ATOM      6  C   UNL     1       4.090  -8.655  -4.086  0.00  0.00    +0.215 C 
ATOM      7  C   UNL     1       5.113  -9.650  -4.644  0.00  0.00    +0.063 C 
ATOM      8  C   UNL     1       5.162  -9.547  -6.173  0.00  0.00    +0.104 C 
ATOM      9  N   UNL     1       5.626  -8.194  -6.537  0.00  0.00    -0.322 N 
ATOM     10  H   UNL     1       6.279  -8.046  -7.239  0.00  0.00    +0.148 HD
ENDROOT
BRANCH   1  19
ATOM     11  C   UNL     1       0.130  -1.785  -2.098  0.00  0.00    +0.403 C 
ATOM     12  O   UNL     1      -0.542  -2.548  -1.433  0.00  0.00    -0.226 OA
ATOM     13  N   UNL     1       0.961  -2.268  -3.043  0.00  0.00    -0.264 N 
ATOM     14  C   UNL     1       1.784  -1.358  -3.851  0.00  0.00    +0.130 C 
ATOM     15  C   UNL     1       3.254  -1.778  -3.717  0.00  0.00    +0.127 C 
ATOM     16  N   UNL     1       3.352  -3.224  -3.958  0.00  0.00    -0.293 N 
ATOM     17  C   UNL     1       2.529  -4.134  -3.150  0.00  0.00    +0.127 C 
ATOM     18  C   UNL     1       1.064  -3.715  -3.280  0.00  0.00    +0.130 C 
ATOM     19  C   UNL     1       4.183  -3.707  -4.903  0.00  0.00    +0.267 C 
ATOM     20  O   UNL     1       4.762  -2.943  -5.652  0.00  0.00    -0.268 OA
BRANCH  11  21
ATOM     21  O   UNL     1       0.045  -0.458  -1.891  0.00  0.00    -0.451 OA
BRANCH  21  23
ATOM     22  C   UNL     1      -0.816   1.511  -0.785  0.00  0.00    +0.048 C 
ATOM     23  C   UNL     1      -0.856  -0.016  -0.874  0.00  0.00    +0.230 C 
ENDBRANCH  21  23
ENDBRANCH  11  21
ENDBRANCH   1  19
BRANCH   8  24
ATOM     24  C   UNL     1       6.116 -10.578  -6.719  0.00  0.00    -0.024 A 
ATOM     25  C   UNL     1       7.478 -10.341  -6.690  0.00  0.00    +0.009 A 
ATOM     26  C   UNL     1       8.357 -11.284  -7.190  0.00  0.00    +0.050 A 
ATOM     27  C   UNL     1       7.874 -12.469  -7.722  0.00  0.00    +0.166 A 
ATOM     28  C   UNL     1       6.502 -12.707  -7.752  0.00  0.00    +0.167 A 
ATOM     29  C   UNL     1       5.627 -11.760  -7.244  0.00  0.00    +0.055 A 
ATOM     30  O   UNL     1       6.284 -13.929  -8.318  0.00  0.00    -0.453 OA
ATOM     31  C   UNL     1       7.505 -14.258  -9.005  0.00  0.00    +0.466 C 
ATOM     32  O   UNL     1       8.515 -13.542  -8.270  0.00  0.00    -0.453 OA
ENDBRANCH   8  24
BRANCH   6  33
ATOM     33  C   UNL     1       4.222  -8.579  -2.564  0.00  0.00    +0.412 C 
ATOM     34  F   UNL     1       3.295  -7.660  -2.060  0.00  0.00    -0.168 F 
ATOM     35  F   UNL     1       3.976  -9.840  -2.011  0.00  0.00    -0.168 F 
ATOM     36  F   UNL     1       5.516  -8.167  -2.229  0.00  0.00    -0.168 F 
ENDBRANCH   6  33
TORSDOF 5
