REMARK  Name = ZINC07750550
REMARK  6 active torsions:
REMARK  status: ('A' for Active; 'I' for Inactive)
REMARK    1  A    between atoms: C_1  and  C_2
REMARK    2  A    between atoms: C_2  and  C_4
REMARK    3  A    between atoms: C_2  and  N_48
REMARK    4  A    between atoms: C_17  and  C_19
REMARK    5  A    between atoms: C_17  and  C_25
REMARK    6  A    between atoms: C_17  and  N_48
REMARK                            x       y       z     vdW  Elec       q    Type
REMARK                         _______ _______ _______ _____ _____    ______ ____
ROOT
ATOM      1  C   UNL     1       1.730   7.008   2.224  0.00  0.00    -0.004 C 
ATOM      2  C   UNL     1       1.685   5.480   2.304  0.00  0.00    +0.015 C 
ENDROOT
BRANCH   2   3
ATOM      3  C   UNL     1       2.937   4.975   2.973  0.00  0.00    +0.206 C 
ATOM      4  O   UNL     1       3.793   4.420   2.317  0.00  0.00    -0.277 OA
ATOM      5  N   UNL     1       3.105   5.138   4.300  0.00  0.00    -0.262 N 
ATOM      6  C   UNL     1       2.035   5.704   5.136  0.00  0.00    +0.209 C 
ATOM      7  C   UNL     1       2.634   6.670   6.120  0.00  0.00    +0.235 C 
ATOM      8  O   UNL     1       1.971   7.602   6.523  0.00  0.00    -0.274 OA
ATOM      9  N   UNL     1       3.898   6.515   6.557  0.00  0.00    -0.283 N 
ATOM     10  C   UNL     1       4.701   5.478   6.072  0.00  0.00    +0.055 A 
ATOM     11  C   UNL     1       4.308   4.780   4.928  0.00  0.00    +0.058 A 
ATOM     12  C   UNL     1       5.095   3.757   4.432  0.00  0.00    +0.025 A 
ATOM     13  C   UNL     1       6.274   3.424   5.076  0.00  0.00    +0.002 A 
ATOM     14  C   UNL     1       6.664   4.111   6.211  0.00  0.00    +0.002 A 
ATOM     15  C   UNL     1       5.882   5.136   6.711  0.00  0.00    +0.025 A 
ATOM     16  H   UNL     1       4.256   7.130   7.217  0.00  0.00    +0.155 HD
ENDBRANCH   2   3
BRANCH   2  17
ATOM     17  N   UNL     1       1.603   4.919   0.942  0.00  0.00    +0.394 N 
ATOM     18  H   UNL     1       1.987   3.966   0.945  0.00  0.00    -0.083 HD
ATOM     19  H   UNL     1       2.149   5.506   0.300  0.00  0.00    -0.083 HD
BRANCH  17  20
ATOM     20  C   UNL     1       0.200   4.877   0.489  0.00  0.00    -0.002 C 
BRANCH  20  21
ATOM     21  C   UNL     1       0.166   4.904  -1.018  0.00  0.00    -0.057 A 
ATOM     22  C   UNL     1       1.100   4.187  -1.743  0.00  0.00    +0.002 A 
ATOM     23  C   UNL     1       1.066   4.209  -3.125  0.00  0.00    +0.000 A 
ATOM     24  C   UNL     1       0.104   4.954  -3.781  0.00  0.00    +0.000 A 
ATOM     25  C   UNL     1      -0.827   5.673  -3.056  0.00  0.00    +0.000 A 
ATOM     26  C   UNL     1      -0.795   5.649  -1.674  0.00  0.00    +0.002 A 
ENDBRANCH  20  21
BRANCH  20  27
ATOM     27  C   UNL     1      -0.451   3.611   0.983  0.00  0.00    -0.020 A 
ATOM     28  C   UNL     1      -1.704   3.427   1.465  0.00  0.00    +0.010 A 
ATOM     29  C   UNL     1      -2.091   2.161   1.861  0.00  0.00    +0.008 A 
ATOM     30  C   UNL     1      -1.203   1.142   1.766  0.00  0.00    +0.045 A 
ATOM     31  S   UNL     1       0.230   1.963   1.087  0.00  0.00    -0.103 S 
ENDBRANCH  20  27
ENDBRANCH  17  20
ENDBRANCH   2  17
TORSDOF 5
