REMARK  Name = ZINC43287425
REMARK  13 active torsions:
REMARK  status: ('A' for Active; 'I' for Inactive)
REMARK    1  A    between atoms: C_1  and  C_2
REMARK    2  A    between atoms: C_2  and  C_3
REMARK    3  A    between atoms: C_3  and  C_5
REMARK    4  A    between atoms: C_3  and  N_22
REMARK    5  A    between atoms: C_5  and  C_7
REMARK    6  A    between atoms: C_5  and  N_13
REMARK    7  A    between atoms: N_13  and  C_14
REMARK    8  A    between atoms: N_13  and  C_15
REMARK    9  A    between atoms: C_15  and  C_16
REMARK   10  A    between atoms: C_16  and  C_18
REMARK   11  A    between atoms: C_16  and  O_21
REMARK   12  A    between atoms: C_18  and  O_19
REMARK   13  A    between atoms: O_19  and  C_20
REMARK                            x       y       z     vdW  Elec       q    Type
REMARK                         _______ _______ _______ _____ _____    ______ ____
ROOT
ATOM      1  C   UNL     1       0.630  -2.023  -1.329  0.00  0.00    -0.046 C 
ENDROOT
BRANCH   1   2
ATOM      2  C   UNL     1       1.391  -2.625  -0.175  0.00  0.00    -0.024 A 
ATOM      3  C   UNL     1       2.640  -3.151  -0.159  0.00  0.00    +0.024 A 
ATOM      4  C   UNL     1       3.141  -3.652   1.029  0.00  0.00    +0.025 A 
ATOM      5  C   UNL     1       2.367  -3.603   2.141  0.00  0.00    +0.060 A 
ATOM      6  S   UNL     1       0.884  -2.823   1.525  0.00  0.00    -0.102 S 
ATOM      7 BR   UNL     1       4.878  -4.396   1.101  0.00  0.00    -0.050 Br
ENDBRANCH   1   2
BRANCH   1   8
ATOM      8  N   UNL     1      -0.777  -2.437  -1.256  0.00  0.00    +0.383 N 
ATOM      9  C   UNL     1      -1.519  -1.850  -2.380  0.00  0.00    -0.095 C 
ATOM     10  H   UNL     1      -1.177  -2.117  -0.386  0.00  0.00    -0.081 HD
BRANCH   8  11
ATOM     11  C   UNL     1      -0.862  -3.902  -1.324  0.00  0.00    -0.044 C 
BRANCH  11  12
ATOM     12  C   UNL     1      -2.314  -4.339  -1.123  0.00  0.00    +0.124 C 
BRANCH  12  13
ATOM     13  O   UNL     1      -2.773  -3.895   0.155  0.00  0.00    -0.391 OA
ATOM     14  H   UNL     1      -2.264  -4.245   0.899  0.00  0.00    +0.210 HD
ENDBRANCH  12  13
BRANCH  12  15
ATOM     15  C   UNL     1      -2.402  -5.865  -1.195  0.00  0.00    +0.188 C 
BRANCH  15  16
ATOM     16  O   UNL     1      -3.771  -6.267  -1.124  0.00  0.00    -0.381 OA
ATOM     17  C   UNL     1      -3.966  -7.681  -1.183  0.00  0.00    +0.194 C 
ENDBRANCH  15  16
ENDBRANCH  12  15
ENDBRANCH  11  12
ENDBRANCH   8  11
ENDBRANCH   1   8
BRANCH   1  18
ATOM     18  C   UNL     1       0.718  -0.497  -1.257  0.00  0.00    -0.085 C 
BRANCH  18  19
ATOM     19  N   UNL     1       2.129  -0.090  -1.209  0.00  0.00    +0.379 N 
ATOM     20  H   UNL     1       2.187   0.916  -1.162  0.00  0.00    -0.090 HD
ATOM     21  H   UNL     1       2.567  -0.491  -0.394  0.00  0.00    -0.090 HD
ATOM     22  H   UNL     1       2.601  -0.415  -2.039  0.00  0.00    -0.090 HD
ENDBRANCH  18  19
BRANCH  18  24
ATOM     23  C   UNL     1      -0.019   1.526   0.010  0.00  0.00    +0.002 C 
ATOM     24  C   UNL     1       0.002  -0.004   0.002  0.00  0.00    -0.021 C 
ENDBRANCH  18  24
ENDBRANCH   1  18
TORSDOF 10
