REMARK  Name = ZINC39534242
REMARK  9 active torsions:
REMARK  status: ('A' for Active; 'I' for Inactive)
REMARK    1  A    between atoms: C_4  and  O_7
REMARK    2  A    between atoms: O_7  and  S_8
REMARK    3  A    between atoms: S_8  and  C_11
REMARK    4  A    between atoms: C_14  and  C_17
REMARK    5  A    between atoms: C_17  and  C_19
REMARK    6  A    between atoms: C_17  and  N_22
REMARK    7  A    between atoms: C_19  and  N_20
REMARK    8  A    between atoms: C_26  and  C_29
REMARK    9  A    between atoms: C_34  and  O_35
REMARK                            x       y       z     vdW  Elec       q    Type
REMARK                         _______ _______ _______ _____ _____    ______ ____
ROOT
ATOM      1  C   UNL     1       0.894  -5.504   3.593  0.00  0.00    +0.103 C 
ENDROOT
BRANCH   1   2
ATOM      2  N   UNL     1       0.925  -6.552   2.564  0.00  0.00    -0.297 NA
ATOM      3  C   UNL     1      -0.331  -7.315   2.551  0.00  0.00    +0.066 C 
ATOM      4  C   UNL     1      -0.282  -8.355   1.429  0.00  0.00    -0.066 C 
ATOM      5  N   UNL     1       0.857  -9.257   1.648  0.00  0.00    +0.385 N 
ATOM      6  C   UNL     1       2.106  -8.484   1.633  0.00  0.00    -0.023 C 
ATOM      7  C   UNL     1       2.076  -7.445   2.756  0.00  0.00    +0.074 C 
ATOM      8  H   UNL     1       0.755  -9.716   2.541  0.00  0.00    -0.085 HD
ATOM      9  H   UNL     1       0.881  -9.950   0.915  0.00  0.00    -0.085 HD
BRANCH   6  10
ATOM     10  C   UNL     1       3.274  -9.414   1.839  0.00  0.00    -0.019 A 
ATOM     11  C   UNL     1       3.075 -10.661   2.399  0.00  0.00    +0.005 A 
ATOM     12  C   UNL     1       4.146 -11.514   2.588  0.00  0.00    +0.000 A 
ATOM     13  C   UNL     1       5.419 -11.121   2.218  0.00  0.00    +0.004 A 
ATOM     14  C   UNL     1       5.623  -9.876   1.657  0.00  0.00    +0.045 A 
ATOM     15  C   UNL     1       4.549  -9.020   1.461  0.00  0.00    +0.118 A 
BRANCH  15  16
ATOM     16  O   UNL     1       4.747  -7.796   0.905  0.00  0.00    -0.507 OA
ATOM     17  H   UNL     1       4.936  -7.098   1.547  0.00  0.00    +0.292 HD
ENDBRANCH  15  16
ENDBRANCH   6  10
ENDBRANCH   1   2
BRANCH   1  21
ATOM     18  C   UNL     1       3.042  -2.082   2.206  0.00  0.00    +0.128 A 
ATOM     19  C   UNL     1       1.816  -1.924   2.824  0.00  0.00    +0.031 A 
ATOM     20  C   UNL     1       1.121  -3.032   3.273  0.00  0.00    +0.007 A 
ATOM     21  C   UNL     1       1.651  -4.297   3.103  0.00  0.00    -0.029 A 
ATOM     22  C   UNL     1       2.877  -4.454   2.483  0.00  0.00    +0.007 A 
ATOM     23  C   UNL     1       3.570  -3.347   2.031  0.00  0.00    +0.031 A 
BRANCH  18  24
ATOM     24  S   UNL     1       3.928  -0.670   1.634  0.00  0.00    +0.151 S 
ATOM     25  O   UNL     1       5.297  -1.047   1.574  0.00  0.00    -0.131 OA
ATOM     26  O   UNL     1       3.475   0.434   2.405  0.00  0.00    -0.131 OA
BRANCH  24  27
ATOM     27  O   UNL     1       3.485  -0.411   0.201  0.00  0.00    -0.342 OA
BRANCH  27  31
ATOM     28  C   UNL     1      -0.268   1.272  -0.119  0.00  0.00    +0.000 A 
ATOM     29  C   UNL     1       0.847   2.084  -0.017  0.00  0.00    +0.004 A 
ATOM     30  C   UNL     1       2.104   1.523   0.090  0.00  0.00    +0.048 A 
ATOM     31  C   UNL     1       2.249   0.143   0.096  0.00  0.00    +0.157 A 
ATOM     32  C   UNL     1       1.129  -0.670  -0.005  0.00  0.00    +0.048 A 
ATOM     33  C   UNL     1      -0.126  -0.103  -0.113  0.00  0.00    +0.004 A 
ENDBRANCH  27  31
ENDBRANCH  24  27
ENDBRANCH  18  24
ENDBRANCH   1  21
BRANCH   1  34
ATOM     34  C   UNL     1       1.544  -6.028   4.875  0.00  0.00    +0.140 C 
BRANCH  34  35
ATOM     35  N   UNL     1       0.844  -7.241   5.319  0.00  0.00    -0.157 NA
ATOM     36  F   UNL     1       1.373  -7.712   6.408  0.00  0.00    -0.136 F 
ATOM     37  H   UNL     1      -0.142  -7.064   5.442  0.00  0.00    +0.159 HD
ENDBRANCH  34  35
ENDBRANCH   1  34
TORSDOF 9
