REMARK  Name = ZINC38684781
REMARK  15 active torsions:
REMARK  status: ('A' for Active; 'I' for Inactive)
REMARK    1  A    between atoms: C_1  and  C_2
REMARK    2  A    between atoms: C_2  and  C_3
REMARK    3  A    between atoms: C_3  and  C_4
REMARK    4  A    between atoms: C_4  and  C_5
REMARK    5  A    between atoms: C_5  and  O_6
REMARK    6  A    between atoms: O_6  and  C_7
REMARK    7  A    between atoms: C_11  and  C_13
REMARK    8  A    between atoms: C_18  and  O_27
REMARK    9  A    between atoms: C_22  and  N_26
REMARK   10  A    between atoms: C_23  and  C_24
REMARK   11  A    between atoms: O_27  and  C_28
REMARK   12  A    between atoms: C_28  and  C_30
REMARK   13  A    between atoms: C_30  and  O_31
REMARK   14  A    between atoms: O_31  and  C_32
REMARK   15  A    between atoms: C_35  and  C_38
REMARK                            x       y       z     vdW  Elec       q    Type
REMARK                         _______ _______ _______ _____ _____    ______ ____
ROOT
ATOM      1  C   UNL     1       2.850  -8.037  -4.858  0.00  0.00    +0.098 C 
ATOM      2  C   UNL     1       2.128  -8.498  -6.097  0.00  0.00    +0.008 A 
ATOM      3  C   UNL     1       0.747  -8.595  -6.083  0.00  0.00    +0.012 A 
ATOM      4  C   UNL     1       0.068  -9.015  -7.210  0.00  0.00    +0.047 A 
ATOM      5  C   UNL     1       0.770  -9.342  -8.361  0.00  0.00    +0.135 A 
ATOM      6  C   UNL     1       2.152  -9.246  -8.378  0.00  0.00    +0.093 A 
ATOM      7  C   UNL     1       2.834  -8.822  -7.244  0.00  0.00    +0.138 A 
ATOM      8  O   UNL     1       4.186  -8.734  -7.277  0.00  0.00    -0.441 OA
ATOM      9  C   UNL     1       4.884  -8.710  -6.129  0.00  0.00    +0.199 C 
ATOM     10  C   UNL     1       4.309  -8.387  -4.951  0.00  0.00    +0.098 C 
ENDROOT
BRANCH   1  15
ATOM     11  C   UNL     1       1.954  -4.635  -3.478  0.00  0.00    +0.121 A 
ATOM     12  C   UNL     1       2.435  -3.799  -4.475  0.00  0.00    +0.045 A 
ATOM     13  C   UNL     1       3.047  -4.337  -5.590  0.00  0.00    +0.004 A 
ATOM     14  C   UNL     1       3.181  -5.708  -5.713  0.00  0.00    +0.005 A 
ATOM     15  C   UNL     1       2.703  -6.543  -4.721  0.00  0.00    -0.031 A 
ATOM     16  C   UNL     1       2.095  -6.010  -3.601  0.00  0.00    +0.050 A 
BRANCH  11  17
ATOM     17  O   UNL     1       1.352  -4.109  -2.379  0.00  0.00    -0.492 OA
BRANCH  17  18
ATOM     18  C   UNL     1       1.242  -2.685  -2.320  0.00  0.00    +0.229 C 
BRANCH  18  19
ATOM     19  C   UNL     1       0.542  -2.281  -1.021  0.00  0.00    +0.041 C 
BRANCH  19  20
ATOM     20  C   UNL     1       0.424  -0.757  -0.957  0.00  0.00    +0.003 C 
BRANCH  20  22
ATOM     21  C   UNL     1      -0.393   1.171   0.406  0.00  0.00    +0.004 C 
ATOM     22  C   UNL     1      -0.276  -0.354   0.342  0.00  0.00    -0.003 C 
ENDBRANCH  20  22
ENDBRANCH  19  20
ENDBRANCH  18  19
ENDBRANCH  17  18
ENDBRANCH  11  17
ENDBRANCH   1  15
BRANCH   9  23
ATOM     23  N   UNL     1       6.221  -9.023  -6.156  0.00  0.00    -0.328 N 
ATOM     24  H   UNL     1       6.647  -9.257  -6.995  0.00  0.00    +0.145 HD
ATOM     25  H   UNL     1       6.738  -9.011  -5.335  0.00  0.00    +0.145 HD
ENDBRANCH   9  23
BRANCH  10  26
ATOM     26  C   UNL     1       5.109  -8.379  -3.763  0.00  0.00    +0.101 C 
ATOM     27  N   UNL     1       5.743  -8.372  -2.821  0.00  0.00    -0.191 NA
ENDBRANCH  10  26
BRANCH   5  28
ATOM     28  O   UNL     1       0.103  -9.757  -9.470  0.00  0.00    -0.423 OA
BRANCH  28  29
ATOM     29  C   UNL     1       0.237 -11.040  -9.844  0.00  0.00    +0.350 C 
ATOM     30  O   UNL     1       0.848 -11.812  -9.143  0.00  0.00    -0.247 OA
BRANCH  29  31
ATOM     31  C   UNL     1      -0.376 -11.516 -11.135  0.00  0.00    +0.349 C 
BRANCH  31  32
ATOM     32  O   UNL     1      -0.099 -12.907 -11.309  0.00  0.00    -0.481 OA
BRANCH  32  33
ATOM     33  C   UNL     1      -0.584 -13.497 -12.433  0.00  0.00    +0.121 A 
ATOM     34  C   UNL     1      -1.307 -12.752 -13.352  0.00  0.00    +0.046 A 
ATOM     35  C   UNL     1      -1.799 -13.354 -14.494  0.00  0.00    +0.007 A 
ATOM     36  C   UNL     1      -1.572 -14.698 -14.721  0.00  0.00    -0.050 A 
ATOM     37  C   UNL     1      -0.852 -15.444 -13.806  0.00  0.00    +0.007 A 
ATOM     38  C   UNL     1      -0.352 -14.845 -12.666  0.00  0.00    +0.046 A 
ATOM     39  C   UNL     1      -2.110 -15.353 -15.967  0.00  0.00    +0.044 C 
ENDBRANCH  32  33
ENDBRANCH  31  32
ENDBRANCH  29  31
ENDBRANCH  28  29
ENDBRANCH   5  28
TORSDOF 13
