REMARK  Name = ZINC48177347
REMARK  8 active torsions:
REMARK  status: ('A' for Active; 'I' for Inactive)
REMARK    1  A    between atoms: C_1  and  N_2
REMARK    2  A    between atoms: N_2  and  C_3
REMARK    3  A    between atoms: N_2  and  C_4
REMARK    4  A    between atoms: C_4  and  C_5
REMARK    5  A    between atoms: C_10  and  C_11
REMARK    6  A    between atoms: C_11  and  N_12
REMARK    7  A    between atoms: N_15  and  C_16
REMARK    8  A    between atoms: C_16  and  C_17
REMARK                            x       y       z     vdW  Elec       q    Type
REMARK                         _______ _______ _______ _____ _____    ______ ____
ROOT
ATOM      1  N   UNL     1      -2.581  -2.052   2.574  0.00  0.00    -0.295 N 
ATOM      2  C   UNL     1      -2.708  -1.489   3.792  0.00  0.00    +0.300 C 
ATOM      3  O   UNL     1      -1.746  -1.416   4.532  0.00  0.00    -0.253 OA
ATOM      4  N   UNL     1      -3.902  -1.006   4.190  0.00  0.00    -0.296 N 
ATOM      5  H   UNL     1      -3.349  -2.110   1.984  0.00  0.00    +0.151 HD
ATOM      6  H   UNL     1      -4.670  -1.064   3.600  0.00  0.00    +0.150 HD
ENDROOT
BRANCH   1   7
ATOM      7  C   UNL     1      -1.283  -2.577   2.142  0.00  0.00    +0.141 C 
BRANCH   7  13
ATOM      8  C   UNL     1      -1.270  -2.100  -0.315  0.00  0.00    -0.059 A 
ATOM      9  C   UNL     1      -1.349  -2.513  -1.633  0.00  0.00    +0.002 A 
ATOM     10  C   UNL     1      -1.540  -3.850  -1.928  0.00  0.00    +0.000 A 
ATOM     11  C   UNL     1      -1.652  -4.774  -0.906  0.00  0.00    +0.000 A 
ATOM     12  C   UNL     1      -1.571  -4.362   0.411  0.00  0.00    +0.005 A 
ATOM     13  C   UNL     1      -1.376  -3.025   0.706  0.00  0.00    -0.029 A 
BRANCH   8  14
ATOM     14  C   UNL     1      -1.062  -0.643   0.007  0.00  0.00    -0.043 C 
BRANCH  14  16
ATOM     15  C   UNL     1      -2.135   1.357   0.783  0.00  0.00    -0.096 C 
ATOM     16  N   UNL     1      -2.353  -0.025   0.335  0.00  0.00    +0.379 N 
ATOM     17  C   UNL     1      -3.212  -0.023  -0.856  0.00  0.00    -0.096 C 
ATOM     18  H   UNL     1      -2.800  -0.550   1.071  0.00  0.00    -0.082 HD
ENDBRANCH  14  16
ENDBRANCH   8  14
ENDBRANCH   7  13
ENDBRANCH   1   7
BRANCH   4  19
ATOM     19  C   UNL     1      -4.040  -0.394   5.513  0.00  0.00    +0.150 C 
BRANCH  19  20
ATOM     20  C   UNL     1      -5.486   0.068   5.713  0.00  0.00    +0.195 C 
ATOM     21  C   UNL     1      -5.636   0.835   7.049  0.00  0.00    +0.085 C 
ATOM     22  C   UNL     1      -6.645   1.906   6.682  0.00  0.00    -0.002 A 
ATOM     23  C   UNL     1      -7.422   2.746   7.450  0.00  0.00    +0.007 A 
ATOM     24  C   UNL     1      -8.281   3.642   6.840  0.00  0.00    +0.000 A 
ATOM     25  C   UNL     1      -8.355   3.692   5.460  0.00  0.00    +0.004 A 
ATOM     26  C   UNL     1      -7.575   2.854   4.689  0.00  0.00    +0.046 A 
ATOM     27  C   UNL     1      -6.705   1.951   5.296  0.00  0.00    +0.124 A 
ATOM     28  O   UNL     1      -5.844   1.058   4.735  0.00  0.00    -0.487 OA
ENDBRANCH  19  20
ENDBRANCH   4  19
TORSDOF 6
