REMARK  Name = ZINC32587286
REMARK  11 active torsions:
REMARK  status: ('A' for Active; 'I' for Inactive)
REMARK    1  A    between atoms: C_1  and  C_2
REMARK    2  A    between atoms: C_2  and  C_3
REMARK    3  A    between atoms: C_2  and  C_4
REMARK    4  A    between atoms: C_4  and  N_5
REMARK    5  A    between atoms: C_7  and  N_24
REMARK    6  A    between atoms: C_10  and  C_12
REMARK    7  A    between atoms: N_14  and  C_15
REMARK    8  A    between atoms: C_15  and  C_16
REMARK    9  A    between atoms: C_16  and  C_17
REMARK   10  A    between atoms: N_24  and  C_25
REMARK   11  A    between atoms: C_25  and  C_26
REMARK                            x       y       z     vdW  Elec       q    Type
REMARK                         _______ _______ _______ _____ _____    ______ ____
ROOT
ATOM      1  N   UNL     1      -2.024  -0.360  -1.327  0.00  0.00    +0.389 N 
ATOM      2  C   UNL     1      -2.169   1.101  -1.502  0.00  0.00    -0.059 C 
ATOM      3  C   UNL     1      -3.516   1.278  -2.247  0.00  0.00    +0.036 C 
ATOM      4  C   UNL     1      -4.381   0.165  -1.599  0.00  0.00    +0.010 C 
ATOM      5  C   UNL     1      -3.364  -0.973  -1.365  0.00  0.00    +0.021 C 
ATOM      6  H   UNL     1      -1.458  -0.735  -2.073  0.00  0.00    -0.081 HD
ENDROOT
BRANCH   5   7
ATOM      7  C   UNL     1      -3.441  -1.969  -2.493  0.00  0.00    +0.200 C 
ATOM      8  O   UNL     1      -2.475  -2.157  -3.203  0.00  0.00    -0.278 OA
ATOM      9  N   UNL     1      -4.582  -2.651  -2.714  0.00  0.00    -0.316 N 
ATOM     10  H   UNL     1      -5.354  -2.501  -2.146  0.00  0.00    +0.149 HD
BRANCH   9  11
ATOM     11  C   UNL     1      -4.656  -3.619  -3.811  0.00  0.00    +0.109 C 
BRANCH  11  12
ATOM     12  C   UNL     1      -6.050  -4.249  -3.842  0.00  0.00    +0.056 C 
BRANCH  12  13
ATOM     13  C   UNL     1      -6.126  -5.245  -4.970  0.00  0.00    -0.011 A 
ATOM     14  C   UNL     1      -6.628  -4.861  -6.199  0.00  0.00    +0.006 A 
ATOM     15  C   UNL     1      -6.698  -5.774  -7.234  0.00  0.00    +0.000 A 
ATOM     16  C   UNL     1      -6.267  -7.073  -7.041  0.00  0.00    +0.003 A 
ATOM     17  C   UNL     1      -5.764  -7.460  -5.814  0.00  0.00    +0.038 A 
ATOM     18  C   UNL     1      -5.689  -6.545  -4.777  0.00  0.00    +0.127 A 
ATOM     19  F   UNL     1      -5.194  -6.920  -3.578  0.00  0.00    -0.205 F 
ENDBRANCH  12  13
ENDBRANCH  11  12
ENDBRANCH   9  11
ENDBRANCH   5   7
BRANCH   3  20
ATOM     20  N   UNL     1      -4.088   2.606  -1.990  0.00  0.00    -0.311 NA
ATOM     21  H   UNL     1      -4.568   2.628  -1.102  0.00  0.00    +0.122 HD
BRANCH  20  22
ATOM     22  C   UNL     1      -4.983   3.014  -3.081  0.00  0.00    +0.116 C 
BRANCH  22  23
ATOM     23  C   UNL     1      -5.550   4.378  -2.783  0.00  0.00    -0.031 A 
ATOM     24  C   UNL     1      -6.731   4.495  -2.074  0.00  0.00    +0.008 A 
ATOM     25  C   UNL     1      -7.253   5.745  -1.799  0.00  0.00    +0.041 A 
ATOM     26  C   UNL     1      -6.593   6.882  -2.234  0.00  0.00    +0.158 A 
ATOM     27  C   UNL     1      -5.408   6.764  -2.945  0.00  0.00    +0.159 A 
ATOM     28  C   UNL     1      -4.886   5.511  -3.214  0.00  0.00    +0.046 A 
ATOM     29  F   UNL     1      -4.762   7.872  -3.370  0.00  0.00    -0.202 F 
ATOM     30  F   UNL     1      -7.102   8.104  -1.966  0.00  0.00    -0.202 F 
ENDBRANCH  22  23
ENDBRANCH  20  22
ENDBRANCH   3  20
BRANCH   1  31
ATOM     31  C   UNL     1      -1.388  -0.642  -0.033  0.00  0.00    -0.075 C 
BRANCH  31  33
ATOM     32  C   UNL     1       0.666  -0.285   1.343  0.00  0.00    +0.005 C 
ATOM     33  C   UNL     1       0.051  -0.122  -0.048  0.00  0.00    -0.034 C 
ATOM     34  C   UNL     1       0.870  -0.919  -1.065  0.00  0.00    +0.005 C 
ENDBRANCH  31  33
ENDBRANCH   1  31
TORSDOF 9
