REMARK  Name = ZINC67401131
REMARK  9 active torsions:
REMARK  status: ('A' for Active; 'I' for Inactive)
REMARK    1  A    between atoms: C_1  and  O_2
REMARK    2  A    between atoms: O_2  and  C_3
REMARK    3  A    between atoms: C_6  and  C_9
REMARK    4  A    between atoms: C_9  and  C_11
REMARK    5  A    between atoms: C_9  and  O_28
REMARK    6  A    between atoms: C_11  and  N_12
REMARK    7  A    between atoms: C_15  and  C_18
REMARK    8  A    between atoms: C_18  and  C_20
REMARK    9  A    between atoms: C_18  and  O_27
REMARK                            x       y       z     vdW  Elec       q    Type
REMARK                         _______ _______ _______ _____ _____    ______ ____
ROOT
ATOM      1  N   UNL     1       4.608  -3.491  -5.154  0.00  0.00    +0.382 N 
ATOM      2  C   UNL     1       4.796  -2.425  -6.146  0.00  0.00    -0.078 C 
ATOM      3  C   UNL     1       5.447  -3.003  -7.404  0.00  0.00    -0.012 C 
ATOM      4  C   UNL     1       6.806  -3.607  -7.038  0.00  0.00    +0.019 C 
ATOM      5  C   UNL     1       6.607  -4.665  -5.949  0.00  0.00    -0.012 C 
ATOM      6  C   UNL     1       5.912  -4.025  -4.745  0.00  0.00    -0.078 C 
ATOM      7  H   UNL     1       4.055  -4.231  -5.559  0.00  0.00    -0.082 HD
ENDROOT
BRANCH   1   8
ATOM      8  C   UNL     1       3.913  -2.947  -3.980  0.00  0.00    -0.042 C 
BRANCH   8   9
ATOM      9  C   UNL     1       2.505  -2.503  -4.381  0.00  0.00    +0.128 C 
BRANCH   9  13
ATOM     10  C   UNL     1       0.606  -0.607  -1.056  0.00  0.00    +0.120 A 
ATOM     11  C   UNL     1       1.173   0.161  -2.062  0.00  0.00    +0.046 A 
ATOM     12  C   UNL     1       1.786  -0.455  -3.136  0.00  0.00    +0.009 A 
ATOM     13  C   UNL     1       1.835  -1.835  -3.209  0.00  0.00    -0.021 A 
ATOM     14  C   UNL     1       1.270  -2.602  -2.207  0.00  0.00    +0.009 A 
ATOM     15  C   UNL     1       0.661  -1.992  -1.128  0.00  0.00    +0.046 A 
BRANCH  10  17
ATOM     16  C   UNL     1      -0.017   1.425   0.010  0.00  0.00    +0.277 C 
ATOM     17  O   UNL     1       0.002  -0.004   0.002  0.00  0.00    -0.495 OA
ENDBRANCH  10  17
ENDBRANCH   9  13
BRANCH   9  18
ATOM     18  O   UNL     1       1.741  -3.644  -4.779  0.00  0.00    -0.389 OA
ATOM     19  H   UNL     1       1.643  -4.312  -4.088  0.00  0.00    +0.210 HD
ENDBRANCH   9  18
ENDBRANCH   8   9
ENDBRANCH   1   8
BRANCH   4  20
ATOM     20  C   UNL     1       7.428  -4.257  -8.275  0.00  0.00    +0.147 C 
BRANCH  20  21
ATOM     21  C   UNL     1       8.765  -4.850  -7.913  0.00  0.00    -0.019 A 
ATOM     22  C   UNL     1       8.834  -6.124  -7.379  0.00  0.00    +0.007 A 
ATOM     23  C   UNL     1      10.060  -6.668  -7.046  0.00  0.00    +0.020 A 
ATOM     24  C   UNL     1      11.218  -5.939  -7.248  0.00  0.00    +0.041 A 
ATOM     25  C   UNL     1      11.149  -4.665  -7.782  0.00  0.00    +0.020 A 
ATOM     26  C   UNL     1       9.923  -4.123  -8.120  0.00  0.00    +0.007 A 
ATOM     27 CL   UNL     1      12.758  -6.622  -6.830  0.00  0.00    -0.084 Cl
ENDBRANCH  20  21
BRANCH  20  28
ATOM     28  O   UNL     1       6.564  -5.288  -8.756  0.00  0.00    -0.387 OA
ATOM     29  H   UNL     1       6.399  -5.994  -8.116  0.00  0.00    +0.210 HD
ENDBRANCH  20  28
ENDBRANCH   4  20
TORSDOF 8
