REMARK  Name = ZINC43632398
REMARK  6 active torsions:
REMARK  status: ('A' for Active; 'I' for Inactive)
REMARK    1  A    between atoms: C_1  and  C_2
REMARK    2  A    between atoms: C_2  and  C_4
REMARK    3  A    between atoms: C_2  and  O_7
REMARK    4  A    between atoms: O_7  and  C_8
REMARK    5  A    between atoms: C_8  and  C_10
REMARK    6  A    between atoms: C_13  and  N_17
REMARK                            x       y       z     vdW  Elec       q    Type
REMARK                         _______ _______ _______ _____ _____    ______ ____
ROOT
ATOM      1  C   UNL     1      -3.280  -1.226   1.305  0.00  0.00    +0.077 A 
ATOM      2  C   UNL     1      -4.006  -1.490   0.138  0.00  0.00    +0.018 A 
ATOM      3  C   UNL     1      -5.285  -1.962   0.220  0.00  0.00    +0.023 A 
ATOM      4  C   UNL     1      -5.872  -2.183   1.463  0.00  0.00    +0.026 A 
ATOM      5  C   UNL     1      -5.160  -1.925   2.630  0.00  0.00    +0.043 A 
ATOM      6  C   UNL     1      -3.866  -1.454   2.556  0.00  0.00    +0.057 A 
ATOM      7 CL   UNL     1      -2.970  -1.137   4.008  0.00  0.00    -0.083 Cl
ENDROOT
BRANCH   4   8
ATOM      8  N   UNL     1      -7.175  -2.664   1.538  0.00  0.00    -0.358 N 
ATOM      9  H   UNL     1      -7.673  -2.844   0.726  0.00  0.00    +0.142 HD
ATOM     10  H   UNL     1      -7.585  -2.818   2.403  0.00  0.00    +0.142 HD
ENDBRANCH   4   8
BRANCH   1  11
ATOM     11  C   UNL     1      -1.901  -0.717   1.217  0.00  0.00    +0.341 C 
ATOM     12  O   UNL     1      -1.270  -0.493   2.232  0.00  0.00    -0.245 OA
BRANCH  11  13
ATOM     13  O   UNL     1      -1.339  -0.499   0.012  0.00  0.00    -0.446 OA
BRANCH  13  15
ATOM     14  C   UNL     1      -0.019   1.526   0.010  0.00  0.00    +0.064 C 
ATOM     15  C   UNL     1       0.002  -0.004   0.002  0.00  0.00    +0.286 C 
BRANCH  15  16
ATOM     16  C   UNL     1       0.707  -0.490  -1.238  0.00  0.00    +0.396 C 
ATOM     17  O   UNL     1       1.893  -0.256  -1.396  0.00  0.00    -0.242 OA
ATOM     18  O   UNL     1       0.092  -1.118  -2.083  0.00  0.00    -0.242 OA
ENDBRANCH  15  16
ENDBRANCH  13  15
ENDBRANCH  11  13
ENDBRANCH   1  11
TORSDOF 5
