REMARK  Name = ZINC57524294
REMARK  9 active torsions:
REMARK  status: ('A' for Active; 'I' for Inactive)
REMARK    1  A    between atoms: C_1  and  C_2
REMARK    2  A    between atoms: C_2  and  N_3
REMARK    3  A    between atoms: N_3  and  C_4
REMARK    4  A    between atoms: C_4  and  C_5
REMARK    5  A    between atoms: C_9  and  C_12
REMARK    6  A    between atoms: C_12  and  N_13
REMARK    7  A    between atoms: C_14  and  C_16
REMARK    8  A    between atoms: C_16  and  C_17
REMARK    9  A    between atoms: C_17  and  C_18
REMARK                            x       y       z     vdW  Elec       q    Type
REMARK                         _______ _______ _______ _____ _____    ______ ____
ROOT
ATOM      1  N   UNL     1      -2.174  -0.237  -6.767  0.00  0.00    -0.311 N 
ATOM      2  C   UNL     1      -2.777  -0.245  -7.973  0.00  0.00    +0.213 C 
ATOM      3  O   UNL     1      -3.301  -1.259  -8.383  0.00  0.00    -0.276 OA
ATOM      4  H   UNL     1      -1.755   0.574  -6.440  0.00  0.00    +0.149 HD
ENDROOT
BRANCH   1   5
ATOM      5  C   UNL     1      -2.151  -1.454  -5.952  0.00  0.00    +0.141 C 
BRANCH   5  10
ATOM      6  N   UNL     1       0.688  -0.476  -1.203  0.00  0.00    -0.317 N 
ATOM      7  C   UNL     1      -0.035  -0.712  -2.367  0.00  0.00    +0.099 A 
ATOM      8  C   UNL     1      -1.409  -0.491  -2.382  0.00  0.00    +0.042 A 
ATOM      9  C   UNL     1      -2.115  -0.729  -3.547  0.00  0.00    +0.010 A 
ATOM     10  C   UNL     1      -1.422  -1.181  -4.662  0.00  0.00    -0.014 A 
ATOM     11  C   UNL     1      -0.059  -1.379  -4.576  0.00  0.00    +0.089 A 
ATOM     12  N   UNL     1       0.591  -1.139  -3.453  0.00  0.00    -0.349 N 
ATOM     13  H   UNL     1       1.549  -1.282  -3.421  0.00  0.00    +0.167 HD
BRANCH   6  15
ATOM     14  C   UNL     1      -0.019   1.526   0.010  0.00  0.00    +0.024 C 
ATOM     15  C   UNL     1       0.002  -0.004   0.002  0.00  0.00    +0.103 C 
ENDBRANCH   6  15
BRANCH   6  16
ATOM     16  C   UNL     1       2.135  -0.701  -1.182  0.00  0.00    +0.103 C 
ATOM     17  C   UNL     1       2.421  -2.145  -0.763  0.00  0.00    +0.024 C 
ENDBRANCH   6  16
ENDBRANCH   5  10
ENDBRANCH   1   5
BRANCH   2  18
ATOM     18  C   UNL     1      -2.800   1.007  -8.811  0.00  0.00    +0.098 C 
BRANCH  18  19
ATOM     19  C   UNL     1      -3.541   0.730 -10.121  0.00  0.00    +0.041 C 
BRANCH  19  20
ATOM     20  C   UNL     1      -3.564   2.001 -10.973  0.00  0.00    +0.161 C 
ATOM     21  C   UNL     1      -4.261   1.745 -12.294  0.00  0.00    +0.241 C 
ATOM     22  O   UNL     1      -3.928   0.962 -13.158  0.00  0.00    -0.273 OA
ATOM     23  N   UNL     1      -5.328   2.568 -12.308  0.00  0.00    -0.239 N 
ATOM     24  C   UNL     1      -5.401   3.301 -11.191  0.00  0.00    +0.307 C 
ATOM     25  O   UNL     1      -6.277   4.115 -10.974  0.00  0.00    -0.252 OA
ATOM     26  N   UNL     1      -4.394   3.037 -10.334  0.00  0.00    -0.288 N 
ATOM     27  H   UNL     1      -5.964   2.623 -13.039  0.00  0.00    +0.159 HD
ATOM     28  H   UNL     1      -4.245   3.447  -9.468  0.00  0.00    +0.151 HD
ENDBRANCH  19  20
ENDBRANCH  18  19
ENDBRANCH   2  18
TORSDOF 7
