REMARK  Name = ZINC39660340
REMARK  9 active torsions:
REMARK  status: ('A' for Active; 'I' for Inactive)
REMARK    1  A    between atoms: C_1  and  C_2
REMARK    2  A    between atoms: C_2  and  C_3
REMARK    3  A    between atoms: C_3  and  C_4
REMARK    4  A    between atoms: C_4  and  C_5
REMARK    5  A    between atoms: C_5  and  C_6
REMARK    6  A    between atoms: C_6  and  N_7
REMARK    7  A    between atoms: C_8  and  C_10
REMARK    8  A    between atoms: C_21  and  C_23
REMARK    9  A    between atoms: C_27  and  C_30
REMARK                            x       y       z     vdW  Elec       q    Type
REMARK                         _______ _______ _______ _____ _____    ______ ____
ROOT
ATOM      1  C   UNL     1      -5.844  -6.480   0.023  0.00  0.00    +0.100 C 
ATOM      2  C   UNL     1      -6.626  -5.939  -1.194  0.00  0.00    +0.121 C 
ATOM      3  N   UNL     1      -6.506  -7.002  -2.219  0.00  0.00    -0.296 N 
ATOM      4  C   UNL     1      -6.631  -8.266  -1.455  0.00  0.00    +0.115 C 
ATOM      5  C   UNL     1      -5.852  -8.008  -0.150  0.00  0.00    -0.004 C 
ATOM      6  C   UNL     1      -4.425  -8.533  -0.275  0.00  0.00    -0.010 C 
ATOM      7  C   UNL     1      -4.457 -10.060  -0.389  0.00  0.00    -0.082 C 
ATOM      8  N   UNL     1      -5.106 -10.628   0.799  0.00  0.00    +0.379 N 
ATOM      9  C   UNL     1      -6.506 -10.191   0.862  0.00  0.00    -0.082 C 
ATOM     10  C   UNL     1      -6.561  -8.670   1.028  0.00  0.00    -0.010 C 
ATOM     11  C   UNL     1      -6.326  -6.854  -3.547  0.00  0.00    +0.252 C 
ATOM     12  O   UNL     1      -6.247  -7.833  -4.263  0.00  0.00    -0.270 OA
ATOM     13  H   UNL     1      -5.071 -11.635   0.750  0.00  0.00    -0.086 HD
ATOM     14  H   UNL     1      -4.620 -10.316   1.627  0.00  0.00    -0.086 HD
ENDROOT
BRANCH  11  15
ATOM     15  C   UNL     1      -6.224  -5.503  -4.131  0.00  0.00    +0.107 A 
ATOM     16  C   UNL     1      -4.976  -4.882  -4.254  0.00  0.00    +0.138 A 
ATOM     17  C   UNL     1      -4.889  -3.617  -4.803  0.00  0.00    +0.039 A 
ATOM     18  C   UNL     1      -6.032  -2.964  -5.230  0.00  0.00    +0.009 A 
ATOM     19  C   UNL     1      -7.269  -3.570  -5.112  0.00  0.00    -0.014 A 
ATOM     20  C   UNL     1      -7.373  -4.838  -4.570  0.00  0.00    +0.141 A 
ATOM     21  F   UNL     1      -8.582  -5.431  -4.461  0.00  0.00    -0.204 F 
ATOM     22  C   UNL     1      -8.507  -2.849  -5.580  0.00  0.00    +0.047 C 
ATOM     23  F   UNL     1      -3.859  -5.518  -3.837  0.00  0.00    -0.205 F 
ENDBRANCH  11  15
BRANCH   1  25
ATOM     24  N   UNL     1      -3.760  -5.804   1.171  0.00  0.00    -0.315 N 
ATOM     25  C   UNL     1      -4.430  -5.958   0.012  0.00  0.00    +0.218 C 
ATOM     26  O   UNL     1      -3.895  -5.677  -1.039  0.00  0.00    -0.275 OA
ATOM     27  H   UNL     1      -4.187  -6.029   2.013  0.00  0.00    +0.149 HD
BRANCH  24  28
ATOM     28  C   UNL     1      -2.385  -5.297   1.161  0.00  0.00    +0.104 C 
BRANCH  28  29
ATOM     29  C   UNL     1      -1.860  -5.219   2.596  0.00  0.00    +0.019 C 
BRANCH  29  30
ATOM     30  C   UNL     1      -0.424  -4.689   2.585  0.00  0.00    +0.002 C 
BRANCH  30  31
ATOM     31  C   UNL     1       0.101  -4.611   4.020  0.00  0.00    -0.000 C 
BRANCH  31  33
ATOM     32  C   UNL     1       2.062  -4.002   5.444  0.00  0.00    +0.004 C 
ATOM     33  C   UNL     1       1.536  -4.081   4.009  0.00  0.00    -0.003 C 
ENDBRANCH  31  33
ENDBRANCH  30  31
ENDBRANCH  29  30
ENDBRANCH  28  29
ENDBRANCH  24  28
ENDBRANCH   1  25
TORSDOF 7
