REMARK  Name = ZINC20464634
REMARK  13 active torsions:
REMARK  status: ('A' for Active; 'I' for Inactive)
REMARK    1  A    between atoms: C_1  and  C_2
REMARK    2  A    between atoms: C_2  and  O_31
REMARK    3  A    between atoms: C_5  and  C_22
REMARK    4  A    between atoms: C_9  and  C_20
REMARK    5  A    between atoms: C_9  and  C_21
REMARK    6  A    between atoms: C_11  and  N_13
REMARK    7  A    between atoms: N_13  and  C_14
REMARK    8  A    between atoms: C_22  and  C_23
REMARK    9  A    between atoms: C_23  and  C_24
REMARK   10  A    between atoms: N_26  and  C_27
REMARK   11  A    between atoms: C_27  and  C_28
REMARK   12  A    between atoms: C_28  and  O_29
REMARK   13  A    between atoms: O_29  and  C_30
REMARK                            x       y       z     vdW  Elec       q    Type
REMARK                         _______ _______ _______ _____ _____    ______ ____
ROOT
ATOM      1  C   UNL     1      -0.413   1.532  -0.815  0.00  0.00    +0.041 C 
ATOM      2  C   UNL     1      -0.066   0.048  -0.686  0.00  0.00    +0.064 C 
ATOM      3  C   UNL     1      -1.351  -0.786  -0.716  0.00  0.00    +0.035 C 
ATOM      4  C   UNL     1      -0.968  -2.265  -0.663  0.00  0.00    +0.008 C 
ATOM      5  C   UNL     1      -0.180  -2.584   0.586  0.00  0.00    -0.038 C 
ATOM      6  C   UNL     1       1.044  -1.670   0.778  0.00  0.00    +0.002 C 
ATOM      7  C   UNL     1       0.645  -0.199   0.642  0.00  0.00    +0.039 C 
ATOM      8  C   UNL     1       1.377  -1.902   2.282  0.00  0.00    -0.033 C 
ATOM      9  C   UNL     1      -0.008  -1.979   2.960  0.00  0.00    -0.009 C 
ATOM     10  C   UNL     1      -1.007  -2.411   1.867  0.00  0.00    -0.064 C 
ATOM     11  C   UNL     1       2.185  -0.729   2.841  0.00  0.00    +0.011 C 
ATOM     12  C   UNL     1       2.139  -3.217   2.466  0.00  0.00    +0.011 C 
ENDROOT
BRANCH  10  13
ATOM     13  N   UNL     1      -1.642  -3.683   2.236  0.00  0.00    +0.383 N 
ATOM     14  H   UNL     1      -2.195  -4.019   1.462  0.00  0.00    -0.085 HD
ATOM     15  H   UNL     1      -0.930  -4.362   2.460  0.00  0.00    -0.085 HD
BRANCH  13  16
ATOM     16  C   UNL     1      -2.508  -3.478   3.404  0.00  0.00    -0.067 C 
ATOM     17  C   UNL     1      -3.669  -2.553   3.025  0.00  0.00    +0.012 C 
ATOM     18  C   UNL     1      -4.608  -2.408   4.225  0.00  0.00    +0.158 C 
ATOM     19  O   UNL     1      -5.073  -3.699   4.623  0.00  0.00    -0.380 OA
ATOM     20  C   UNL     1      -4.036  -4.592   5.033  0.00  0.00    +0.158 C 
ATOM     21  C   UNL     1      -3.073  -4.824   3.866  0.00  0.00    +0.012 C 
ENDBRANCH  13  16
ENDBRANCH  10  13
BRANCH   2  22
ATOM     22  O   UNL     1       0.786  -0.341  -1.766  0.00  0.00    -0.389 OA
ATOM     23  H   UNL     1       0.395  -0.216  -2.641  0.00  0.00    +0.210 HD
ENDBRANCH   2  22
BRANCH   5  24
ATOM     24  C   UNL     1       0.315  -4.029   0.507  0.00  0.00    +0.015 C 
BRANCH  24  25
ATOM     25  C   UNL     1       1.335  -4.158  -0.626  0.00  0.00    +0.096 C 
BRANCH  25  26
ATOM     26  C   UNL     1       1.788  -5.591  -0.733  0.00  0.00    +0.213 C 
ATOM     27  O   UNL     1       1.340  -6.427   0.022  0.00  0.00    -0.276 OA
ATOM     28  N   UNL     1       2.692  -5.944  -1.669  0.00  0.00    -0.313 N 
ATOM     29  H   UNL     1       3.051  -5.275  -2.273  0.00  0.00    +0.149 HD
BRANCH  28  30
ATOM     30  C   UNL     1       3.133  -7.337  -1.773  0.00  0.00    +0.132 C 
BRANCH  30  31
ATOM     31  C   UNL     1       4.153  -7.466  -2.906  0.00  0.00    +0.178 C 
BRANCH  31  32
ATOM     32  O   UNL     1       5.328  -6.721  -2.577  0.00  0.00    -0.381 OA
ATOM     33  C   UNL     1       6.349  -6.775  -3.575  0.00  0.00    +0.194 C 
ENDBRANCH  31  32
ENDBRANCH  30  31
ENDBRANCH  28  30
ENDBRANCH  25  26
ENDBRANCH  24  25
ENDBRANCH   5  24
TORSDOF 9
