REMARK  Name = ZINC04275743
REMARK  3 active torsions:
REMARK  status: ('A' for Active; 'I' for Inactive)
REMARK    1  A    between atoms: C_10  and  C_12
REMARK    2  A    between atoms: N_14  and  C_15
REMARK    3  A    between atoms: C_16  and  C_20
REMARK                            x       y       z     vdW  Elec       q    Type
REMARK                         _______ _______ _______ _____ _____    ______ ____
ROOT
ATOM      1  C   UNL     1       5.032  -2.487   0.526  0.00  0.00    +0.284 C 
ATOM      2  O   UNL     1       5.141  -3.668   0.791  0.00  0.00    -0.266 OA
ATOM      3  N   UNL     1       6.124  -1.699   0.499  0.00  0.00    -0.273 N 
ATOM      4  H   UNL     1       6.037  -0.756   0.288  0.00  0.00    +0.156 HD
ENDROOT
BRANCH   1  14
ATOM      5  C   UNL     1      -0.017   1.363   0.009  0.00  0.00    +0.001 A 
ATOM      6  C   UNL     1       1.171   2.081   0.002  0.00  0.00    +0.004 A 
ATOM      7  C   UNL     1       2.387   1.433  -0.017  0.00  0.00    +0.047 A 
ATOM      8  C   UNL     1       2.431   0.043  -0.028  0.00  0.00    +0.139 A 
ATOM      9  C   UNL     1       1.223  -0.676  -0.013  0.00  0.00    +0.064 A 
ATOM     10  C   UNL     1       0.002  -0.004   0.002  0.00  0.00    +0.015 A 
ATOM     11  C   UNL     1       1.293  -2.151  -0.006  0.00  0.00    +0.193 A 
ATOM     12  O   UNL     1       0.314  -2.845  -0.216  0.00  0.00    -0.287 OA
ATOM     13  C   UNL     1       2.617  -2.733   0.269  0.00  0.00    +0.103 A 
ATOM     14  C   UNL     1       3.698  -1.915   0.234  0.00  0.00    +0.194 A 
ATOM     15  O   UNL     1       3.609  -0.609  -0.054  0.00  0.00    -0.450 OA
ENDBRANCH   1  14
BRANCH   3  16
ATOM     16  C   UNL     1       7.372  -2.235   0.772  0.00  0.00    +0.084 A 
ATOM     17  C   UNL     1       8.595  -1.579   0.796  0.00  0.00    +0.065 A 
ATOM     18  C   UNL     1       9.752  -2.384   1.114  0.00  0.00    +0.022 A 
ATOM     19  C   UNL     1       9.513  -3.687   1.353  0.00  0.00    +0.048 A 
ATOM     20  S   UNL     1       7.750  -3.823   1.158  0.00  0.00    -0.081 S 
BRANCH  17  21
ATOM     21  C   UNL     1       8.707  -0.145   0.512  0.00  0.00    +0.244 C 
ATOM     22  O   UNL     1       7.711   0.502   0.247  0.00  0.00    -0.270 OA
ATOM     23  N   UNL     1       9.913   0.456   0.545  0.00  0.00    -0.325 N 
ATOM     24  H   UNL     1      10.707  -0.060   0.756  0.00  0.00    +0.145 HD
ATOM     25  H   UNL     1       9.987   1.405   0.357  0.00  0.00    +0.145 HD
ENDBRANCH  17  21
ENDBRANCH   3  16
TORSDOF 3
