REMARK  Name = ZINC36552145
REMARK  11 active torsions:
REMARK  status: ('A' for Active; 'I' for Inactive)
REMARK    1  A    between atoms: C_1  and  C_2
REMARK    2  A    between atoms: C_5  and  S_8
REMARK    3  A    between atoms: S_8  and  C_11
REMARK    4  A    between atoms: C_11  and  N_12
REMARK    5  A    between atoms: C_13  and  C_15
REMARK    6  A    between atoms: C_15  and  C_17
REMARK    7  A    between atoms: C_15  and  N_24
REMARK    8  A    between atoms: C_20  and  O_23
REMARK    9  A    between atoms: N_24  and  C_25
REMARK   10  A    between atoms: C_32  and  C_34
REMARK   11  A    between atoms: C_34  and  O_35
REMARK                            x       y       z     vdW  Elec       q    Type
REMARK                         _______ _______ _______ _____ _____    ______ ____
ROOT
ATOM      1  C   UNL     1       3.323  -4.875   3.645  0.00  0.00    +0.197 C 
ENDROOT
BRANCH   1   2
ATOM      2  C   UNL     1       2.787  -4.423   4.979  0.00  0.00    -0.018 A 
ATOM      3  C   UNL     1       2.134  -5.323   5.801  0.00  0.00    +0.009 A 
ATOM      4  C   UNL     1       1.641  -4.911   7.025  0.00  0.00    +0.046 A 
ATOM      5  C   UNL     1       1.803  -3.593   7.428  0.00  0.00    +0.117 A 
ATOM      6  C   UNL     1       2.459  -2.693   6.602  0.00  0.00    +0.046 A 
ATOM      7  C   UNL     1       2.954  -3.111   5.382  0.00  0.00    +0.009 A 
BRANCH   5   8
ATOM      8  O   UNL     1       1.319  -3.186   8.631  0.00  0.00    -0.507 OA
ATOM      9  H   UNL     1       1.948  -3.279   9.360  0.00  0.00    +0.292 HD
ENDBRANCH   5   8
ENDBRANCH   1   2
BRANCH   1  11
ATOM     10  N   UNL     1       2.187  -3.069   2.394  0.00  0.00    -0.294 N 
ATOM     11  C   UNL     1       2.413  -4.389   2.547  0.00  0.00    +0.240 C 
ATOM     12  O   UNL     1       1.883  -5.185   1.801  0.00  0.00    -0.273 OA
ATOM     13  H   UNL     1       2.610  -2.432   2.991  0.00  0.00    +0.150 HD
BRANCH  10  14
ATOM     14  C   UNL     1       1.302  -2.596   1.327  0.00  0.00    +0.278 C 
BRANCH  14  15
ATOM     15  S   UNL     1      -0.372  -2.365   1.987  0.00  0.00    +0.013 S 
ATOM     16  O   UNL     1      -0.757  -3.500   2.752  0.00  0.00    -0.168 OA
ATOM     17  O   UNL     1      -1.229  -1.847   0.979  0.00  0.00    -0.168 OA
BRANCH  15  22
ATOM     18  C   UNL     1       0.146   2.099   6.013  0.00  0.00    +0.044 C 
ATOM     19  C   UNL     1       0.017   0.984   5.007  0.00  0.00    -0.050 A 
ATOM     20  C   UNL     1      -0.270   1.274   3.686  0.00  0.00    +0.005 A 
ATOM     21  C   UNL     1      -0.389   0.251   2.764  0.00  0.00    +0.027 A 
ATOM     22  C   UNL     1      -0.220  -1.062   3.163  0.00  0.00    +0.090 A 
ATOM     23  C   UNL     1       0.068  -1.351   4.483  0.00  0.00    +0.027 A 
ATOM     24  C   UNL     1       0.191  -0.328   5.404  0.00  0.00    +0.005 A 
ENDBRANCH  15  22
ENDBRANCH  14  15
ENDBRANCH  10  14
ENDBRANCH   1  11
BRANCH   1  25
ATOM     25  N   UNL     1       3.386  -6.338   3.615  0.00  0.00    -0.253 N 
ATOM     26  C   UNL     1       2.250  -7.062   3.623  0.00  0.00    +0.246 C 
ATOM     27  O   UNL     1       1.175  -6.504   3.558  0.00  0.00    -0.273 OA
BRANCH  25  28
ATOM     28  C   UNL     1       4.627  -6.984   3.577  0.00  0.00    +0.039 A 
ATOM     29  C   UNL     1       5.674  -6.439   2.845  0.00  0.00    +0.023 A 
ATOM     30  C   UNL     1       6.897  -7.078   2.809  0.00  0.00    +0.003 A 
ATOM     31  C   UNL     1       7.082  -8.261   3.502  0.00  0.00    +0.020 A 
ATOM     32  C   UNL     1       6.041  -8.808   4.232  0.00  0.00    +0.043 A 
ATOM     33  C   UNL     1       4.816  -8.169   4.277  0.00  0.00    +0.043 A 
ATOM     34 CL   UNL     1       6.277 -10.293   5.099  0.00  0.00    -0.083 Cl
ENDBRANCH  25  28
BRANCH  26  35
ATOM     35  C   UNL     1       2.314  -8.565   3.713  0.00  0.00    +0.252 C 
BRANCH  35  36
ATOM     36  O   UNL     1       1.290  -9.136   2.895  0.00  0.00    -0.386 OA
ATOM     37  H   UNL     1       1.273 -10.102   2.905  0.00  0.00    +0.210 HD
ENDBRANCH  35  36
ENDBRANCH  26  35
ENDBRANCH   1  25
TORSDOF 10
