REMARK  Name = ZINC39634796
REMARK  12 active torsions:
REMARK  status: ('A' for Active; 'I' for Inactive)
REMARK    1  A    between atoms: C_1  and  C_2
REMARK    2  A    between atoms: C_2  and  C_3
REMARK    3  A    between atoms: C_2  and  N_4
REMARK    4  A    between atoms: N_4  and  C_5
REMARK    5  A    between atoms: N_4  and  C_29
REMARK    6  A    between atoms: C_5  and  C_6
REMARK    7  A    between atoms: C_6  and  N_7
REMARK    8  A    between atoms: C_8  and  C_10
REMARK    9  A    between atoms: C_21  and  C_23
REMARK   10  A    between atoms: N_27  and  C_28
REMARK   11  A    between atoms: C_29  and  C_30
REMARK   12  A    between atoms: C_29  and  C_31
REMARK                            x       y       z     vdW  Elec       q    Type
REMARK                         _______ _______ _______ _____ _____    ______ ____
ROOT
ATOM      1  C   UNL     1      -7.995  -1.336  -4.068  0.00  0.00    +0.100 C 
ATOM      2  C   UNL     1      -8.293  -2.743  -4.632  0.00  0.00    +0.121 C 
ATOM      3  N   UNL     1      -9.497  -3.194  -3.894  0.00  0.00    -0.295 N 
ATOM      4  C   UNL     1     -10.340  -1.980  -3.787  0.00  0.00    +0.115 C 
ATOM      5  C   UNL     1      -9.341  -0.837  -3.518  0.00  0.00    -0.004 C 
ATOM      6  C   UNL     1      -9.776   0.428  -4.252  0.00  0.00    -0.010 C 
ATOM      7  C   UNL     1     -11.088   0.938  -3.648  0.00  0.00    -0.082 C 
ATOM      8  N   UNL     1     -10.895   1.219  -2.220  0.00  0.00    +0.379 N 
ATOM      9  C   UNL     1     -10.568  -0.022  -1.506  0.00  0.00    -0.082 C 
ATOM     10  C   UNL     1      -9.235  -0.572  -2.019  0.00  0.00    -0.010 C 
ATOM     11  C   UNL     1      -9.764  -4.430  -3.427  0.00  0.00    +0.263 C 
ATOM     12  O   UNL     1     -10.871  -4.689  -2.991  0.00  0.00    -0.268 OA
ATOM     13  H   UNL     1     -10.140   1.879  -2.107  0.00  0.00    -0.086 HD
ATOM     14  H   UNL     1     -11.742   1.612  -1.839  0.00  0.00    -0.086 HD
ENDROOT
BRANCH  11  15
ATOM     15  C   UNL     1      -8.722  -5.462  -3.443  0.00  0.00    +0.104 A 
ATOM     16  C   UNL     1      -7.364  -5.247  -3.546  0.00  0.00    +0.032 A 
ATOM     17  C   UNL     1      -6.747  -6.501  -3.522  0.00  0.00    +0.020 A 
ATOM     18  C   UNL     1      -7.717  -7.440  -3.407  0.00  0.00    +0.086 A 
ATOM     19  N   UNL     1      -8.921  -6.821  -3.352  0.00  0.00    -0.346 N 
ATOM     20  C   UNL     1     -10.220  -7.487  -3.222  0.00  0.00    +0.149 C 
ENDBRANCH  11  15
BRANCH   1  22
ATOM     21  N   UNL     1      -6.254  -0.331  -2.626  0.00  0.00    -0.317 N 
ATOM     22  C   UNL     1      -6.975  -1.419  -2.962  0.00  0.00    +0.218 C 
ATOM     23  O   UNL     1      -6.802  -2.466  -2.374  0.00  0.00    -0.275 OA
ATOM     24  H   UNL     1      -6.393   0.506  -3.096  0.00  0.00    +0.149 HD
BRANCH  21  25
ATOM     25  C   UNL     1      -5.263  -0.412  -1.551  0.00  0.00    +0.085 C 
BRANCH  25  26
ATOM     26  C   UNL     1      -4.591   0.951  -1.372  0.00  0.00    -0.059 C 
BRANCH  26  27
ATOM     27  N   UNL     1      -3.521   0.843  -0.372  0.00  0.00    +0.384 N 
ATOM     28  H   UNL     1      -3.893   0.445   0.477  0.00  0.00    -0.081 HD
BRANCH  27  30
ATOM     29  C   UNL     1      -4.052   3.037   0.577  0.00  0.00    -0.014 C 
ATOM     30  C   UNL     1      -2.976   2.178  -0.091  0.00  0.00    -0.074 C 
ATOM     31  C   UNL     1      -1.772   2.050   0.845  0.00  0.00    -0.014 C 
ENDBRANCH  27  30
BRANCH  27  32
ATOM     32  C   UNL     1      -2.452  -0.023  -0.891  0.00  0.00    -0.074 C 
ATOM     33  C   UNL     1      -1.530   0.794  -1.799  0.00  0.00    -0.014 C 
ATOM     34  C   UNL     1      -1.645  -0.591   0.278  0.00  0.00    -0.014 C 
ENDBRANCH  27  32
ENDBRANCH  26  27
ENDBRANCH  25  26
ENDBRANCH  21  25
ENDBRANCH   1  22
TORSDOF 7
