REMARK  Name = ZINC06663776
REMARK  11 active torsions:
REMARK  status: ('A' for Active; 'I' for Inactive)
REMARK    1  A    between atoms: C_1  and  C_2
REMARK    2  A    between atoms: C_2  and  C_4
REMARK    3  A    between atoms: C_2  and  N_16
REMARK    4  A    between atoms: N_16  and  C_17
REMARK    5  A    between atoms: C_17  and  C_18
REMARK    6  A    between atoms: C_18  and  C_19
REMARK    7  A    between atoms: C_19  and  C_20
REMARK    8  A    between atoms: C_20  and  C_21
REMARK    9  A    between atoms: C_21  and  C_22
REMARK   10  A    between atoms: C_22  and  N_23
REMARK   11  A    between atoms: C_24  and  C_26
REMARK                            x       y       z     vdW  Elec       q    Type
REMARK                         _______ _______ _______ _____ _____    ______ ____
ROOT
ATOM      1  N   UNL     1       2.237   8.174  -0.147  0.00  0.00    -0.291 N 
ATOM      2  C   UNL     1       3.404   7.574   0.163  0.00  0.00    +0.219 C 
ATOM      3  O   UNL     1       3.405   6.550   0.812  0.00  0.00    -0.275 OA
ENDROOT
BRANCH   2   4
ATOM      4  C   UNL     1       4.706   8.177  -0.297  0.00  0.00    +0.075 C 
ATOM      5  C   UNL     1       4.887   7.917  -1.794  0.00  0.00    +0.013 C 
ATOM      6  C   UNL     1       6.210   8.529  -2.262  0.00  0.00    +0.001 C 
ATOM      7  C   UNL     1       7.367   7.891  -1.490  0.00  0.00    +0.000 C 
ATOM      8  C   UNL     1       7.186   8.150   0.007  0.00  0.00    +0.001 C 
ATOM      9  C   UNL     1       5.864   7.539   0.474  0.00  0.00    +0.013 C 
ENDBRANCH   2   4
BRANCH   1  11
ATOM     10  C   UNL     1       1.084   7.554   1.919  0.00  0.00    +0.036 C 
ATOM     11  C   UNL     1       0.980   7.655   0.396  0.00  0.00    +0.139 C 
BRANCH  11  12
ATOM     12  C   UNL     1       0.710   6.289  -0.180  0.00  0.00    +0.131 A 
ATOM     13  N   UNL     1      -0.564   5.865  -0.246  0.00  0.00    -0.232 NA
ATOM     14  H   UNL     1       2.745   5.982  -0.508  0.00  0.00    +0.170 HD
ATOM     15  C   UNL     1      -0.864   4.622  -0.766  0.00  0.00    +0.078 A 
ATOM     16  C   UNL     1      -2.168   4.154  -0.850  0.00  0.00    +0.028 A 
ATOM     17  C   UNL     1      -2.413   2.907  -1.384  0.00  0.00    +0.002 A 
ATOM     18  C   UNL     1      -1.369   2.108  -1.828  0.00  0.00    +0.001 A 
ATOM     19  C   UNL     1      -0.067   2.555  -1.753  0.00  0.00    +0.015 A 
ATOM     20  C   UNL     1       0.195   3.815  -1.222  0.00  0.00    +0.065 A 
ATOM     21  C   UNL     1       1.564   4.350  -1.115  0.00  0.00    +0.259 A 
ATOM     22  O   UNL     1       2.523   3.699  -1.492  0.00  0.00    -0.267 OA
ATOM     23  N   UNL     1       1.725   5.579  -0.589  0.00  0.00    -0.309 N 
ENDBRANCH  11  12
ENDBRANCH   1  11
BRANCH   1  24
ATOM     24  C   UNL     1       2.227   9.346  -1.026  0.00  0.00    +0.108 C 
BRANCH  24  25
ATOM     25  C   UNL     1       2.214  10.620  -0.178  0.00  0.00    +0.019 C 
BRANCH  25  26
ATOM     26  C   UNL     1       2.203  11.844  -1.097  0.00  0.00    +0.001 C 
BRANCH  26  27
ATOM     27  C   UNL     1       2.191  13.117  -0.249  0.00  0.00    -0.002 C 
BRANCH  27  28
ATOM     28  C   UNL     1       2.180  14.341  -1.167  0.00  0.00    -0.020 C 
BRANCH  28  29
ATOM     29  C   UNL     1       2.167  15.615  -0.320  0.00  0.00    -0.086 C 
BRANCH  29  30
ATOM     30  N   UNL     1       2.157  16.790  -1.201  0.00  0.00    +0.378 N 
ATOM     31  H   UNL     1       2.147  17.705  -0.592  0.00  0.00    -0.090 HD
ATOM     32  H   UNL     1       1.259  16.763  -1.837  0.00  0.00    -0.090 HD
ATOM     33  H   UNL     1       3.056  16.780  -1.835  0.00  0.00    -0.090 HD
ENDBRANCH  29  30
ENDBRANCH  28  29
ENDBRANCH  27  28
ENDBRANCH  26  27
ENDBRANCH  25  26
ENDBRANCH  24  25
ENDBRANCH   1  24
TORSDOF 10
