REMARK  Name = ZINC30499478
REMARK  10 active torsions:
REMARK  status: ('A' for Active; 'I' for Inactive)
REMARK    1  A    between atoms: C_1  and  C_2
REMARK    2  A    between atoms: C_2  and  C_3
REMARK    3  A    between atoms: N_5  and  C_6
REMARK    4  A    between atoms: C_9  and  C_12
REMARK    5  A    between atoms: C_12  and  C_14
REMARK    6  A    between atoms: C_12  and  N_15
REMARK    7  A    between atoms: N_15  and  C_16
REMARK    8  A    between atoms: C_16  and  C_18
REMARK    9  A    between atoms: C_16  and  C_19
REMARK   10  A    between atoms: N_21  and  C_22
REMARK                            x       y       z     vdW  Elec       q    Type
REMARK                         _______ _______ _______ _____ _____    ______ ____
ROOT
ATOM      1  N   UNL     1      -2.227  -4.265  -0.296  0.00  0.00    +0.391 N 
ATOM      2  H   UNL     1      -1.330  -4.489   0.300  0.00  0.00    -0.084 HD
ATOM      3  H   UNL     1      -2.033  -4.500  -1.353  0.00  0.00    -0.084 HD
ENDROOT
BRANCH   1   4
ATOM      4  C   UNL     1      -3.352  -5.076   0.188  0.00  0.00    -0.043 C 
ATOM      5  C   UNL     1      -3.245  -5.244   1.705  0.00  0.00    -0.009 C 
BRANCH   4   9
ATOM      6  C   UNL     1      -3.247  -8.918  -1.682  0.00  0.00    +0.033 A 
ATOM      7  C   UNL     1      -4.461  -8.271  -1.488  0.00  0.00    +0.023 A 
ATOM      8  C   UNL     1      -4.491  -7.030  -0.883  0.00  0.00    +0.004 A 
ATOM      9  C   UNL     1      -3.315  -6.431  -0.471  0.00  0.00    -0.062 A 
ATOM     10  C   UNL     1      -2.105  -7.070  -0.667  0.00  0.00    +0.004 A 
ATOM     11  C   UNL     1      -2.068  -8.313  -1.266  0.00  0.00    +0.023 A 
BRANCH   6  14
ATOM     12  C   UNL     1      -4.081 -10.467  -3.283  0.00  0.00    +0.217 C 
ATOM     13  O   UNL     1      -4.947  -9.673  -3.584  0.00  0.00    -0.275 OA
ATOM     14  N   UNL     1      -3.212 -10.175  -2.295  0.00  0.00    -0.286 N 
ATOM     15  H   UNL     1      -2.476 -10.925  -1.970  0.00  0.00    +0.155 HD
BRANCH  12  17
ATOM     16  C   UNL     1      -5.074 -11.861  -5.077  0.00  0.00    +0.013 C 
ATOM     17  C   UNL     1      -3.978 -11.781  -4.013  0.00  0.00    +0.093 C 
ENDBRANCH  12  17
ENDBRANCH   6  14
ENDBRANCH   4   9
ENDBRANCH   1   4
BRANCH   1  18
ATOM     18  C   UNL     1      -2.524  -2.831  -0.180  0.00  0.00    +0.014 C 
ATOM     19  C   UNL     1      -3.302  -2.369  -1.413  0.00  0.00    -0.004 C 
BRANCH  18  20
ATOM     20  C   UNL     1      -1.234  -2.058  -0.081  0.00  0.00    +0.203 C 
ATOM     21  O   UNL     1      -0.172  -2.644  -0.105  0.00  0.00    -0.277 OA
ATOM     22  N   UNL     1      -1.260  -0.715   0.034  0.00  0.00    -0.287 N 
ATOM     23  H   UNL     1      -2.221  -0.191   0.141  0.00  0.00    +0.155 HD
BRANCH  22  24
ATOM     24  C   UNL     1      -0.064   0.012   0.019  0.00  0.00    +0.035 A 
ATOM     25  C   UNL     1       0.056   1.170   0.776  0.00  0.00    +0.026 A 
ATOM     26  C   UNL     1       1.236   1.887   0.760  0.00  0.00    +0.041 A 
ATOM     27  C   UNL     1       2.301   1.451  -0.011  0.00  0.00    +0.142 A 
ATOM     28  C   UNL     1       2.185   0.296  -0.767  0.00  0.00    +0.078 A 
ATOM     29  C   UNL     1       1.005  -0.423  -0.753  0.00  0.00    +0.046 A 
ATOM     30 CL   UNL     1       3.522  -0.248  -1.732  0.00  0.00    -0.081 Cl
ATOM     31  F   UNL     1       3.455   2.154  -0.025  0.00  0.00    -0.204 F 
ENDBRANCH  22  24
ENDBRANCH  18  20
ENDBRANCH   1  18
TORSDOF 7
