REMARK  Name = ZINC44335569
REMARK  8 active torsions:
REMARK  status: ('A' for Active; 'I' for Inactive)
REMARK    1  A    between atoms: C_1  and  O_2
REMARK    2  A    between atoms: O_2  and  C_3
REMARK    3  A    between atoms: C_3  and  C_5
REMARK    4  A    between atoms: C_5  and  C_7
REMARK    5  A    between atoms: C_5  and  N_19
REMARK    6  A    between atoms: C_7  and  C_8
REMARK    7  A    between atoms: C_10  and  N_16
REMARK    8  A    between atoms: C_13  and  O_14
REMARK                            x       y       z     vdW  Elec       q    Type
REMARK                         _______ _______ _______ _____ _____    ______ ____
ROOT
ATOM      1  C   UNL     1      -0.963  -4.153  -1.412  0.00  0.00    -0.005 A 
ATOM      2  C   UNL     1      -2.070  -4.894  -1.777  0.00  0.00    +0.041 A 
ATOM      3  C   UNL     1      -2.012  -6.276  -1.768  0.00  0.00    +0.141 A 
ATOM      4  C   UNL     1      -0.846  -6.919  -1.392  0.00  0.00    +0.051 A 
ATOM      5  C   UNL     1       0.264  -6.181  -1.026  0.00  0.00    +0.063 A 
ATOM      6  C   UNL     1       0.209  -4.795  -1.040  0.00  0.00    +0.121 A 
ATOM      7 BR   UNL     1      -0.771  -8.808  -1.379  0.00  0.00    -0.048 Br
ENDROOT
BRANCH   3   8
ATOM      8  N   UNL     1      -3.200  -7.067  -2.159  0.00  0.00    +0.058 N 
ATOM      9  O   UNL     1      -4.219  -6.506  -2.487  0.00  0.00    -0.126 OA
ATOM     10  O   UNL     1      -3.150  -8.275  -2.151  0.00  0.00    -0.126 OA
ENDBRANCH   3   8
BRANCH   6  11
ATOM     11  O   UNL     1       1.301  -4.067  -0.686  0.00  0.00    -0.506 OA
ATOM     12  H   UNL     1       1.347  -3.862   0.258  0.00  0.00    +0.292 HD
ENDBRANCH   6  11
BRANCH   1  13
ATOM     13  C   UNL     1      -1.027  -2.647  -1.423  0.00  0.00    +0.033 C 
BRANCH  13  14
ATOM     14  C   UNL     1      -1.244  -2.135   0.003  0.00  0.00    +0.040 C 
BRANCH  14  15
ATOM     15  N   UNL     1      -2.559  -2.577   0.486  0.00  0.00    +0.387 N 
ATOM     16  H   UNL     1      -2.598  -3.585   0.481  0.00  0.00    -0.089 HD
ATOM     17  H   UNL     1      -2.702  -2.240   1.427  0.00  0.00    -0.089 HD
ATOM     18  H   UNL     1      -3.280  -2.209  -0.116  0.00  0.00    -0.089 HD
ENDBRANCH  14  15
BRANCH  14  19
ATOM     19  C   UNL     1      -1.185  -0.630   0.010  0.00  0.00    +0.292 C 
ATOM     20  O   UNL     1      -2.208   0.015   0.023  0.00  0.00    -0.253 OA
BRANCH  19  22
ATOM     21  C   UNL     1      -0.017   1.425   0.010  0.00  0.00    +0.280 C 
ATOM     22  O   UNL     1       0.002  -0.004   0.002  0.00  0.00    -0.469 OA
ENDBRANCH  19  22
ENDBRANCH  14  19
ENDBRANCH  13  14
ENDBRANCH   1  13
TORSDOF 7
