REMARK  Name = ZINC36543676
REMARK  16 active torsions:
REMARK  status: ('A' for Active; 'I' for Inactive)
REMARK    1  A    between atoms: C_1  and  C_2
REMARK    2  A    between atoms: C_2  and  C_3
REMARK    3  A    between atoms: C_2  and  C_4
REMARK    4  A    between atoms: C_2  and  C_5
REMARK    5  A    between atoms: C_5  and  C_6
REMARK    6  A    between atoms: C_6  and  C_7
REMARK    7  A    between atoms: C_6  and  C_8
REMARK    8  A    between atoms: C_6  and  N_9
REMARK    9  A    between atoms: C_10  and  C_12
REMARK   10  A    between atoms: C_12  and  C_14
REMARK   11  A    between atoms: C_12  and  N_21
REMARK   12  A    between atoms: C_17  and  O_20
REMARK   13  A    between atoms: N_21  and  C_22
REMARK   14  A    between atoms: C_29  and  C_31
REMARK   15  A    between atoms: C_34  and  O_37
REMARK   16  A    between atoms: O_37  and  C_38
REMARK                            x       y       z     vdW  Elec       q    Type
REMARK                         _______ _______ _______ _____ _____    ______ ____
ROOT
ATOM      1  C   UNL     1       5.407  -0.521  -3.988  0.00  0.00    +0.198 C 
ENDROOT
BRANCH   1   2
ATOM      2  C   UNL     1       5.259  -2.010  -4.171  0.00  0.00    -0.018 A 
ATOM      3  C   UNL     1       6.080  -2.876  -3.473  0.00  0.00    +0.009 A 
ATOM      4  C   UNL     1       5.946  -4.241  -3.639  0.00  0.00    +0.046 A 
ATOM      5  C   UNL     1       4.987  -4.742  -4.507  0.00  0.00    +0.117 A 
ATOM      6  C   UNL     1       4.165  -3.871  -5.207  0.00  0.00    +0.046 A 
ATOM      7  C   UNL     1       4.299  -2.507  -5.033  0.00  0.00    +0.009 A 
BRANCH   5   8
ATOM      8  O   UNL     1       4.854  -6.084  -4.673  0.00  0.00    -0.507 OA
ATOM      9  H   UNL     1       4.229  -6.496  -4.061  0.00  0.00    +0.292 HD
ENDBRANCH   5   8
ENDBRANCH   1   2
BRANCH   1  11
ATOM     10  N   UNL     1       3.789  -0.426  -2.119  0.00  0.00    -0.308 N 
ATOM     11  C   UNL     1       5.025  -0.148  -2.579  0.00  0.00    +0.239 C 
ATOM     12  O   UNL     1       5.830   0.403  -1.858  0.00  0.00    -0.273 OA
ATOM     13  H   UNL     1       3.146  -0.867  -2.696  0.00  0.00    +0.149 HD
BRANCH  10  14
ATOM     14  C   UNL     1       3.418  -0.063  -0.750  0.00  0.00    +0.030 C 
ATOM     15  C   UNL     1       3.683   1.427  -0.527  0.00  0.00    +0.031 C 
ATOM     16  C   UNL     1       4.250  -0.883   0.239  0.00  0.00    +0.031 C 
BRANCH  14  17
ATOM     17  C   UNL     1       1.932  -0.355  -0.530  0.00  0.00    +0.031 C 
BRANCH  17  19
ATOM     18  C   UNL     1       1.211  -0.933  -2.851  0.00  0.00    +0.010 C 
ATOM     19  C   UNL     1       1.133   0.121  -1.745  0.00  0.00    -0.036 C 
ATOM     20  C   UNL     1       1.718   1.440  -2.255  0.00  0.00    +0.010 C 
ATOM     21  C   UNL     1      -0.328   0.333  -1.343  0.00  0.00    +0.010 C 
ENDBRANCH  17  19
ENDBRANCH  14  17
ENDBRANCH  10  14
ENDBRANCH   1  11
BRANCH   1  22
ATOM     22  N   UNL     1       6.799  -0.135  -4.235  0.00  0.00    -0.250 N 
ATOM     23  C   UNL     1       7.154   1.165  -4.201  0.00  0.00    +0.252 C 
ATOM     24  O   UNL     1       6.306   2.023  -4.049  0.00  0.00    -0.270 OA
BRANCH  22  25
ATOM     25  C   UNL     1       7.759  -1.115  -4.506  0.00  0.00    +0.056 A 
ATOM     26  C   UNL     1       7.802  -1.721  -5.755  0.00  0.00    +0.025 A 
ATOM     27  C   UNL     1       8.752  -2.688  -6.020  0.00  0.00    +0.002 A 
ATOM     28  C   UNL     1       9.659  -3.055  -5.043  0.00  0.00    +0.002 A 
ATOM     29  C   UNL     1       9.620  -2.455  -3.798  0.00  0.00    +0.022 A 
ATOM     30  C   UNL     1       8.676  -1.482  -3.528  0.00  0.00    +0.062 A 
ATOM     31 CL   UNL     1       8.631  -0.724  -1.967  0.00  0.00    -0.082 Cl
ENDBRANCH  22  25
BRANCH  23  32
ATOM     32  C   UNL     1       8.571   1.547  -4.349  0.00  0.00    +0.037 A 
ATOM     33  C   UNL     1       9.400   0.840  -5.225  0.00  0.00    +0.016 A 
ATOM     34  C   UNL     1      10.722   1.200  -5.361  0.00  0.00    +0.046 A 
ATOM     35  C   UNL     1      11.233   2.264  -4.627  0.00  0.00    +0.120 A 
ATOM     36  C   UNL     1      10.413   2.969  -3.754  0.00  0.00    +0.046 A 
ATOM     37  C   UNL     1       9.088   2.619  -3.617  0.00  0.00    +0.016 A 
BRANCH  35  38
ATOM     38  O   UNL     1      12.537   2.616  -4.763  0.00  0.00    -0.495 OA
ATOM     39  C   UNL     1      12.997   3.719  -3.979  0.00  0.00    +0.277 C 
ENDBRANCH  35  38
ENDBRANCH  23  32
ENDBRANCH   1  22
TORSDOF 10
