REMARK  Name = ZINC19848646
REMARK  4 active torsions:
REMARK  status: ('A' for Active; 'I' for Inactive)
REMARK    1  A    between atoms: C_3  and  C_6
REMARK    2  A    between atoms: C_8  and  C_26
REMARK    3  A    between atoms: C_8  and  C_30
REMARK    4  A    between atoms: N_16  and  C_19
REMARK                            x       y       z     vdW  Elec       q    Type
REMARK                         _______ _______ _______ _____ _____    ______ ____
ROOT
ATOM      1  C   UNL     1       4.294   1.647   1.472  0.00  0.00    +0.134 C 
ATOM      2  N   UNL     1       4.764   2.856   1.458  0.00  0.00    -0.239 NA
ATOM      3  C   UNL     1       6.002   3.219   0.779  0.00  0.00    +0.285 C 
ATOM      4  C   UNL     1       6.423   2.155  -0.195  0.00  0.00    +0.100 A 
ATOM      5  C   UNL     1       7.379   2.439  -1.185  0.00  0.00    +0.262 A 
ATOM      6  O   UNL     1       7.870   3.552  -1.263  0.00  0.00    -0.267 OA
ATOM      7  N   UNL     1       7.748   1.472  -2.048  0.00  0.00    -0.274 N 
ATOM      8  H   UNL     1       8.407   1.665  -2.733  0.00  0.00    +0.173 HD
ATOM      9  C   UNL     1       7.212   0.241  -1.969  0.00  0.00    +0.335 A 
ATOM     10  O   UNL     1       7.561  -0.617  -2.756  0.00  0.00    -0.246 OA
ATOM     11  N   UNL     1       6.293  -0.056  -1.030  0.00  0.00    -0.250 N 
ATOM     12  C   UNL     1       5.888   0.903  -0.133  0.00  0.00    +0.124 A 
ATOM     13  N   UNL     1       4.945   0.612   0.826  0.00  0.00    -0.284 N 
ATOM     14  H   UNL     1       4.736  -0.310   1.045  0.00  0.00    +0.155 HD
ENDROOT
BRANCH  11  15
ATOM     15  C   UNL     1       5.749  -1.346  -0.967  0.00  0.00    +0.053 A 
ATOM     16  C   UNL     1       4.594  -1.649  -1.676  0.00  0.00    +0.028 A 
ATOM     17  C   UNL     1       4.060  -2.921  -1.613  0.00  0.00    +0.022 A 
ATOM     18  C   UNL     1       4.674  -3.893  -0.843  0.00  0.00    +0.041 A 
ATOM     19  C   UNL     1       5.826  -3.594  -0.136  0.00  0.00    +0.022 A 
ATOM     20  C   UNL     1       6.367  -2.325  -0.201  0.00  0.00    +0.028 A 
ATOM     21 CL   UNL     1       4.000  -5.491  -0.764  0.00  0.00    -0.084 Cl
ENDBRANCH  11  15
BRANCH   1  24
ATOM     22  C   UNL     1       1.117   1.683   3.482  0.00  0.00    +0.008 A 
ATOM     23  C   UNL     1       2.235   2.241   2.905  0.00  0.00    +0.019 A 
ATOM     24  C   UNL     1       3.044   1.370   2.196  0.00  0.00    +0.052 A 
ATOM     25  S   UNL     1       2.176  -0.175   2.390  0.00  0.00    -0.094 S 
ATOM     26  C   UNL     1       0.886   0.358   3.324  0.00  0.00    +0.046 A 
ENDBRANCH   1  24
BRANCH   3  27
ATOM     27  C   UNL     1       5.793   4.534   0.025  0.00  0.00    +0.428 C 
ATOM     28  F   UNL     1       5.074   5.424   0.830  0.00  0.00    -0.167 F 
ATOM     29  F   UNL     1       7.036   5.092  -0.293  0.00  0.00    -0.167 F 
ATOM     30  F   UNL     1       5.077   4.288  -1.152  0.00  0.00    -0.167 F 
ENDBRANCH   3  27
BRANCH   3  31
ATOM     31  C   UNL     1       7.107   3.410   1.820  0.00  0.00    +0.428 C 
ATOM     32  F   UNL     1       7.291   2.219   2.529  0.00  0.00    -0.167 F 
ATOM     33  F   UNL     1       8.299   3.759   1.176  0.00  0.00    -0.167 F 
ATOM     34  F   UNL     1       6.740   4.429   2.707  0.00  0.00    -0.167 F 
ENDBRANCH   3  31
TORSDOF 4
