REMARK  Name = ZINC64414439
REMARK  11 active torsions:
REMARK  status: ('A' for Active; 'I' for Inactive)
REMARK    1  A    between atoms: C_1  and  C_2
REMARK    2  A    between atoms: C_2  and  C_4
REMARK    3  A    between atoms: C_2  and  N_23
REMARK    4  A    between atoms: N_6  and  C_7
REMARK    5  A    between atoms: C_7  and  C_8
REMARK    6  A    between atoms: C_11  and  C_14
REMARK    7  A    between atoms: C_24  and  O_26
REMARK    8  A    between atoms: O_26  and  C_27
REMARK    9  A    between atoms: C_27  and  C_28
REMARK   10  A    between atoms: C_27  and  C_29
REMARK   11  A    between atoms: C_27  and  C_30
REMARK                            x       y       z     vdW  Elec       q    Type
REMARK                         _______ _______ _______ _____ _____    ______ ____
ROOT
ATOM      1  C   UNL     1       0.177  -0.130  -4.901  0.00  0.00    +0.006 C 
ATOM      2  C   UNL     1       0.263   1.397  -4.958  0.00  0.00    +0.005 C 
ATOM      3  C   UNL     1      -0.477   1.903  -6.197  0.00  0.00    +0.008 C 
ATOM      4  C   UNL     1       0.165   1.309  -7.453  0.00  0.00    +0.032 C 
ATOM      5  C   UNL     1       0.078  -0.217  -7.396  0.00  0.00    +0.008 C 
ATOM      6  C   UNL     1       0.818  -0.724  -6.156  0.00  0.00    +0.005 C 
ENDROOT
BRANCH   4   7
ATOM      7  C   UNL     1      -0.575   1.816  -8.692  0.00  0.00    +0.177 C 
ATOM      8  N   UNL     1       0.074   1.311  -9.908  0.00  0.00    -0.363 N 
ATOM      9  C   UNL     1       0.475   2.343 -10.594  0.00  0.00    +0.060 A 
ATOM     10  C   UNL     1       1.177   2.478 -11.877  0.00  0.00    +0.027 A 
ATOM     11  C   UNL     1       1.467   3.706 -12.351  0.00  0.00    +0.002 A 
ATOM     12  C   UNL     1       1.124   4.884 -11.664  0.00  0.00    +0.002 A 
ATOM     13  C   UNL     1       0.479   4.873 -10.480  0.00  0.00    +0.027 A 
ATOM     14  C   UNL     1       0.111   3.590  -9.867  0.00  0.00    +0.060 A 
ATOM     15  N   UNL     1      -0.500   3.281  -8.760  0.00  0.00    -0.363 N 
ATOM     16  H   UNL     1       0.185   0.380 -10.156  0.00  0.00    +0.162 HD
ATOM     17  H   UNL     1      -0.844   3.904  -8.101  0.00  0.00    +0.162 HD
ENDBRANCH   4   7
BRANCH   1  18
ATOM     18  C   UNL     1       0.917  -0.637  -3.661  0.00  0.00    +0.107 C 
BRANCH  18  21
ATOM     19  C   UNL     1       0.707  -0.490  -1.238  0.00  0.00    +0.233 C 
ATOM     20  O   UNL     1       1.704  -1.174  -1.140  0.00  0.00    -0.274 OA
ATOM     21  N   UNL     1       0.231  -0.164  -2.456  0.00  0.00    -0.314 N 
ATOM     22  H   UNL     1      -0.566   0.383  -2.534  0.00  0.00    +0.149 HD
BRANCH  19  24
ATOM     23  C   UNL     1      -0.019   1.526   0.010  0.00  0.00    +0.038 C 
ATOM     24  C   UNL     1       0.002  -0.004   0.002  0.00  0.00    +0.159 C 
BRANCH  24  25
ATOM     25  N   UNL     1       0.711  -0.489   1.189  0.00  0.00    -0.270 N 
ATOM     26  C   UNL     1       0.051  -0.633   2.355  0.00  0.00    +0.401 C 
ATOM     27  O   UNL     1      -1.131  -0.361   2.423  0.00  0.00    -0.226 OA
ATOM     28  H   UNL     1       1.654  -0.707   1.135  0.00  0.00    +0.153 HD
BRANCH  26  29
ATOM     29  O   UNL     1       0.702  -1.079   3.446  0.00  0.00    -0.445 OA
BRANCH  29  30
ATOM     30  C   UNL     1      -0.059  -1.208   4.649  0.00  0.00    +0.107 C 
ATOM     31  C   UNL     1      -1.206  -2.195   4.423  0.00  0.00    +0.055 C 
ATOM     32  C   UNL     1       0.844  -1.724   5.771  0.00  0.00    +0.055 C 
ATOM     33  C   UNL     1      -0.629   0.157   5.040  0.00  0.00    +0.055 C 
ENDBRANCH  29  30
ENDBRANCH  26  29
ENDBRANCH  24  25
ENDBRANCH  19  24
ENDBRANCH  18  21
ENDBRANCH   1  18
TORSDOF 7
