REMARK  Name = ZINC39325065
REMARK  9 active torsions:
REMARK  status: ('A' for Active; 'I' for Inactive)
REMARK    1  A    between atoms: C_1  and  C_2
REMARK    2  A    between atoms: C_7  and  S_8
REMARK    3  A    between atoms: S_8  and  N_11
REMARK    4  A    between atoms: N_11  and  C_12
REMARK    5  A    between atoms: N_11  and  C_19
REMARK    6  A    between atoms: C_12  and  C_13
REMARK    7  A    between atoms: C_19  and  C_20
REMARK    8  A    between atoms: C_25  and  C_33
REMARK    9  A    between atoms: C_26  and  C_32
REMARK                            x       y       z     vdW  Elec       q    Type
REMARK                         _______ _______ _______ _____ _____    ______ ____
ROOT
ATOM      1  N   UNL     1      -1.311  -0.111   3.164  0.00  0.00    -0.171 NA
ENDROOT
BRANCH   1   2
ATOM      2  S   UNL     1       0.230  -0.303   2.591  0.00  0.00    +0.064 S 
ATOM      3  O   UNL     1       0.959  -0.983   3.604  0.00  0.00    -0.153 OA
ATOM      4  O   UNL     1       0.634   0.959   2.079  0.00  0.00    -0.153 OA
BRANCH   2  11
ATOM      5  C   UNL     1      -0.081   0.590  -0.232  0.00  0.00    +0.046 C 
ATOM      6  C   UNL     1      -0.001  -0.903  -0.037  0.00  0.00    -0.022 A 
ATOM      7  C   UNL     1      -0.070  -1.740  -1.150  0.00  0.00    +0.007 A 
ATOM      8  C   UNL     1      -0.003  -3.087  -1.028  0.00  0.00    +0.031 A 
ATOM      9  C   UNL     1       0.142  -3.679   0.256  0.00  0.00    +0.102 A 
ATOM     10  C   UNL     1       0.214  -2.804   1.420  0.00  0.00    +0.126 A 
ATOM     11  C   UNL     1       0.141  -1.400   1.214  0.00  0.00    +0.136 A 
ATOM     12  N   UNL     1       0.349  -3.469   2.568  0.00  0.00    -0.189 NA
ATOM     13  S   UNL     1       0.376  -5.027   2.168  0.00  0.00    +0.117 S 
ATOM     14  N   UNL     1       0.225  -4.974   0.567  0.00  0.00    -0.191 NA
ENDBRANCH   2  11
ENDBRANCH   1   2
BRANCH   1  15
ATOM     15  C   UNL     1      -1.879  -1.100   4.085  0.00  0.00    +0.144 C 
BRANCH  15  16
ATOM     16  C   UNL     1      -1.677  -0.637   5.505  0.00  0.00    -0.032 A 
ATOM     17  C   UNL     1      -0.530  -0.990   6.191  0.00  0.00    +0.005 A 
ATOM     18  C   UNL     1      -0.346  -0.566   7.494  0.00  0.00    +0.000 A 
ATOM     19  C   UNL     1      -1.308   0.212   8.110  0.00  0.00    +0.000 A 
ATOM     20  C   UNL     1      -2.455   0.566   7.424  0.00  0.00    +0.000 A 
ATOM     21  C   UNL     1      -2.638   0.145   6.120  0.00  0.00    +0.005 A 
ENDBRANCH  15  16
ENDBRANCH   1  15
BRANCH   1  22
ATOM     22  C   UNL     1      -2.107   1.047   2.751  0.00  0.00    +0.126 C 
BRANCH  22  23
ATOM     23  C   UNL     1      -3.378   0.567   2.046  0.00  0.00    +0.114 C 
ATOM     24  C   UNL     1      -4.252   1.779   1.786  0.00  0.00    -0.003 C 
ATOM     25  C   UNL     1      -4.597   2.035   0.493  0.00  0.00    -0.007 A 
ATOM     26  C   UNL     1      -5.438   3.183   0.153  0.00  0.00    +0.013 A 
ATOM     27  C   UNL     1      -5.757   3.399  -1.149  0.00  0.00    -0.047 A 
ATOM     28  C   UNL     1      -5.301   2.551  -2.159  0.00  0.00    -0.046 A 
ATOM     29  C   UNL     1      -4.517   1.470  -1.910  0.00  0.00    +0.027 A 
ATOM     30  C   UNL     1      -4.129   1.157  -0.594  0.00  0.00    +0.041 A 
ATOM     31  N   UNL     1      -3.360   0.093  -0.361  0.00  0.00    -0.284 N 
ATOM     32  C   UNL     1      -2.960  -0.257   0.849  0.00  0.00    +0.225 C 
ATOM     33  O   UNL     1      -2.259  -1.240   0.999  0.00  0.00    -0.275 OA
ATOM     34  C   UNL     1      -5.692   2.848  -3.583  0.00  0.00    +0.044 C 
ATOM     35  C   UNL     1      -6.622   4.578  -1.511  0.00  0.00    +0.044 C 
ATOM     36  H   UNL     1      -3.081  -0.449  -1.116  0.00  0.00    +0.155 HD
ENDBRANCH  22  23
ENDBRANCH   1  22
TORSDOF 6
