REMARK  Name = ZINC66092014
REMARK  8 active torsions:
REMARK  status: ('A' for Active; 'I' for Inactive)
REMARK    1  A    between atoms: C_1  and  C_2
REMARK    2  A    between atoms: C_2  and  N_3
REMARK    3  A    between atoms: N_3  and  C_4
REMARK    4  A    between atoms: C_10  and  C_12
REMARK    5  A    between atoms: C_15  and  N_18
REMARK    6  A    between atoms: N_18  and  C_19
REMARK    7  A    between atoms: C_19  and  C_20
REMARK    8  A    between atoms: N_22  and  C_23
REMARK                            x       y       z     vdW  Elec       q    Type
REMARK                         _______ _______ _______ _____ _____    ______ ____
ROOT
ATOM      1  C   UNL     1      -1.140  -0.539   2.467  0.00  0.00    +0.037 A 
ATOM      2  C   UNL     1       0.133   0.028   2.355  0.00  0.00    +0.015 A 
ATOM      3  C   UNL     1       0.887   0.253   3.484  0.00  0.00    +0.023 A 
ATOM      4  C   UNL     1       0.384  -0.085   4.737  0.00  0.00    +0.028 A 
ATOM      5  C   UNL     1      -0.883  -0.651   4.852  0.00  0.00    +0.023 A 
ATOM      6  C   UNL     1      -1.645  -0.872   3.728  0.00  0.00    +0.015 A 
ENDROOT
BRANCH   1   8
ATOM      7  N   UNL     1      -1.346  -1.026   0.079  0.00  0.00    -0.268 N 
ATOM      8  C   UNL     1      -1.950  -0.781   1.259  0.00  0.00    +0.251 C 
ATOM      9  O   UNL     1      -3.164  -0.759   1.327  0.00  0.00    -0.270 OA
BRANCH   7  10
ATOM     10  C   UNL     1      -2.110  -1.156  -1.084  0.00  0.00    +0.037 A 
ATOM     11  C   UNL     1      -1.514  -1.582  -2.264  0.00  0.00    +0.023 A 
ATOM     12  C   UNL     1      -2.272  -1.710  -3.412  0.00  0.00    +0.002 A 
ATOM     13  C   UNL     1      -3.623  -1.414  -3.387  0.00  0.00    +0.000 A 
ATOM     14  C   UNL     1      -4.219  -0.990  -2.214  0.00  0.00    +0.002 A 
ATOM     15  C   UNL     1      -3.468  -0.865  -1.062  0.00  0.00    +0.023 A 
ENDBRANCH   7  10
BRANCH   7  17
ATOM     16  C   UNL     1       0.698   0.038  -0.740  0.00  0.00    +0.025 C 
ATOM     17  C   UNL     1       0.112  -1.156   0.017  0.00  0.00    +0.110 C 
ENDBRANCH   7  17
ENDBRANCH   1   8
BRANCH   4  18
ATOM     18  N   UNL     1       1.148   0.143   5.876  0.00  0.00    -0.335 N 
ATOM     19  H   UNL     1       2.031   0.536   5.797  0.00  0.00    +0.147 HD
BRANCH  18  20
ATOM     20  C   UNL     1       0.620  -0.212   7.196  0.00  0.00    +0.198 C 
BRANCH  20  21
ATOM     21  C   UNL     1       1.636   0.133   8.253  0.00  0.00    +0.234 C 
ATOM     22  O   UNL     1       2.697   0.628   7.936  0.00  0.00    -0.274 OA
ATOM     23  N   UNL     1       1.366  -0.107   9.552  0.00  0.00    -0.284 N 
ATOM     24  H   UNL     1       0.551  -0.570   9.800  0.00  0.00    +0.155 HD
BRANCH  23  25
ATOM     25  C   UNL     1       2.261   0.313  10.542  0.00  0.00    +0.033 A 
ATOM     26  C   UNL     1       2.435  -0.447  11.691  0.00  0.00    +0.024 A 
ATOM     27  C   UNL     1       3.320  -0.031  12.666  0.00  0.00    +0.016 A 
ATOM     28  C   UNL     1       4.032   1.143  12.499  0.00  0.00    +0.013 A 
ATOM     29  C   UNL     1       3.861   1.903  11.356  0.00  0.00    +0.016 A 
ATOM     30  C   UNL     1       2.982   1.488  10.375  0.00  0.00    +0.024 A 
ATOM     31  I   UNL     1       5.372   1.772  13.982  0.00  0.00    -0.044 I 
ENDBRANCH  23  25
ENDBRANCH  20  21
ENDBRANCH  18  20
ENDBRANCH   4  18
TORSDOF 7
