REMARK  Name = ZINC03583841
REMARK  9 active torsions:
REMARK  status: ('A' for Active; 'I' for Inactive)
REMARK    1  A    between atoms: C_1  and  C_2
REMARK    2  A    between atoms: C_9  and  N_15
REMARK    3  A    between atoms: C_10  and  C_11
REMARK    4  A    between atoms: C_11  and  O_13
REMARK    5  A    between atoms: O_13  and  C_14
REMARK    6  A    between atoms: C_16  and  C_18
REMARK    7  A    between atoms: C_18  and  N_62
REMARK    8  A    between atoms: N_21  and  S_24
REMARK    9  A    between atoms: S_24  and  C_27
REMARK                            x       y       z     vdW  Elec       q    Type
REMARK                         _______ _______ _______ _____ _____    ______ ____
ROOT
ATOM      1  N   UNL     1      -2.307  -5.916   0.763  0.00  0.00    -0.281 N 
ATOM      2  C   UNL     1      -3.571  -6.203   0.396  0.00  0.00    +0.201 C 
ATOM      3  O   UNL     1      -4.299  -5.323  -0.012  0.00  0.00    -0.278 OA
ATOM      4  H   UNL     1      -1.725  -6.620   1.090  0.00  0.00    +0.155 HD
ENDROOT
BRANCH   1  12
ATOM      5  C   UNL     1      -0.019   1.526   0.010  0.00  0.00    +0.008 C 
ATOM      6  C   UNL     1       0.002  -0.004   0.002  0.00  0.00    -0.009 C 
ATOM      7  C   UNL     1       0.742  -0.514   1.242  0.00  0.00    +0.008 C 
ATOM      8  C   UNL     1       0.984  -2.020   1.121  0.00  0.00    +0.037 C 
ATOM      9  C   UNL     1      -0.341  -2.706   0.809  0.00  0.00    -0.021 A 
ATOM     10  C   UNL     1      -1.390  -2.006   0.327  0.00  0.00    -0.004 A 
ATOM     11  S   UNL     1      -2.678  -3.203   0.124  0.00  0.00    -0.077 S 
ATOM     12  C   UNL     1      -1.837  -4.615   0.672  0.00  0.00    +0.086 A 
ATOM     13  C   UNL     1      -0.579  -4.127   0.999  0.00  0.00    +0.091 A 
ATOM     14  C   UNL     1      -1.437  -0.538   0.031  0.00  0.00    +0.046 C 
BRANCH  13  15
ATOM     15  C   UNL     1       0.468  -5.011   1.515  0.00  0.00    +0.342 C 
ATOM     16  O   UNL     1       0.576  -5.191   2.713  0.00  0.00    -0.245 OA
BRANCH  15  17
ATOM     17  O   UNL     1       1.314  -5.624   0.662  0.00  0.00    -0.464 OA
ATOM     18  C   UNL     1       2.327  -6.486   1.244  0.00  0.00    +0.280 C 
ENDBRANCH  15  17
ENDBRANCH  13  15
ENDBRANCH   1  12
BRANCH   2  19
ATOM     19  C   UNL     1      -4.082  -7.618   0.495  0.00  0.00    +0.019 C 
BRANCH  19  25
ATOM     20  C   UNL     1      -6.353  -6.910   0.943  0.00  0.00    -0.061 C 
ATOM     21  C   UNL     1      -7.760  -6.833   0.341  0.00  0.00    +0.091 C 
ATOM     22  N   UNL     1      -8.213  -8.200   0.037  0.00  0.00    -0.180 NA
ATOM     23  C   UNL     1      -7.325  -9.068  -0.750  0.00  0.00    +0.091 C 
ATOM     24  C   UNL     1      -5.935  -9.056  -0.105  0.00  0.00    -0.061 C 
ATOM     25  N   UNL     1      -5.478  -7.655   0.012  0.00  0.00    +0.387 N 
ATOM     26  H   UNL     1      -5.522  -7.212  -0.913  0.00  0.00    -0.081 HD
BRANCH  22  27
ATOM     27  S   UNL     1      -9.684  -8.745   0.568  0.00  0.00    +0.061 S 
ATOM     28  O   UNL     1     -10.494  -7.595   0.772  0.00  0.00    -0.153 OA
ATOM     29  O   UNL     1     -10.064  -9.800  -0.305  0.00  0.00    -0.153 OA
BRANCH  27  30
ATOM     30  C   UNL     1      -9.430  -9.470   2.154  0.00  0.00    +0.105 A 
ATOM     31  C   UNL     1      -9.129 -10.815   2.259  0.00  0.00    +0.028 A 
ATOM     32  C   UNL     1      -8.925 -11.382   3.503  0.00  0.00    +0.002 A 
ATOM     33  C   UNL     1      -9.031 -10.607   4.642  0.00  0.00    +0.000 A 
ATOM     34  C   UNL     1      -9.338  -9.263   4.537  0.00  0.00    +0.002 A 
ATOM     35  C   UNL     1      -9.536  -8.694   3.293  0.00  0.00    +0.028 A 
ENDBRANCH  27  30
ENDBRANCH  22  27
ENDBRANCH  19  25
ENDBRANCH   2  19
TORSDOF 7
