REMARK  Name = ZINC63498537
REMARK  4 active torsions:
REMARK  status: ('A' for Active; 'I' for Inactive)
REMARK    1  A    between atoms: C_1  and  O_2
REMARK    2  A    between atoms: O_2  and  C_3
REMARK    3  A    between atoms: C_3  and  C_5
REMARK    4  A    between atoms: C_6  and  C_10
REMARK                            x       y       z     vdW  Elec       q    Type
REMARK                         _______ _______ _______ _____ _____    ______ ____
ROOT
ATOM      1  C   UNL     1      -3.732  -2.174  -0.099  0.00  0.00    +0.194 C 
ATOM      2  N   UNL     1      -4.680  -3.063   0.584  0.00  0.00    -0.322 N 
ATOM      3  C   UNL     1      -4.680  -3.091   1.974  0.00  0.00    +0.041 A 
ATOM      4  C   UNL     1      -5.035  -4.225   2.684  0.00  0.00    +0.025 A 
ATOM      5  C   UNL     1      -5.015  -4.201   4.066  0.00  0.00    +0.022 A 
ATOM      6  C   UNL     1      -4.643  -3.051   4.746  0.00  0.00    +0.042 A 
ATOM      7  C   UNL     1      -4.288  -1.911   4.052  0.00  0.00    +0.035 A 
ATOM      8  C   UNL     1      -4.305  -1.922   2.660  0.00  0.00    +0.059 A 
ATOM      9  C   UNL     1      -3.944  -0.731   1.870  0.00  0.00    +0.247 C 
ATOM     10  O   UNL     1      -3.856   0.358   2.405  0.00  0.00    -0.270 OA
ATOM     11  N   UNL     1      -3.711  -0.862   0.548  0.00  0.00    -0.289 N 
ATOM     12 CL   UNL     1      -4.625  -3.045   6.482  0.00  0.00    -0.084 Cl
ATOM     13  H   UNL     1      -5.292  -3.618   0.077  0.00  0.00    +0.148 HD
ATOM     14  H   UNL     1      -3.526  -0.072   0.016  0.00  0.00    +0.151 HD
ENDROOT
BRANCH   1  16
ATOM     15  C   UNL     1      -1.839  -3.715  -0.897  0.00  0.00    +0.218 A 
ATOM     16  C   UNL     1      -2.353  -2.779  -0.045  0.00  0.00    +0.043 A 
ATOM     17  C   UNL     1      -1.347  -2.490   0.890  0.00  0.00    +0.049 A 
ATOM     18  C   UNL     1      -0.277  -3.252   0.572  0.00  0.00    +0.196 A 
ATOM     19  O   UNL     1      -0.579  -3.993  -0.502  0.00  0.00    -0.456 OA
BRANCH  15  20
ATOM     20  C   UNL     1      -2.536  -4.317  -2.037  0.00  0.00    +0.375 C 
ATOM     21  O   UNL     1      -3.708  -4.063  -2.235  0.00  0.00    -0.241 OA
BRANCH  20  23
ATOM     22  C   UNL     1      -2.619  -5.704  -3.955  0.00  0.00    +0.280 C 
ATOM     23  O   UNL     1      -1.877  -5.153  -2.865  0.00  0.00    -0.462 OA
ENDBRANCH  20  23
ENDBRANCH  15  20
ENDBRANCH   1  16
TORSDOF 3
