REMARK  Name = ZINC50208954
REMARK  7 active torsions:
REMARK  status: ('A' for Active; 'I' for Inactive)
REMARK    1  A    between atoms: C_1  and  C_2
REMARK    2  A    between atoms: C_2  and  N_3
REMARK    3  A    between atoms: N_3  and  C_4
REMARK    4  A    between atoms: C_4  and  C_5
REMARK    5  A    between atoms: C_5  and  C_6
REMARK    6  A    between atoms: N_10  and  C_11
REMARK    7  A    between atoms: C_16  and  C_17
REMARK                            x       y       z     vdW  Elec       q    Type
REMARK                         _______ _______ _______ _____ _____    ______ ____
ROOT
ATOM      1  N   UNL     1       0.712  -0.477   1.191  0.00  0.00    -0.285 N 
ATOM      2  C   UNL     1       2.041  -0.697   1.140  0.00  0.00    +0.306 C 
ATOM      3  O   UNL     1       2.626  -1.117   2.119  0.00  0.00    -0.252 OA
ATOM      4  N   UNL     1       2.721  -0.453   0.002  0.00  0.00    -0.269 N 
ATOM      5  H   UNL     1       2.244  -0.197  -0.803  0.00  0.00    +0.156 HD
ENDROOT
BRANCH   4   6
ATOM      6  C   UNL     1       4.108  -0.567  -0.018  0.00  0.00    +0.049 A 
ATOM      7  C   UNL     1       4.838  -0.409   1.153  0.00  0.00    +0.025 A 
ATOM      8  C   UNL     1       6.213  -0.522   1.131  0.00  0.00    +0.017 A 
ATOM      9  C   UNL     1       6.877  -0.793  -0.056  0.00  0.00    +0.019 A 
ATOM     10  C   UNL     1       6.171  -0.953  -1.228  0.00  0.00    +0.032 A 
ATOM     11  C   UNL     1       4.776  -0.848  -1.221  0.00  0.00    +0.085 A 
ATOM     12 BR   UNL     1       8.762  -0.944  -0.065  0.00  0.00    -0.050 Br
BRANCH  11  13
ATOM     13  C   UNL     1       4.014  -1.024  -2.467  0.00  0.00    +0.388 C 
ATOM     14  O   UNL     1       4.589  -1.358  -3.494  0.00  0.00    -0.241 OA
ATOM     15  O   UNL     1       2.805  -0.837  -2.476  0.00  0.00    -0.241 OA
ENDBRANCH  11  13
ENDBRANCH   4   6
BRANCH   1  17
ATOM     16  C   UNL     1       0.003   1.557   0.035  0.00  0.00    +0.024 C 
ATOM     17  C   UNL     1       0.007   0.028   0.010  0.00  0.00    +0.106 C 
ENDBRANCH   1  17
BRANCH   1  18
ATOM     18  C   UNL     1      -0.027  -0.743   2.428  0.00  0.00    +0.124 C 
BRANCH  18  19
ATOM     19  C   UNL     1      -0.525  -2.190   2.423  0.00  0.00    +0.137 C 
BRANCH  19  20
ATOM     20  C   UNL     1      -1.268  -2.457   3.665  0.00  0.00    +0.064 C 
ATOM     21  N   UNL     1      -1.841  -2.663   4.624  0.00  0.00    -0.197 NA
ENDBRANCH  19  20
ENDBRANCH  18  19
ENDBRANCH   1  18
TORSDOF 6
