REMARK  Name = ZINC54897045
REMARK  8 active torsions:
REMARK  status: ('A' for Active; 'I' for Inactive)
REMARK    1  A    between atoms: C_1  and  C_2
REMARK    2  A    between atoms: C_2  and  C_3
REMARK    3  A    between atoms: C_3  and  N_4
REMARK    4  A    between atoms: N_4  and  C_5
REMARK    5  A    between atoms: C_5  and  C_6
REMARK    6  A    between atoms: C_14  and  N_21
REMARK    7  A    between atoms: C_17  and  C_19
REMARK    8  A    between atoms: C_17  and  C_20
REMARK                            x       y       z     vdW  Elec       q    Type
REMARK                         _______ _______ _______ _____ _____    ______ ____
ROOT
ATOM      1  N   UNL     1       0.762  -1.976   1.234  0.00  0.00    -0.309 N 
ATOM      2  C   UNL     1      -0.262  -2.686   1.840  0.00  0.00    +0.161 A 
ATOM      3  N   UNL     1      -0.408  -3.990   1.936  0.00  0.00    -0.229 NA
ATOM      4  C   UNL     1      -1.452  -4.537   2.553  0.00  0.00    +0.053 A 
ATOM      5  C   UNL     1      -2.340  -3.650   3.068  0.00  0.00    -0.000 A 
ATOM      6  S   UNL     1      -1.621  -2.089   2.640  0.00  0.00    -0.059 S 
ATOM      7  C   UNL     1      -3.598  -3.946   3.812  0.00  0.00    -0.035 C 
ATOM      8  C   UNL     1      -3.568  -5.423   4.237  0.00  0.00    -0.005 C 
ATOM      9  C   UNL     1      -3.156  -6.275   3.033  0.00  0.00    -0.031 C 
ATOM     10  C   UNL     1      -1.682  -6.035   2.698  0.00  0.00    +0.062 C 
ATOM     11  C   UNL     1      -3.367  -7.754   3.362  0.00  0.00    +0.011 C 
ATOM     12  C   UNL     1      -4.018  -5.898   1.826  0.00  0.00    +0.011 C 
ENDROOT
BRANCH   7  13
ATOM     13  N   UNL     1      -3.684  -3.088   5.002  0.00  0.00    +0.383 N 
ATOM     14  H   UNL     1      -3.683  -2.120   4.719  0.00  0.00    -0.089 HD
ATOM     15  H   UNL     1      -4.537  -3.292   5.502  0.00  0.00    -0.089 HD
ATOM     16  H   UNL     1      -2.892  -3.265   5.601  0.00  0.00    -0.089 HD
ENDBRANCH   7  13
BRANCH   1  17
ATOM     17  C   UNL     1       0.742  -0.511   1.242  0.00  0.00    +0.107 C 
BRANCH  17  19
ATOM     18  C   UNL     1      -0.019   1.526   0.010  0.00  0.00    +0.005 C 
ATOM     19  C   UNL     1       0.002  -0.004   0.002  0.00  0.00    +0.016 C 
ENDBRANCH  17  19
ENDBRANCH   1  17
BRANCH   1  20
ATOM     20  C   UNL     1       1.864  -2.690   0.585  0.00  0.00    +0.110 C 
BRANCH  20  21
ATOM     21  C   UNL     1       2.981  -2.935   1.601  0.00  0.00    +0.006 C 
ATOM     22  C   UNL     1       3.313  -4.388   1.949  0.00  0.00    +0.005 C 
ATOM     23  C   UNL     1       4.277  -3.568   1.089  0.00  0.00    +0.005 C 
ENDBRANCH  20  21
ENDBRANCH   1  20
TORSDOF 5
