REMARK  Name = ZINC51925003
REMARK  4 active torsions:
REMARK  status: ('A' for Active; 'I' for Inactive)
REMARK    1  A    between atoms: C_1  and  C_2
REMARK    2  A    between atoms: C_4  and  C_10
REMARK    3  A    between atoms: C_6  and  C_9
REMARK    4  A    between atoms: C_7  and  O_8
REMARK                            x       y       z     vdW  Elec       q    Type
REMARK                         _______ _______ _______ _____ _____    ______ ____
ROOT
ATOM      1  C   UNL     1      -0.018   1.503   0.010  0.00  0.00    +0.047 C 
ATOM      2  C   UNL     1       0.002  -0.004   0.002  0.00  0.00    -0.009 A 
ATOM      3  C   UNL     1       0.006  -0.689  -1.198  0.00  0.00    +0.009 A 
ATOM      4  C   UNL     1       0.024  -2.071  -1.206  0.00  0.00    -0.052 A 
ATOM      5  C   UNL     1       0.040  -2.772  -0.014  0.00  0.00    +0.009 A 
ATOM      6  C   UNL     1       0.036  -2.092   1.188  0.00  0.00    -0.009 A 
ATOM      7  C   UNL     1       0.023  -0.705   1.199  0.00  0.00    +0.123 A 
ATOM      8  C   UNL     1       0.052  -2.856   2.487  0.00  0.00    +0.047 C 
ENDROOT
BRANCH   4   9
ATOM      9  C   UNL     1       0.028  -2.816  -2.516  0.00  0.00    +0.047 C 
ATOM     10  C   UNL     1       1.429  -3.251  -2.838  0.00  0.00    +0.203 C 
ATOM     11  O   UNL     1       2.340  -2.476  -2.636  0.00  0.00    -0.277 OA
ATOM     12  N   UNL     1       1.713  -4.459  -3.339  0.00  0.00    -0.318 N 
ATOM     13  C   UNL     1       0.688  -5.468  -3.589  0.00  0.00    +0.085 C 
ATOM     14  C   UNL     1      -0.693  -4.810  -3.621  0.00  0.00    -0.062 C 
ATOM     15  N   UNL     1      -0.851  -3.987  -2.413  0.00  0.00    +0.390 N 
ATOM     16  H   UNL     1       2.637  -4.673  -3.543  0.00  0.00    +0.149 HD
ATOM     17  H   UNL     1      -0.600  -4.528  -1.599  0.00  0.00    -0.084 HD
ATOM     18  H   UNL     1      -1.810  -3.684  -2.336  0.00  0.00    -0.084 HD
ENDBRANCH   4   9
BRANCH   7  19
ATOM     19  O   UNL     1       0.025  -0.033   2.381  0.00  0.00    -0.506 OA
ATOM     20  H   UNL     1      -0.857   0.149   2.731  0.00  0.00    +0.292 HD
ENDBRANCH   7  19
TORSDOF 2
