REMARK  Name = ZINC12586991
REMARK  14 active torsions:
REMARK  status: ('A' for Active; 'I' for Inactive)
REMARK    1  A    between atoms: C_1  and  C_2
REMARK    2  A    between atoms: C_4  and  C_8
REMARK    3  A    between atoms: N_6  and  C_7
REMARK    4  A    between atoms: C_8  and  N_67
REMARK    5  A    between atoms: C_9  and  C_10
REMARK    6  A    between atoms: C_9  and  N_67
REMARK    7  A    between atoms: C_13  and  O_29
REMARK    8  A    between atoms: C_15  and  O_16
REMARK    9  A    between atoms: O_16  and  C_17
REMARK   10  A    between atoms: C_17  and  C_18
REMARK   11  A    between atoms: C_18  and  C_20
REMARK   12  A    between atoms: C_18  and  O_28
REMARK   13  A    between atoms: C_20  and  N_70
REMARK   14  A    between atoms: O_29  and  C_30
REMARK                            x       y       z     vdW  Elec       q    Type
REMARK                         _______ _______ _______ _____ _____    ______ ____
ROOT
ATOM      1  C   UNL     1       1.422   1.773   4.784  0.00  0.00    -0.022 A 
ATOM      2  C   UNL     1       1.996   1.455   6.000  0.00  0.00    +0.009 A 
ATOM      3  C   UNL     1       3.142   0.685   6.046  0.00  0.00    +0.046 A 
ATOM      4  C   UNL     1       3.717   0.224   4.869  0.00  0.00    +0.124 A 
ATOM      5  C   UNL     1       3.140   0.537   3.648  0.00  0.00    +0.091 A 
ATOM      6  C   UNL     1       1.990   1.310   3.606  0.00  0.00    +0.125 A 
ENDROOT
BRANCH   4   7
ATOM      7  O   UNL     1       4.844  -0.534   4.915  0.00  0.00    -0.495 OA
ATOM      8  C   UNL     1       5.384  -0.817   6.207  0.00  0.00    +0.277 C 
ENDBRANCH   4   7
BRANCH   1   9
ATOM      9  C   UNL     1       0.176   2.619   4.738  0.00  0.00    -0.043 C 
BRANCH   9  10
ATOM     10  N   UNL     1      -0.997   1.742   4.556  0.00  0.00    +0.386 N 
ATOM     11  H   UNL     1      -0.896   1.221   3.677  0.00  0.00    -0.085 HD
ATOM     12  H   UNL     1      -1.051   1.082   5.340  0.00  0.00    -0.085 HD
BRANCH  10  13
ATOM     13  C   UNL     1      -2.233   2.544   4.507  0.00  0.00    -0.024 C 
BRANCH  13  17
ATOM     14  C   UNL     1      -6.248  -0.432   5.489  0.00  0.00    +0.065 C 
ATOM     15  C   UNL     1      -5.164   0.326   4.766  0.00  0.00    +0.036 A 
ATOM     16  C   UNL     1      -4.215   1.102   5.340  0.00  0.00    +0.045 A 
ATOM     17  C   UNL     1      -3.412   1.623   4.320  0.00  0.00    +0.046 A 
ATOM     18  N   UNL     1      -3.857   1.169   3.177  0.00  0.00    -0.178 NA
ATOM     19  N   UNL     1      -4.962   0.348   3.432  0.00  0.00    -0.271 N 
ATOM     20  C   UNL     1      -5.759  -0.362   2.429  0.00  0.00    +0.172 C 
ENDBRANCH  13  17
ENDBRANCH  10  13
ENDBRANCH   9  10
ENDBRANCH   1   9
BRANCH   6  21
ATOM     21  O   UNL     1       1.422   1.619   2.410  0.00  0.00    -0.489 OA
BRANCH  21  22
ATOM     22  C   UNL     1       2.064   1.114   1.238  0.00  0.00    +0.258 C 
BRANCH  22  23
ATOM     23  C   UNL     1       1.286   1.562  -0.002  0.00  0.00    +0.135 C 
BRANCH  23  24
ATOM     24  O   UNL     1      -0.011   0.963   0.007  0.00  0.00    -0.390 OA
ATOM     25  H   UNL     1       0.002  -0.004   0.002  0.00  0.00    +0.210 HD
ENDBRANCH  23  24
BRANCH  23  26
ATOM     26  C   UNL     1       2.040   1.127  -1.261  0.00  0.00    -0.044 C 
BRANCH  26  34
ATOM     27  C   UNL     1       1.007   3.073  -2.264  0.00  0.00    -0.079 C 
ATOM     28  C   UNL     1       0.564   3.682  -3.594  0.00  0.00    -0.019 C 
ATOM     29  C   UNL     1      -0.867   3.233  -3.907  0.00  0.00    -0.002 C 
ATOM     30  C   UNL     1      -0.839   1.769  -4.356  0.00  0.00    -0.000 C 
ATOM     31  C   UNL     1       0.323   1.561  -5.328  0.00  0.00    -0.002 C 
ATOM     32  C   UNL     1       1.376   0.660  -4.684  0.00  0.00    -0.019 C 
ATOM     33  C   UNL     1       2.174   1.468  -3.655  0.00  0.00    -0.079 C 
ATOM     34  N   UNL     1       1.332   1.644  -2.451  0.00  0.00    +0.381 N 
ATOM     35  H   UNL     1       0.460   1.117  -2.575  0.00  0.00    -0.082 HD
ENDBRANCH  26  34
ENDBRANCH  23  26
ENDBRANCH  22  23
ENDBRANCH  21  22
ENDBRANCH   6  21
TORSDOF 11
