REMARK  Name = ZINC20616153
REMARK  9 active torsions:
REMARK  status: ('A' for Active; 'I' for Inactive)
REMARK    1  A    between atoms: C_1  and  C_2
REMARK    2  A    between atoms: C_2  and  O_3
REMARK    3  A    between atoms: O_3  and  C_4
REMARK    4  A    between atoms: C_7  and  C_27
REMARK    5  A    between atoms: C_9  and  C_10
REMARK    6  A    between atoms: C_10  and  N_11
REMARK    7  A    between atoms: N_28  and  N_29
REMARK    8  A    between atoms: C_30  and  C_32
REMARK    9  A    between atoms: C_37  and  O_38
REMARK                            x       y       z     vdW  Elec       q    Type
REMARK                         _______ _______ _______ _____ _____    ______ ____
ROOT
ATOM      1  C   UNL     1      -1.498  -1.848   0.006  0.00  0.00    +0.122 A 
ATOM      2  C   UNL     1      -0.384  -2.677  -0.003  0.00  0.00    +0.046 A 
ATOM      3  C   UNL     1      -0.541  -4.046  -0.008  0.00  0.00    +0.013 A 
ATOM      4  C   UNL     1      -1.824  -4.600  -0.004  0.00  0.00    -0.005 A 
ATOM      5  C   UNL     1      -2.942  -3.762   0.005  0.00  0.00    +0.014 A 
ATOM      6  C   UNL     1      -2.775  -2.394   0.016  0.00  0.00    -0.022 A 
ENDROOT
BRANCH   4   7
ATOM      7  C   UNL     1      -1.997  -6.064  -0.011  0.00  0.00    +0.138 C 
ATOM      8  N   UNL     1      -0.957  -6.840  -0.020  0.00  0.00    -0.187 NA
BRANCH   8   9
ATOM      9  N   UNL     1      -1.122  -8.232  -0.025  0.00  0.00    -0.203 N 
ATOM     10  C   UNL     1      -0.042  -9.038  -0.035  0.00  0.00    +0.267 C 
ATOM     11  O   UNL     1       1.075  -8.558  -0.038  0.00  0.00    -0.268 OA
ATOM     12  H   UNL     1      -2.013  -8.614  -0.023  0.00  0.00    +0.178 HD
BRANCH  10  13
ATOM     13  C   UNL     1      -0.215 -10.503  -0.041  0.00  0.00    +0.080 A 
ATOM     14  C   UNL     1      -1.497 -11.059  -0.043  0.00  0.00    +0.017 A 
ATOM     15  C   UNL     1      -1.653 -12.428  -0.049  0.00  0.00    +0.001 A 
ATOM     16  C   UNL     1      -0.543 -13.257  -0.053  0.00  0.00    +0.004 A 
ATOM     17  C   UNL     1       0.730 -12.721  -0.051  0.00  0.00    +0.046 A 
ATOM     18  C   UNL     1       0.905 -11.345  -0.051  0.00  0.00    +0.129 A 
BRANCH  18  19
ATOM     19  O   UNL     1       2.154 -10.817  -0.055  0.00  0.00    -0.506 OA
ATOM     20  H   UNL     1       2.521 -10.668   0.827  0.00  0.00    +0.292 HD
ENDBRANCH  18  19
ENDBRANCH  10  13
ENDBRANCH   8   9
ENDBRANCH   4   7
BRANCH   1  21
ATOM     21  O   UNL     1      -1.339  -0.499   0.012  0.00  0.00    -0.492 OA
BRANCH  21  23
ATOM     22  C   UNL     1      -0.019   1.526   0.010  0.00  0.00    +0.048 C 
ATOM     23  C   UNL     1       0.002  -0.004   0.002  0.00  0.00    +0.225 C 
ENDBRANCH  21  23
ENDBRANCH   1  21
BRANCH   6  24
ATOM     24  C   UNL     1      -3.980  -1.489   0.032  0.00  0.00    -0.039 C 
BRANCH  24  25
ATOM     25  N   UNL     1      -4.240  -0.995  -1.327  0.00  0.00    +0.383 N 
ATOM     26  C   UNL     1      -5.484  -0.220  -1.334  0.00  0.00    -0.073 C 
ATOM     27  C   UNL     1      -5.792   0.314  -2.725  0.00  0.00    -0.007 C 
ATOM     28  C   UNL     1      -4.623   1.151  -3.254  0.00  0.00    +0.011 C 
ATOM     29  C   UNL     1      -3.372   0.266  -3.221  0.00  0.00    +0.020 C 
ATOM     30  C   UNL     1      -3.121  -0.146  -1.761  0.00  0.00    -0.069 C 
ATOM     31  C   UNL     1      -3.635  -0.991  -4.021  0.00  0.00    +0.023 A 
ATOM     32  C   UNL     1      -2.570  -1.593  -4.613  0.00  0.00    +0.022 A 
ATOM     33  C   UNL     1      -2.731  -2.792  -5.314  0.00  0.00    +0.007 A 
ATOM     34  C   UNL     1      -3.970  -3.360  -5.373  0.00  0.00    +0.070 A 
ATOM     35  C   UNL     1      -5.046  -2.715  -4.749  0.00  0.00    +0.251 A 
ATOM     36  O   UNL     1      -6.146  -3.245  -4.741  0.00  0.00    -0.268 OA
ATOM     37  N   UNL     1      -4.878  -1.509  -4.152  0.00  0.00    -0.312 N 
ATOM     38  C   UNL     1      -6.080  -0.808  -3.709  0.00  0.00    +0.126 C 
ATOM     39  H   UNL     1      -4.331  -1.778  -1.956  0.00  0.00    -0.081 HD
ENDBRANCH  24  25
ENDBRANCH   6  24
TORSDOF 8
