REMARK  Name = ZINC37711948
REMARK  10 active torsions:
REMARK  status: ('A' for Active; 'I' for Inactive)
REMARK    1  A    between atoms: C_1  and  C_2
REMARK    2  A    between atoms: C_2  and  C_3
REMARK    3  A    between atoms: C_3  and  N_4
REMARK    4  A    between atoms: N_4  and  C_5
REMARK    5  A    between atoms: C_5  and  C_6
REMARK    6  A    between atoms: C_8  and  O_22
REMARK    7  A    between atoms: C_9  and  O_13
REMARK    8  A    between atoms: O_13  and  C_14
REMARK    9  A    between atoms: C_19  and  O_21
REMARK   10  A    between atoms: O_22  and  C_23
REMARK                            x       y       z     vdW  Elec       q    Type
REMARK                         _______ _______ _______ _____ _____    ______ ____
ROOT
ATOM      1  C   UNL     1       1.446  -3.947  -2.482  0.00  0.00    -0.060 A 
ATOM      2  C   UNL     1       2.496  -4.626  -1.891  0.00  0.00    +0.051 A 
ATOM      3  C   UNL     1       2.517  -6.011  -1.898  0.00  0.00    +0.163 A 
ATOM      4  C   UNL     1       1.479  -6.717  -2.499  0.00  0.00    +0.176 A 
ATOM      5  C   UNL     1       0.429  -6.031  -3.089  0.00  0.00    +0.063 A 
ATOM      6  C   UNL     1       0.413  -4.647  -3.075  0.00  0.00    +0.021 A 
ATOM      7 BR   UNL     1      -0.983  -6.985  -3.908  0.00  0.00    -0.046 Br
ENDROOT
BRANCH   3   8
ATOM      8  O   UNL     1       3.549  -6.680  -1.318  0.00  0.00    -0.491 OA
ATOM      9  C   UNL     1       4.580  -5.890  -0.720  0.00  0.00    +0.277 C 
ENDBRANCH   3   8
BRANCH   1  10
ATOM     10  C   UNL     1       1.426  -2.440  -2.474  0.00  0.00    -0.047 C 
BRANCH  10  11
ATOM     11  N   UNL     1       0.738  -1.966  -1.265  0.00  0.00    +0.382 N 
ATOM     12  H   UNL     1       1.226  -2.301  -0.447  0.00  0.00    -0.085 HD
ATOM     13  H   UNL     1      -0.208  -2.316  -1.258  0.00  0.00    -0.085 HD
BRANCH  11  14
ATOM     14  C   UNL     1       0.718  -0.497  -1.257  0.00  0.00    -0.082 C 
BRANCH  14  16
ATOM     15  C   UNL     1      -0.019   1.526   0.010  0.00  0.00    +0.002 C 
ATOM     16  C   UNL     1       0.002  -0.004   0.002  0.00  0.00    -0.022 C 
ENDBRANCH  14  16
ENDBRANCH  11  14
ENDBRANCH  10  11
ENDBRANCH   1  10
BRANCH   4  17
ATOM     17  O   UNL     1       1.495  -8.077  -2.508  0.00  0.00    -0.481 OA
BRANCH  17  18
ATOM     18  C   UNL     1       0.872  -8.741  -1.407  0.00  0.00    +0.202 C 
ATOM     19  C   UNL     1       1.913  -9.023  -0.303  0.00  0.00    +0.047 C 
ATOM     20  C   UNL     1       1.503 -10.406   0.260  0.00  0.00    +0.006 C 
ATOM     21  C   UNL     1       1.053 -11.172  -1.009  0.00  0.00    +0.035 C 
ATOM     22  C   UNL     1       0.325 -10.107  -1.856  0.00  0.00    +0.155 C 
BRANCH  22  23
ATOM     23  O   UNL     1      -1.083 -10.171  -1.620  0.00  0.00    -0.388 OA
ATOM     24  H   UNL     1      -1.488 -11.009  -1.883  0.00  0.00    +0.210 HD
ENDBRANCH  22  23
ENDBRANCH  17  18
ENDBRANCH   4  17
TORSDOF 8
