REMARK  Name = ZINC02156829
REMARK  10 active torsions:
REMARK  status: ('A' for Active; 'I' for Inactive)
REMARK    1  A    between atoms: C_1  and  O_2
REMARK    2  A    between atoms: O_2  and  C_3
REMARK    3  A    between atoms: C_6  and  C_9
REMARK    4  A    between atoms: C_9  and  C_10
REMARK    5  A    between atoms: C_10  and  N_11
REMARK    6  A    between atoms: C_31  and  C_33
REMARK    7  A    between atoms: C_36  and  O_41
REMARK    8  A    between atoms: C_37  and  O_39
REMARK    9  A    between atoms: O_39  and  C_40
REMARK   10  A    between atoms: O_41  and  C_42
REMARK                            x       y       z     vdW  Elec       q    Type
REMARK                         _______ _______ _______ _____ _____    ______ ____
ROOT
ATOM      1  N   UNL     1       2.430  -4.148   5.925  0.00  0.00    -0.291 N 
ATOM      2  C   UNL     1       1.319  -3.751   6.774  0.00  0.00    +0.203 C 
ATOM      3  C   UNL     1       1.121  -2.270   6.782  0.00  0.00    +0.234 C 
ATOM      4  O   UNL     1       0.202  -1.827   7.438  0.00  0.00    -0.274 OA
ATOM      5  N   UNL     1       1.885  -1.403   6.115  0.00  0.00    -0.276 N 
ATOM      6  C   UNL     1       3.068  -1.801   5.353  0.00  0.00    +0.167 C 
ATOM      7  C   UNL     1       3.217  -3.287   5.283  0.00  0.00    +0.237 C 
ATOM      8  O   UNL     1       4.111  -3.736   4.597  0.00  0.00    -0.274 OA
ATOM      9  C   UNL     1       4.316  -1.188   6.004  0.00  0.00    +0.069 C 
ATOM     10  C   UNL     1       4.037   0.257   6.327  0.00  0.00    -0.015 A 
ATOM     11  C   UNL     1       4.987   1.311   6.624  0.00  0.00    +0.003 A 
ATOM     12  C   UNL     1       6.383   1.334   6.700  0.00  0.00    +0.010 A 
ATOM     13  C   UNL     1       6.967   2.536   7.016  0.00  0.00    +0.001 A 
ATOM     14  C   UNL     1       6.220   3.679   7.249  0.00  0.00    +0.002 A 
ATOM     15  C   UNL     1       4.837   3.684   7.180  0.00  0.00    +0.026 A 
ATOM     16  C   UNL     1       4.217   2.478   6.862  0.00  0.00    +0.047 A 
ATOM     17  N   UNL     1       2.904   2.135   6.713  0.00  0.00    -0.356 N 
ATOM     18  H   UNL     1       2.154   2.741   6.818  0.00  0.00    +0.166 HD
ATOM     19  C   UNL     1       2.805   0.807   6.393  0.00  0.00    +0.046 A 
ATOM     20  C   UNL     1       1.532   0.032   6.141  0.00  0.00    +0.154 C 
ENDROOT
BRANCH  20  21
ATOM     21  C   UNL     1       0.938   0.439   4.817  0.00  0.00    -0.018 A 
ATOM     22  C   UNL     1       1.717   0.411   3.675  0.00  0.00    +0.009 A 
ATOM     23  C   UNL     1       1.175   0.778   2.457  0.00  0.00    +0.050 A 
ATOM     24  C   UNL     1      -0.147   1.184   2.381  0.00  0.00    +0.162 A 
ATOM     25  C   UNL     1      -0.931   1.211   3.530  0.00  0.00    +0.162 A 
ATOM     26  C   UNL     1      -0.384   0.837   4.747  0.00  0.00    +0.055 A 
BRANCH  25  27
ATOM     27  O   UNL     1      -2.232   1.603   3.459  0.00  0.00    -0.491 OA
ATOM     28  C   UNL     1      -2.976   1.605   4.679  0.00  0.00    +0.277 C 
ENDBRANCH  25  27
BRANCH  24  29
ATOM     29  O   UNL     1      -0.680   1.550   1.184  0.00  0.00    -0.491 OA
ATOM     30  C   UNL     1       0.183   1.498   0.046  0.00  0.00    +0.277 C 
ENDBRANCH  24  29
ENDBRANCH  20  21
BRANCH   1  31
ATOM     31  C   UNL     1       2.700  -5.579   5.766  0.00  0.00    +0.113 C 
BRANCH  31  32
ATOM     32  C   UNL     1       1.910  -6.118   4.572  0.00  0.00    +0.054 C 
BRANCH  32  36
ATOM     33  C   UNL     1       2.698 -10.293   4.110  0.00  0.00    +0.120 A 
ATOM     34  C   UNL     1       1.647  -9.869   4.911  0.00  0.00    +0.046 A 
ATOM     35  C   UNL     1       1.395  -8.519   5.059  0.00  0.00    +0.007 A 
ATOM     36  C   UNL     1       2.187  -7.591   4.409  0.00  0.00    -0.046 A 
ATOM     37  C   UNL     1       3.231  -8.011   3.606  0.00  0.00    +0.007 A 
ATOM     38  C   UNL     1       3.491  -9.360   3.459  0.00  0.00    +0.046 A 
BRANCH  33  40
ATOM     39  C   UNL     1       4.046 -11.985   3.123  0.00  0.00    +0.277 C 
ATOM     40  O   UNL     1       2.948 -11.621   3.963  0.00  0.00    -0.495 OA
ENDBRANCH  33  40
ENDBRANCH  32  36
ENDBRANCH  31  32
ENDBRANCH   1  31
TORSDOF 7
