REMARK  Name = ZINC02794188
REMARK  10 active torsions:
REMARK  status: ('A' for Active; 'I' for Inactive)
REMARK    1  A    between atoms: C_1  and  C_2
REMARK    2  A    between atoms: C_7  and  N_8
REMARK    3  A    between atoms: N_8  and  C_9
REMARK    4  A    between atoms: C_9  and  N_11
REMARK    5  A    between atoms: N_11  and  N_12
REMARK    6  A    between atoms: C_13  and  C_15
REMARK    7  A    between atoms: C_20  and  C_34
REMARK    8  A    between atoms: C_23  and  C_26
REMARK    9  A    between atoms: C_29  and  C_33
REMARK   10  A    between atoms: C_30  and  C_32
REMARK                            x       y       z     vdW  Elec       q    Type
REMARK                         _______ _______ _______ _____ _____    ______ ____
ROOT
ATOM      1  C   UNL     1       1.717  -1.597  -3.069  0.00  0.00    +0.150 A 
ATOM      2  C   UNL     1       2.297  -0.310  -3.132  0.00  0.00    +0.078 A 
ATOM      3  C   UNL     1       1.439   0.552  -2.552  0.00  0.00    +0.119 A 
ATOM      4  N   UNL     1       0.346  -0.152  -2.133  0.00  0.00    -0.238 N 
ATOM      5  N   UNL     1       0.546  -1.491  -2.466  0.00  0.00    -0.164 NA
ATOM      6  C   UNL     1      -0.803   0.456  -1.457  0.00  0.00    +0.215 C 
ATOM      7  C   UNL     1      -0.802   1.963  -1.736  0.00  0.00    +0.063 C 
ATOM      8  C   UNL     1       0.584   2.548  -1.442  0.00  0.00    +0.104 C 
ATOM      9  N   UNL     1       1.558   1.932  -2.364  0.00  0.00    -0.322 N 
ATOM     10  H   UNL     1       2.320   2.555  -2.857  0.00  0.00    +0.148 HD
ENDROOT
BRANCH   8  11
ATOM     11  C   UNL     1       0.559   4.040  -1.654  0.00  0.00    -0.027 A 
ATOM     12  C   UNL     1       0.658   4.558  -2.931  0.00  0.00    +0.006 A 
ATOM     13  C   UNL     1       0.631   5.926  -3.126  0.00  0.00    +0.004 A 
ATOM     14  C   UNL     1       0.515   6.777  -2.042  0.00  0.00    -0.048 A 
ATOM     15  C   UNL     1       0.422   6.258  -0.764  0.00  0.00    -0.047 A 
ATOM     16  C   UNL     1       0.444   4.889  -0.570  0.00  0.00    +0.009 A 
ATOM     17  C   UNL     1       0.295   7.185   0.418  0.00  0.00    +0.044 C 
ATOM     18  C   UNL     1       0.491   8.268  -2.253  0.00  0.00    +0.044 C 
ENDBRANCH   8  11
BRANCH   1  20
ATOM     19  N   UNL     1       1.655  -4.012  -3.461  0.00  0.00    -0.230 N 
ATOM     20  C   UNL     1       2.317  -2.845  -3.585  0.00  0.00    +0.280 C 
ATOM     21  O   UNL     1       3.407  -2.818  -4.123  0.00  0.00    -0.267 OA
ATOM     22  H   UNL     1       0.669  -4.036  -2.974  0.00  0.00    +0.173 HD
BRANCH  19  23
ATOM     23  N   UNL     1       2.224  -5.195  -3.951  0.00  0.00    -0.245 N 
ATOM     24  H   UNL     1       3.210  -5.171  -4.437  0.00  0.00    +0.172 HD
BRANCH  23  25
ATOM     25  C   UNL     1       1.562  -6.363  -3.826  0.00  0.00    +0.151 C 
ATOM     26  S   UNL     1       2.257  -7.808  -4.425  0.00  0.00    -0.017 S 
BRANCH  25  27
ATOM     27  N   UNL     1       0.354  -6.392  -3.231  0.00  0.00    -0.296 N 
ATOM     28  H   UNL     1      -0.053  -5.482  -2.766  0.00  0.00    +0.154 HD
BRANCH  27  35
ATOM     29  C   UNL     1      -0.894  -7.143  -0.786  0.00  0.00    +0.045 C 
ATOM     30  C   UNL     1      -1.009  -7.985  -2.031  0.00  0.00    -0.029 A 
ATOM     31  C   UNL     1      -1.741  -9.156  -2.008  0.00  0.00    +0.005 A 
ATOM     32  C   UNL     1      -1.842  -9.932  -3.148  0.00  0.00    +0.000 A 
ATOM     33  C   UNL     1      -1.216  -9.535  -4.316  0.00  0.00    +0.002 A 
ATOM     34  C   UNL     1      -0.487  -8.363  -4.346  0.00  0.00    +0.023 A 
ATOM     35  C   UNL     1      -0.384  -7.581  -3.203  0.00  0.00    +0.036 A 
ENDBRANCH  27  35
ENDBRANCH  25  27
ENDBRANCH  23  25
ENDBRANCH  19  23
ENDBRANCH   1  20
BRANCH   6  36
ATOM     36  C   UNL     1      -2.097  -0.163  -1.989  0.00  0.00    +0.412 C 
ATOM     37  F   UNL     1      -2.185   0.055  -3.369  0.00  0.00    -0.168 F 
ATOM     38  F   UNL     1      -2.096  -1.538  -1.734  0.00  0.00    -0.168 F 
ATOM     39  F   UNL     1      -3.193   0.429  -1.353  0.00  0.00    -0.168 F 
ENDBRANCH   6  36
TORSDOF 7
