REMARK  Name = ZINC02927438
REMARK  11 active torsions:
REMARK  status: ('A' for Active; 'I' for Inactive)
REMARK    1  A    between atoms: C_1  and  C_2
REMARK    2  A    between atoms: N_6  and  C_27
REMARK    3  A    between atoms: C_7  and  S_13
REMARK    4  A    between atoms: S_13  and  C_14
REMARK    5  A    between atoms: C_14  and  C_15
REMARK    6  A    between atoms: N_17  and  C_18
REMARK    7  A    between atoms: C_21  and  C_24
REMARK    8  A    between atoms: C_24  and  C_25
REMARK    9  A    between atoms: C_24  and  C_26
REMARK   10  A    between atoms: C_30  and  O_33
REMARK   11  A    between atoms: O_33  and  C_34
REMARK                            x       y       z     vdW  Elec       q    Type
REMARK                         _______ _______ _______ _____ _____    ______ ____
ROOT
ATOM      1  C   UNL     1      -0.019   1.043   0.022  0.00  0.00    +0.068 C 
ATOM      2  C   UNL     1      -0.724   1.533   1.260  0.00  0.00    +0.072 A 
ATOM      3  C   UNL     1      -2.099   1.803   1.372  0.00  0.00    +0.082 A 
ATOM      4  C   UNL     1      -3.241   1.710   0.453  0.00  0.00    +0.124 A 
ATOM      5  N   UNL     1      -3.088   1.312  -0.787  0.00  0.00    -0.384 N 
ATOM      6  N   UNL     1      -4.486   2.067   0.947  0.00  0.00    -0.275 N 
ATOM      7  C   UNL     1      -4.605   2.478   2.247  0.00  0.00    +0.177 A 
ATOM      8  N   UNL     1      -3.582   2.552   3.064  0.00  0.00    -0.204 NA
ATOM      9  C   UNL     1      -2.336   2.230   2.685  0.00  0.00    +0.162 A 
ATOM     10  N   UNL     1      -1.133   2.220   3.320  0.00  0.00    -0.260 N 
ATOM     11  H   UNL     1      -1.064   2.525   4.375  0.00  0.00    +0.191 HD
ATOM     12  N   UNL     1      -0.161   1.784   2.411  0.00  0.00    -0.177 NA
ATOM     13  H   UNL     1      -3.959   1.251  -1.456  0.00  0.00    +0.157 HD
ATOM     14  H   UNL     1      -2.090   1.039  -1.157  0.00  0.00    +0.157 HD
ENDROOT
BRANCH   6  15
ATOM     15  C   UNL     1      -5.616   2.007   0.121  0.00  0.00    +0.051 A 
ATOM     16  C   UNL     1      -6.055   0.783  -0.368  0.00  0.00    +0.030 A 
ATOM     17  C   UNL     1      -7.172   0.724  -1.178  0.00  0.00    +0.047 A 
ATOM     18  C   UNL     1      -7.849   1.887  -1.512  0.00  0.00    +0.120 A 
ATOM     19  C   UNL     1      -7.408   3.111  -1.029  0.00  0.00    +0.047 A 
ATOM     20  C   UNL     1      -6.295   3.171  -0.215  0.00  0.00    +0.030 A 
BRANCH  18  21
ATOM     21  O   UNL     1      -8.945   1.829  -2.314  0.00  0.00    -0.495 OA
ATOM     22  C   UNL     1      -9.343   0.536  -2.776  0.00  0.00    +0.277 C 
ENDBRANCH  18  21
ENDBRANCH   6  15
BRANCH   7  23
ATOM     23  S   UNL     1      -6.200   2.925   2.848  0.00  0.00    -0.078 S 
BRANCH  23  24
ATOM     24  C   UNL     1      -5.781   3.367   4.552  0.00  0.00    +0.173 C 
BRANCH  24  25
ATOM     25  C   UNL     1      -7.028   3.794   5.282  0.00  0.00    +0.227 C 
ATOM     26  O   UNL     1      -8.096   3.800   4.706  0.00  0.00    -0.275 OA
ATOM     27  N   UNL     1      -6.958   4.171   6.574  0.00  0.00    -0.285 N 
ATOM     28  H   UNL     1      -6.005   4.094   7.118  0.00  0.00    +0.155 HD
BRANCH  27  29
ATOM     29  C   UNL     1      -8.097   4.659   7.223  0.00  0.00    +0.033 A 
ATOM     30  C   UNL     1      -7.978   5.659   8.180  0.00  0.00    +0.023 A 
ATOM     31  C   UNL     1      -9.105   6.144   8.814  0.00  0.00    +0.006 A 
ATOM     32  C   UNL     1     -10.350   5.626   8.507  0.00  0.00    -0.045 A 
ATOM     33  C   UNL     1     -10.471   4.626   7.559  0.00  0.00    +0.006 A 
ATOM     34  C   UNL     1      -9.349   4.141   6.917  0.00  0.00    +0.023 A 
BRANCH  32  35
ATOM     35  C   UNL     1     -11.576   6.153   9.206  0.00  0.00    +0.013 C 
ATOM     36  C   UNL     1     -11.442   5.925  10.713  0.00  0.00    +0.012 C 
ATOM     37  C   UNL     1     -11.719   7.650   8.927  0.00  0.00    +0.012 C 
ENDBRANCH  32  35
ENDBRANCH  27  29
ENDBRANCH  24  25
ENDBRANCH  23  24
ENDBRANCH   7  23
TORSDOF 7
