REMARK  Name = ZINC39631693
REMARK  13 active torsions:
REMARK  status: ('A' for Active; 'I' for Inactive)
REMARK    1  A    between atoms: C_1  and  C_2
REMARK    2  A    between atoms: C_2  and  C_4
REMARK    3  A    between atoms: C_2  and  N_11
REMARK    4  A    between atoms: C_4  and  C_5
REMARK    5  A    between atoms: C_5  and  C_6
REMARK    6  A    between atoms: C_6  and  C_7
REMARK    7  A    between atoms: C_7  and  C_8
REMARK    8  A    between atoms: C_7  and  C_9
REMARK    9  A    between atoms: C_7  and  O_10
REMARK   10  A    between atoms: C_12  and  C_14
REMARK   11  A    between atoms: C_25  and  C_27
REMARK   12  A    between atoms: C_27  and  O_28
REMARK   13  A    between atoms: O_28  and  C_29
REMARK                            x       y       z     vdW  Elec       q    Type
REMARK                         _______ _______ _______ _____ _____    ______ ____
ROOT
ATOM      1  C   UNL     1      -3.465  -1.164  -1.134  0.00  0.00    +0.100 C 
ATOM      2  C   UNL     1      -3.486  -2.652  -0.717  0.00  0.00    +0.121 C 
ATOM      3  N   UNL     1      -4.545  -3.261  -1.556  0.00  0.00    -0.297 N 
ATOM      4  C   UNL     1      -4.384  -2.614  -2.880  0.00  0.00    +0.115 C 
ATOM      5  C   UNL     1      -4.054  -1.143  -2.554  0.00  0.00    -0.004 C 
ATOM      6  C   UNL     1      -3.027  -0.602  -3.545  0.00  0.00    -0.010 C 
ATOM      7  C   UNL     1      -3.655  -0.536  -4.939  0.00  0.00    -0.082 C 
ATOM      8  N   UNL     1      -4.838   0.334  -4.905  0.00  0.00    +0.379 N 
ATOM      9  C   UNL     1      -5.858  -0.244  -4.021  0.00  0.00    -0.082 C 
ATOM     10  C   UNL     1      -5.323  -0.297  -2.587  0.00  0.00    -0.010 C 
ATOM     11  C   UNL     1      -5.451  -4.192  -1.196  0.00  0.00    +0.253 C 
ATOM     12  O   UNL     1      -6.261  -4.594  -2.005  0.00  0.00    -0.272 OA
ATOM     13  H   UNL     1      -4.574   1.245  -4.561  0.00  0.00    -0.086 HD
ATOM     14  H   UNL     1      -5.214   0.424  -5.837  0.00  0.00    -0.086 HD
ENDROOT
BRANCH   1  16
ATOM     15  N   UNL     1      -1.812   0.661  -0.903  0.00  0.00    -0.312 N 
ATOM     16  C   UNL     1      -2.051  -0.643  -1.145  0.00  0.00    +0.218 C 
ATOM     17  O   UNL     1      -1.128  -1.397  -1.371  0.00  0.00    -0.275 OA
ATOM     18  H   UNL     1      -2.550   1.264  -0.722  0.00  0.00    +0.149 HD
BRANCH  15  20
ATOM     19  C   UNL     1      -0.031   1.511  -2.348  0.00  0.00    +0.028 C 
ATOM     20  C   UNL     1      -0.438   1.169  -0.913  0.00  0.00    +0.070 C 
BRANCH  20  21
ATOM     21  C   UNL     1      -0.351   2.425  -0.045  0.00  0.00    +0.022 C 
BRANCH  21  22
ATOM     22  C   UNL     1      -0.636   2.058   1.413  0.00  0.00    +0.005 C 
BRANCH  22  23
ATOM     23  C   UNL     1      -0.549   3.315   2.281  0.00  0.00    +0.034 C 
BRANCH  23  24
ATOM     24  C   UNL     1      -0.835   2.948   3.739  0.00  0.00    +0.061 C 
ATOM     25  C   UNL     1      -0.871   4.221   4.588  0.00  0.00    +0.041 C 
ATOM     26  C   UNL     1      -2.185   2.235   3.831  0.00  0.00    +0.041 C 
BRANCH  24  27
ATOM     27  O   UNL     1       0.195   2.083   4.223  0.00  0.00    -0.389 OA
ATOM     28  H   UNL     1       1.080   2.471   4.194  0.00  0.00    +0.210 HD
ENDBRANCH  24  27
ENDBRANCH  23  24
ENDBRANCH  22  23
ENDBRANCH  21  22
ENDBRANCH  20  21
ENDBRANCH  15  20
ENDBRANCH   1  16
BRANCH  11  29
ATOM     29  C   UNL     1      -5.457  -4.733   0.210  0.00  0.00    +0.324 C 
BRANCH  29  30
ATOM     30  O   UNL     1      -6.502  -5.699   0.344  0.00  0.00    -0.483 OA
BRANCH  30  31
ATOM     31  C   UNL     1      -6.645  -6.288   1.560  0.00  0.00    +0.123 A 
ATOM     32  C   UNL     1      -5.802  -5.939   2.605  0.00  0.00    +0.046 A 
ATOM     33  C   UNL     1      -5.949  -6.538   3.841  0.00  0.00    +0.005 A 
ATOM     34  C   UNL     1      -6.937  -7.486   4.038  0.00  0.00    +0.020 A 
ATOM     35  C   UNL     1      -7.779  -7.837   2.998  0.00  0.00    +0.044 A 
ATOM     36  C   UNL     1      -7.638  -7.235   1.760  0.00  0.00    +0.065 A 
ATOM     37 CL   UNL     1      -9.017  -9.027   3.248  0.00  0.00    -0.083 Cl
ENDBRANCH  30  31
ENDBRANCH  29  30
ENDBRANCH  11  29
TORSDOF 10
