REMARK  Name = ZINC43287096
REMARK  7 active torsions:
REMARK  status: ('A' for Active; 'I' for Inactive)
REMARK    1  A    between atoms: C_1  and  C_2
REMARK    2  A    between atoms: C_2  and  C_4
REMARK    3  A    between atoms: C_2  and  N_22
REMARK    4  A    between atoms: C_4  and  C_6
REMARK    5  A    between atoms: C_4  and  N_12
REMARK    6  A    between atoms: C_16  and  C_18
REMARK    7  A    between atoms: N_20  and  C_21
REMARK                            x       y       z     vdW  Elec       q    Type
REMARK                         _______ _______ _______ _____ _____    ______ ____
ROOT
ATOM      1  C   UNL     1      -1.111  -0.064   0.693  0.00  0.00    -0.013 C 
ENDROOT
BRANCH   1   2
ATOM      2  C   UNL     1      -1.994   0.601   1.717  0.00  0.00    -0.021 A 
ATOM      3  C   UNL     1      -1.655   1.466   2.704  0.00  0.00    +0.025 A 
ATOM      4  C   UNL     1      -2.645   1.955   3.536  0.00  0.00    +0.025 A 
ATOM      5  C   UNL     1      -3.926   1.555   3.339  0.00  0.00    +0.060 A 
ATOM      6  S   UNL     1      -3.760   0.460   1.939  0.00  0.00    -0.102 S 
ATOM      7 BR   UNL     1      -2.220   3.163   4.926  0.00  0.00    -0.050 Br
ENDBRANCH   1   2
BRANCH   1   8
ATOM      8  N   UNL     1      -1.455   0.431  -0.647  0.00  0.00    +0.393 N 
ATOM      9  C   UNL     1      -2.870   0.109  -0.964  0.00  0.00    -0.077 C 
ATOM     10  C   UNL     1      -3.227   1.133  -2.070  0.00  0.00    -0.020 C 
ATOM     11  C   UNL     1      -2.480   2.408  -1.615  0.00  0.00    -0.008 C 
ATOM     12  C   UNL     1      -1.359   1.907  -0.685  0.00  0.00    +0.020 C 
ATOM     13  H   UNL     1      -0.841   0.025  -1.337  0.00  0.00    -0.080 HD
BRANCH  12  14
ATOM     14  C   UNL     1      -0.017   2.320  -1.230  0.00  0.00    +0.199 C 
ATOM     15  O   UNL     1       0.594   1.576  -1.968  0.00  0.00    -0.278 OA
ATOM     16  N   UNL     1       0.506   3.517  -0.897  0.00  0.00    -0.320 N 
ATOM     17  C   UNL     1       1.812   3.919  -1.427  0.00  0.00    +0.128 C 
ATOM     18  H   UNL     1       0.018   4.112  -0.307  0.00  0.00    +0.148 HD
ENDBRANCH  12  14
ENDBRANCH   1   8
BRANCH   1  20
ATOM     19  C   UNL     1      -0.367  -2.260  -0.239  0.00  0.00    +0.022 C 
ATOM     20  C   UNL     1      -1.320  -1.579   0.746  0.00  0.00    +0.039 C 
BRANCH  20  21
ATOM     21  N   UNL     1      -1.048  -2.064   2.105  0.00  0.00    -0.329 NA
ATOM     22  H   UNL     1      -1.179  -3.062   2.166  0.00  0.00    +0.118 HD
ATOM     23  H   UNL     1      -0.120  -1.802   2.404  0.00  0.00    +0.118 HD
ENDBRANCH  20  21
ENDBRANCH   1  20
TORSDOF 5
