REMARK  Name = ZINC40568409
REMARK  6 active torsions:
REMARK  status: ('A' for Active; 'I' for Inactive)
REMARK    1  A    between atoms: C_3  and  C_6
REMARK    2  A    between atoms: C_6  and  C_7
REMARK    3  A    between atoms: C_11  and  N_24
REMARK    4  A    between atoms: C_12  and  C_16
REMARK    5  A    between atoms: C_16  and  O_18
REMARK    6  A    between atoms: O_18  and  C_19
REMARK                            x       y       z     vdW  Elec       q    Type
REMARK                         _______ _______ _______ _____ _____    ______ ____
ROOT
ATOM      1  C   UNL     1       4.114   1.975   1.445  0.00  0.00    +0.025 A 
ATOM      2  C   UNL     1       4.646   0.876   2.119  0.00  0.00    -0.024 A 
ATOM      3  C   UNL     1       5.134   1.029   3.389  0.00  0.00    -0.031 A 
ATOM      4  C   UNL     1       5.083   2.310   4.001  0.00  0.00    +0.031 A 
ATOM      5  C   UNL     1       5.535   2.695   5.330  0.00  0.00    +0.055 A 
ATOM      6  C   UNL     1       5.384   4.010   5.716  0.00  0.00    +0.119 A 
ATOM      7  S   UNL     1       4.624   4.772   4.295  0.00  0.00    -0.062 S 
ATOM      8  C   UNL     1       4.523   3.353   3.232  0.00  0.00    +0.088 A 
ATOM      9  N   UNL     1       4.074   3.162   2.011  0.00  0.00    -0.352 N 
ATOM     10  C   UNL     1       5.737  -0.099   4.179  0.00  0.00    +0.036 C 
ATOM     11  C   UNL     1       5.340  -1.446   3.577  0.00  0.00    +0.005 C 
ATOM     12  C   UNL     1       5.639  -1.411   2.073  0.00  0.00    +0.005 C 
ATOM     13  C   UNL     1       4.655  -0.451   1.406  0.00  0.00    +0.037 C 
ATOM     14  H   UNL     1       3.703   3.911   1.518  0.00  0.00    +0.166 HD
ENDROOT
BRANCH   5  15
ATOM     15  N   UNL     1       6.103   1.763   6.185  0.00  0.00    -0.356 N 
ATOM     16  H   UNL     1       6.566   0.990   5.823  0.00  0.00    +0.142 HD
ATOM     17  H   UNL     1       6.039   1.883   7.146  0.00  0.00    +0.142 HD
ENDBRANCH   5  15
BRANCH   6  18
ATOM     18  C   UNL     1       5.745   4.610   6.945  0.00  0.00    +0.348 C 
ATOM     19  O   UNL     1       6.260   3.940   7.821  0.00  0.00    -0.244 OA
BRANCH  18  20
ATOM     20  O   UNL     1       5.518   5.925   7.146  0.00  0.00    -0.457 OA
BRANCH  20  21
ATOM     21  C   UNL     1       5.907   6.464   8.411  0.00  0.00    +0.177 C 
ATOM     22  C   UNL     1       4.718   6.421   9.393  0.00  0.00    +0.044 C 
ATOM     23  C   UNL     1       4.854   7.729  10.212  0.00  0.00    +0.004 C 
ATOM     24  C   UNL     1       5.328   8.750   9.149  0.00  0.00    +0.004 C 
ATOM     25  C   UNL     1       6.295   7.945   8.256  0.00  0.00    +0.044 C 
ENDBRANCH  20  21
ENDBRANCH  18  20
ENDBRANCH   6  18
BRANCH   1  26
ATOM     26  C   UNL     1       3.581   1.800   0.046  0.00  0.00    +0.095 C 
BRANCH  26  29
ATOM     27  C   UNL     1      -0.205   1.410   0.199  0.00  0.00    +0.008 A 
ATOM     28  C   UNL     1       1.012   2.063   0.144  0.00  0.00    +0.011 A 
ATOM     29  C   UNL     1       2.151   1.330   0.108  0.00  0.00    -0.005 A 
ATOM     30  S   UNL     1       1.517  -0.339   0.152  0.00  0.00    -0.101 S 
ATOM     31  C   UNL     1      -0.223   0.055   0.216  0.00  0.00    +0.045 A 
ENDBRANCH  26  29
ENDBRANCH   1  26
TORSDOF 6
