REMARK  Name = ZINC67389717
REMARK  8 active torsions:
REMARK  status: ('A' for Active; 'I' for Inactive)
REMARK    1  A    between atoms: C_1  and  C_2
REMARK    2  A    between atoms: N_7  and  C_9
REMARK    3  A    between atoms: C_9  and  C_10
REMARK    4  A    between atoms: C_10  and  C_11
REMARK    5  A    between atoms: C_11  and  N_12
REMARK    6  A    between atoms: N_15  and  N_16
REMARK    7  A    between atoms: C_17  and  C_19
REMARK    8  A    between atoms: C_19  and  C_20
REMARK                            x       y       z     vdW  Elec       q    Type
REMARK                         _______ _______ _______ _____ _____    ______ ____
ROOT
ATOM      1  N   UNL     1       2.604  -5.942   3.440  0.00  0.00    -0.298 N 
ATOM      2  C   UNL     1       3.280  -6.608   4.397  0.00  0.00    +0.316 C 
ATOM      3  O   UNL     1       3.783  -5.999   5.321  0.00  0.00    -0.251 OA
ATOM      4  N   UNL     1       3.398  -7.949   4.330  0.00  0.00    -0.218 N 
ATOM      5  H   UNL     1       2.203  -6.428   2.703  0.00  0.00    +0.150 HD
ATOM      6  H   UNL     1       3.885  -8.428   5.019  0.00  0.00    +0.174 HD
ENDROOT
BRANCH   4   7
ATOM      7  N   UNL     1       2.819  -8.651   3.265  0.00  0.00    -0.233 N 
ATOM      8  C   UNL     1       2.937  -9.991   3.198  0.00  0.00    +0.229 C 
ATOM      9  O   UNL     1       3.546 -10.590   4.059  0.00  0.00    -0.274 OA
ATOM     10  H   UNL     1       2.332  -8.171   2.576  0.00  0.00    +0.173 HD
BRANCH   8  11
ATOM     11  C   UNL     1       2.314 -10.746   2.052  0.00  0.00    +0.101 C 
BRANCH  11  12
ATOM     12  C   UNL     1       2.594 -12.242   2.215  0.00  0.00    -0.002 C 
ATOM     13  C   UNL     1       1.890 -12.759   3.471  0.00  0.00    +0.004 C 
ATOM     14  C   UNL     1       2.170 -14.254   3.633  0.00  0.00    +0.000 C 
ATOM     15  C   UNL     1       1.646 -15.007   2.409  0.00  0.00    +0.000 C 
ATOM     16  C   UNL     1       2.349 -14.490   1.152  0.00  0.00    +0.000 C 
ATOM     17  C   UNL     1       2.069 -12.995   0.990  0.00  0.00    +0.004 C 
ENDBRANCH  11  12
ENDBRANCH   8  11
ENDBRANCH   4   7
BRANCH   1  18
ATOM     18  C   UNL     1       2.475  -4.485   3.513  0.00  0.00    +0.104 C 
BRANCH  18  19
ATOM     19  C   UNL     1       1.668  -3.983   2.314  0.00  0.00    +0.000 C 
BRANCH  19  20
ATOM     20  C   UNL     1       1.534  -2.461   2.390  0.00  0.00    -0.077 C 
BRANCH  20  26
ATOM     21  C   UNL     1      -0.019   1.526   0.010  0.00  0.00    +0.005 C 
ATOM     22  C   UNL     1       0.002  -0.004   0.002  0.00  0.00    -0.031 C 
ATOM     23  C   UNL     1      -1.434  -0.535   0.015  0.00  0.00    -0.001 C 
ATOM     24  C   UNL     1      -1.402  -2.064   0.086  0.00  0.00    -0.018 C 
ATOM     25  C   UNL     1      -0.613  -2.496   1.324  0.00  0.00    -0.079 C 
ATOM     26  N   UNL     1       0.758  -1.980   1.239  0.00  0.00    +0.380 N 
ATOM     27  C   UNL     1       0.740  -0.512   1.242  0.00  0.00    -0.076 C 
ATOM     28  H   UNL     1       1.188  -2.307   0.386  0.00  0.00    -0.082 HD
ENDBRANCH  20  26
ENDBRANCH  19  20
ENDBRANCH  18  19
ENDBRANCH   1  18
TORSDOF 7
