REMARK  Name = ZINC59491491
REMARK  11 active torsions:
REMARK  status: ('A' for Active; 'I' for Inactive)
REMARK    1  A    between atoms: C_1  and  C_2
REMARK    2  A    between atoms: C_2  and  N_3
REMARK    3  A    between atoms: N_3  and  C_4
REMARK    4  A    between atoms: N_3  and  C_6
REMARK    5  A    between atoms: C_4  and  C_5
REMARK    6  A    between atoms: C_6  and  C_7
REMARK    7  A    between atoms: C_7  and  C_8
REMARK    8  A    between atoms: C_8  and  N_9
REMARK    9  A    between atoms: C_10  and  C_12
REMARK   10  A    between atoms: C_16  and  C_25
REMARK   11  A    between atoms: C_18  and  C_21
REMARK                            x       y       z     vdW  Elec       q    Type
REMARK                         _______ _______ _______ _____ _____    ______ ____
ROOT
ATOM      1  C   UNL     1       0.548  -5.380   5.249  0.00  0.00    +0.168 A 
ATOM      2  C   UNL     1       0.694  -6.624   5.873  0.00  0.00    +0.117 A 
ATOM      3  C   UNL     1       1.346  -6.412   7.080  0.00  0.00    +0.176 A 
ATOM      4  N   UNL     1       1.731  -7.247   8.054  0.00  0.00    -0.226 NA
ATOM      5  C   UNL     1       2.349  -6.793   9.128  0.00  0.00    +0.075 A 
ATOM      6  C   UNL     1       2.612  -5.410   9.263  0.00  0.00    +0.060 A 
ATOM      7  C   UNL     1       2.226  -4.564   8.283  0.00  0.00    +0.149 A 
ATOM      8  N   UNL     1       1.587  -5.064   7.180  0.00  0.00    -0.208 N 
ATOM      9  N   UNL     1       1.085  -4.451   6.026  0.00  0.00    -0.158 NA
ATOM     10 CL   UNL     1       0.158  -8.153   5.251  0.00  0.00    -0.077 Cl
ENDROOT
BRANCH   5  11
ATOM     11  C   UNL     1       2.767  -7.732  10.195  0.00  0.00    +0.001 A 
ATOM     12  C   UNL     1       3.415  -7.254  11.334  0.00  0.00    +0.013 A 
ATOM     13  C   UNL     1       3.802  -8.133  12.324  0.00  0.00    +0.039 A 
ATOM     14  C   UNL     1       3.547  -9.489  12.189  0.00  0.00    +0.123 A 
ATOM     15  C   UNL     1       2.904  -9.968  11.059  0.00  0.00    +0.039 A 
ATOM     16  C   UNL     1       2.508  -9.097  10.066  0.00  0.00    +0.013 A 
ATOM     17  F   UNL     1       3.928 -10.345  13.161  0.00  0.00    -0.205 F 
ENDBRANCH   5  11
BRANCH   1  19
ATOM     18  N   UNL     1      -0.169  -3.893   3.441  0.00  0.00    -0.310 N 
ATOM     19  C   UNL     1      -0.094  -5.143   3.939  0.00  0.00    +0.266 C 
ATOM     20  O   UNL     1      -0.555  -6.075   3.311  0.00  0.00    -0.268 OA
ATOM     21  H   UNL     1       0.199  -3.148   3.943  0.00  0.00    +0.149 HD
BRANCH  18  22
ATOM     22  C   UNL     1      -0.805  -3.658   2.143  0.00  0.00    +0.103 C 
BRANCH  22  23
ATOM     23  C   UNL     1      -0.756  -2.164   1.814  0.00  0.00    +0.000 C 
BRANCH  23  24
ATOM     24  C   UNL     1      -1.421  -1.919   0.458  0.00  0.00    -0.077 C 
BRANCH  24  25
ATOM     25  N   UNL     1      -1.374  -0.485   0.142  0.00  0.00    +0.379 N 
ATOM     26  H   UNL     1      -1.792   0.039   0.895  0.00  0.00    -0.082 HD
BRANCH  25  28
ATOM     27  C   UNL     1       0.082   1.451  -0.216  0.00  0.00    -0.017 C 
ATOM     28  C   UNL     1       0.024  -0.066  -0.029  0.00  0.00    -0.082 C 
ENDBRANCH  25  28
BRANCH  25  29
ATOM     29  C   UNL     1      -2.116  -0.233  -1.101  0.00  0.00    -0.082 C 
ATOM     30  C   UNL     1      -3.600  -0.533  -0.879  0.00  0.00    -0.017 C 
ENDBRANCH  25  29
ENDBRANCH  24  25
ENDBRANCH  23  24
ENDBRANCH  22  23
ENDBRANCH  18  22
ENDBRANCH   1  19
BRANCH   7  31
ATOM     31  C   UNL     1       2.494  -3.086   8.402  0.00  0.00    +0.434 C 
ATOM     32  F   UNL     1       3.152  -2.828   9.610  0.00  0.00    -0.164 F 
ATOM     33  F   UNL     1       3.297  -2.670   7.335  0.00  0.00    -0.164 F 
ATOM     34  F   UNL     1       1.282  -2.388   8.374  0.00  0.00    -0.164 F 
ENDBRANCH   7  31
TORSDOF 9
