REMARK  Name = ZINC21798129
REMARK  7 active torsions:
REMARK  status: ('A' for Active; 'I' for Inactive)
REMARK    1  A    between atoms: C_1  and  C_2
REMARK    2  A    between atoms: C_2  and  C_4
REMARK    3  A    between atoms: C_2  and  N_11
REMARK    4  A    between atoms: N_11  and  C_12
REMARK    5  A    between atoms: C_12  and  C_13
REMARK    6  A    between atoms: C_16  and  S_19
REMARK    7  A    between atoms: S_19  and  N_22
REMARK                            x       y       z     vdW  Elec       q    Type
REMARK                         _______ _______ _______ _____ _____    ______ ____
ROOT
ATOM      1  C   UNL     1       1.229  -2.186  -0.021  0.00  0.00    -0.046 C 
ENDROOT
BRANCH   1   2
ATOM      2  C   UNL     1       1.208  -0.679  -0.013  0.00  0.00    -0.064 A 
ATOM      3  C   UNL     1       0.002  -0.004   0.002  0.00  0.00    +0.003 A 
ATOM      4  C   UNL     1      -0.017   1.378   0.010  0.00  0.00    +0.029 A 
ATOM      5  C   UNL     1       1.171   2.086   0.002  0.00  0.00    +0.105 A 
ATOM      6  C   UNL     1       2.377   1.411  -0.015  0.00  0.00    +0.029 A 
ATOM      7  C   UNL     1       2.396   0.029  -0.021  0.00  0.00    +0.003 A 
BRANCH   5   8
ATOM      8  S   UNL     1       1.147   3.847   0.011  0.00  0.00    +0.056 S 
ATOM      9  O   UNL     1       2.382   4.273  -0.549  0.00  0.00    -0.153 OA
ATOM     10  O   UNL     1      -0.109   4.239  -0.526  0.00  0.00    -0.153 OA
BRANCH   8  11
ATOM     11  N   UNL     1       1.155   4.329   1.596  0.00  0.00    -0.204 NA
ATOM     12  H   UNL     1       1.141   5.428   1.645  0.00  0.00    +0.144 HD
ATOM     13  H   UNL     1       2.063   3.952   2.089  0.00  0.00    +0.144 HD
ENDBRANCH   8  11
ENDBRANCH   5   8
ENDBRANCH   1   2
BRANCH   1  14
ATOM     14  N   UNL     1       1.222  -2.669  -1.408  0.00  0.00    +0.386 N 
ATOM     15  H   UNL     1       2.110  -2.274  -1.923  0.00  0.00    -0.085 HD
ATOM     16  H   UNL     1       0.313  -2.298  -1.905  0.00  0.00    -0.085 HD
BRANCH  14  18
ATOM     17  C   UNL     1      -0.188  -4.670  -1.330  0.00  0.00    -0.009 C 
ATOM     18  C   UNL     1       1.241  -4.137  -1.454  0.00  0.00    -0.043 C 
BRANCH  18  19
ATOM     19  C   UNL     1       1.835  -4.590  -2.763  0.00  0.00    -0.048 A 
ATOM     20  C   UNL     1       1.870  -3.727  -3.842  0.00  0.00    +0.003 A 
ATOM     21  C   UNL     1       2.419  -4.141  -5.041  0.00  0.00    +0.000 A 
ATOM     22  C   UNL     1       2.924  -5.423  -5.165  0.00  0.00    +0.001 A 
ATOM     23  C   UNL     1       2.884  -6.288  -4.088  0.00  0.00    +0.015 A 
ATOM     24  C   UNL     1       2.340  -5.872  -2.886  0.00  0.00    +0.019 A 
ATOM     25 BR   UNL     1       2.285  -7.056  -1.413  0.00  0.00    -0.050 Br
ENDBRANCH  18  19
ENDBRANCH  14  18
ENDBRANCH   1  14
TORSDOF 6
