REMARK  Name = ZINC67533686
REMARK  11 active torsions:
REMARK  status: ('A' for Active; 'I' for Inactive)
REMARK    1  A    between atoms: C_1  and  C_2
REMARK    2  A    between atoms: C_2  and  C_4
REMARK    3  A    between atoms: C_2  and  N_11
REMARK    4  A    between atoms: C_4  and  O_5
REMARK    5  A    between atoms: O_5  and  C_6
REMARK    6  A    between atoms: C_6  and  C_7
REMARK    7  A    between atoms: N_14  and  C_15
REMARK    8  A    between atoms: C_17  and  C_23
REMARK    9  A    between atoms: C_17  and  C_24
REMARK   10  A    between atoms: C_19  and  C_21
REMARK   11  A    between atoms: C_19  and  C_22
REMARK                            x       y       z     vdW  Elec       q    Type
REMARK                         _______ _______ _______ _____ _____    ______ ____
ROOT
ATOM      1  N   UNL     1       0.763  -0.710   0.924  0.00  0.00    -0.295 N 
ATOM      2  C   UNL     1       2.103  -0.853   0.890  0.00  0.00    +0.300 C 
ATOM      3  O   UNL     1       2.712  -0.629  -0.139  0.00  0.00    -0.253 OA
ATOM      4  N   UNL     1       2.768  -1.243   1.995  0.00  0.00    -0.297 N 
ATOM      5  H   UNL     1       0.277  -0.889   1.745  0.00  0.00    +0.151 HD
ATOM      6  H   UNL     1       2.282  -1.422   2.816  0.00  0.00    +0.151 HD
ENDROOT
BRANCH   4   7
ATOM      7  C   UNL     1       4.227  -1.399   1.958  0.00  0.00    +0.072 C 
ATOM      8  C   UNL     1       4.570  -2.809   1.473  0.00  0.00    +0.009 C 
ATOM      9  C   UNL     1       6.087  -2.990   1.440  0.00  0.00    -0.072 C 
ATOM     10  N   UNL     1       6.705  -2.675   2.720  0.00  0.00    +0.386 N 
ATOM     11  C   UNL     1       6.298  -1.445   3.381  0.00  0.00    -0.072 C 
ATOM     12  C   UNL     1       4.789  -1.227   3.369  0.00  0.00    +0.009 C 
ATOM     13  C   UNL     1       7.007  -0.223   2.791  0.00  0.00    -0.010 C 
ATOM     14  C   UNL     1       6.734  -1.548   4.862  0.00  0.00    -0.010 C 
ATOM     15  C   UNL     1       6.692  -2.181   0.293  0.00  0.00    -0.010 C 
ATOM     16  C   UNL     1       6.364  -4.482   1.144  0.00  0.00    -0.010 C 
ATOM     17  H   UNL     1       6.536  -3.455   3.359  0.00  0.00    -0.084 HD
ATOM     18  H   UNL     1       7.719  -2.650   2.589  0.00  0.00    -0.084 HD
ENDBRANCH   4   7
BRANCH   1  20
ATOM     19  C   UNL     1       0.054   1.242  -0.367  0.00  0.00    +0.030 C 
ATOM     20  C   UNL     1       0.041  -0.285  -0.277  0.00  0.00    +0.097 C 
BRANCH  20  21
ATOM     21  C   UNL     1      -1.406  -0.779  -0.204  0.00  0.00    +0.182 C 
BRANCH  21  22
ATOM     22  O   UNL     1      -2.073  -0.139   0.885  0.00  0.00    -0.369 OA
BRANCH  22  23
ATOM     23  C   UNL     1      -3.438  -0.532   1.042  0.00  0.00    +0.273 C 
BRANCH  23  24
ATOM     24  C   UNL     1      -4.050   0.212   2.231  0.00  0.00    +0.413 C 
ATOM     25  F   UNL     1      -3.985   1.591   2.001  0.00  0.00    -0.168 F 
ATOM     26  F   UNL     1      -5.386  -0.173   2.385  0.00  0.00    -0.168 F 
ATOM     27  F   UNL     1      -3.337  -0.100   3.393  0.00  0.00    -0.168 F 
ENDBRANCH  23  24
ENDBRANCH  22  23
ENDBRANCH  21  22
ENDBRANCH  20  21
ENDBRANCH   1  20
TORSDOF 6
