REMARK  Name = ZINC34683964
REMARK  14 active torsions:
REMARK  status: ('A' for Active; 'I' for Inactive)
REMARK    1  A    between atoms: C_1  and  C_2
REMARK    2  A    between atoms: C_5  and  N_8
REMARK    3  A    between atoms: N_8  and  C_9
REMARK    4  A    between atoms: N_8  and  S_28
REMARK    5  A    between atoms: N_12  and  C_15
REMARK    6  A    between atoms: C_15  and  C_16
REMARK    7  A    between atoms: C_19  and  O_26
REMARK    8  A    between atoms: C_20  and  O_24
REMARK    9  A    between atoms: C_21  and  O_22
REMARK   10  A    between atoms: O_22  and  C_23
REMARK   11  A    between atoms: O_24  and  C_25
REMARK   12  A    between atoms: O_26  and  C_27
REMARK   13  A    between atoms: S_28  and  C_31
REMARK   14  A    between atoms: C_36  and  C_37
REMARK                            x       y       z     vdW  Elec       q    Type
REMARK                         _______ _______ _______ _____ _____    ______ ____
ROOT
ATOM      1  C   UNL     1       0.555  -4.953   0.997  0.00  0.00    +0.095 C 
ATOM      2  C   UNL     1      -0.239  -4.654   2.272  0.00  0.00    +0.006 C 
ATOM      3  C   UNL     1       0.362  -5.443   3.438  0.00  0.00    -0.077 C 
ATOM      4  N   UNL     1       1.763  -5.050   3.628  0.00  0.00    +0.383 N 
ATOM      5  C   UNL     1       2.545  -5.399   2.437  0.00  0.00    -0.077 C 
ATOM      6  C   UNL     1       2.029  -4.609   1.233  0.00  0.00    +0.006 C 
ATOM      7  H   UNL     1       1.814  -4.054   3.783  0.00  0.00    -0.081 HD
ENDROOT
BRANCH   1   8
ATOM      8  N   UNL     1       0.033  -4.143  -0.106  0.00  0.00    -0.200 N 
BRANCH   8  13
ATOM      9  C   UNL     1       0.429   1.510   0.090  0.00  0.00    +0.044 C 
ATOM     10  C   UNL     1       0.324   0.008   0.038  0.00  0.00    -0.050 A 
ATOM     11  C   UNL     1       1.470  -0.761  -0.053  0.00  0.00    +0.005 A 
ATOM     12  C   UNL     1       1.377  -2.138  -0.101  0.00  0.00    +0.025 A 
ATOM     13  C   UNL     1       0.131  -2.751  -0.058  0.00  0.00    +0.052 A 
ATOM     14  C   UNL     1      -1.018  -1.975   0.034  0.00  0.00    +0.025 A 
ATOM     15  C   UNL     1      -0.918  -0.599   0.087  0.00  0.00    +0.005 A 
ENDBRANCH   8  13
BRANCH   8  16
ATOM     16  S   UNL     1      -0.673  -4.878  -1.411  0.00  0.00    +0.075 S 
ATOM     17  O   UNL     1      -1.292  -6.061  -0.925  0.00  0.00    -0.150 OA
ATOM     18  O   UNL     1      -1.395  -3.870  -2.104  0.00  0.00    -0.150 OA
BRANCH  16  19
ATOM     19  C   UNL     1       0.626  -5.394  -2.484  0.00  0.00    +0.112 A 
ATOM     20  C   UNL     1       0.868  -6.741  -2.679  0.00  0.00    +0.029 A 
ATOM     21  C   UNL     1       1.887  -7.146  -3.521  0.00  0.00    +0.002 A 
ATOM     22  C   UNL     1       2.664  -6.204  -4.168  0.00  0.00    +0.000 A 
ATOM     23  C   UNL     1       2.422  -4.857  -3.974  0.00  0.00    +0.005 A 
ATOM     24  C   UNL     1       1.400  -4.452  -3.136  0.00  0.00    -0.024 A 
ATOM     25  C   UNL     1       1.132  -2.983  -2.929  0.00  0.00    +0.046 C 
ENDBRANCH  16  19
ENDBRANCH   8  16
ENDBRANCH   1   8
BRANCH   4  26
ATOM     26  C   UNL     1       2.312  -5.752   4.796  0.00  0.00    -0.039 C 
BRANCH  26  27
ATOM     27  C   UNL     1       3.710  -5.259   5.067  0.00  0.00    -0.018 A 
ATOM     28  C   UNL     1       4.798  -5.997   4.641  0.00  0.00    +0.009 A 
ATOM     29  C   UNL     1       6.082  -5.549   4.887  0.00  0.00    +0.050 A 
ATOM     30  C   UNL     1       6.284  -4.356   5.563  0.00  0.00    +0.165 A 
ATOM     31  C   UNL     1       5.194  -3.610   5.993  0.00  0.00    +0.204 A 
ATOM     32  C   UNL     1       3.904  -4.061   5.739  0.00  0.00    +0.167 A 
BRANCH  32  33
ATOM     33  O   UNL     1       2.833  -3.332   6.153  0.00  0.00    -0.491 OA
ATOM     34  C   UNL     1       2.327  -3.608   7.461  0.00  0.00    +0.277 C 
ENDBRANCH  32  33
BRANCH  31  35
ATOM     35  O   UNL     1       5.388  -2.438   6.657  0.00  0.00    -0.488 OA
ATOM     36  C   UNL     1       5.473  -1.250   5.867  0.00  0.00    +0.277 C 
ENDBRANCH  31  35
BRANCH  30  37
ATOM     37  O   UNL     1       7.548  -3.916   5.806  0.00  0.00    -0.491 OA
ATOM     38  C   UNL     1       8.621  -4.734   5.335  0.00  0.00    +0.277 C 
ENDBRANCH  30  37
ENDBRANCH  26  27
ENDBRANCH   4  26
TORSDOF 9
