REMARK  Name = ZINC48641126
REMARK  5 active torsions:
REMARK  status: ('A' for Active; 'I' for Inactive)
REMARK    1  A    between atoms: C_2  and  C_7
REMARK    2  A    between atoms: C_7  and  S_8
REMARK    3  A    between atoms: S_8  and  C_9
REMARK    4  A    between atoms: N_10  and  C_11
REMARK    5  A    between atoms: C_11  and  C_12
REMARK                            x       y       z     vdW  Elec       q    Type
REMARK                         _______ _______ _______ _____ _____    ______ ____
ROOT
ATOM      1  C   UNL     1       1.248   5.896   1.563  0.00  0.00    +0.126 C 
ATOM      2  N   UNL     1       1.268   6.647   2.629  0.00  0.00    -0.365 N 
ATOM      3  N   UNL     1       1.244   6.473   0.314  0.00  0.00    -0.339 N 
ATOM      4  H   UNL     1       1.229   5.914  -0.478  0.00  0.00    +0.144 HD
ATOM      5  H   UNL     1       1.255   7.439   0.227  0.00  0.00    +0.144 HD
ATOM      6  H   UNL     1       1.271   6.240   3.509  0.00  0.00    +0.161 HD
ENDROOT
BRANCH   1   7
ATOM      7  S   UNL     1       1.227   4.141   1.722  0.00  0.00    -0.088 S 
BRANCH   7   8
ATOM      8  C   UNL     1       1.203   3.545   0.009  0.00  0.00    +0.112 C 
BRANCH   8  10
ATOM      9  C   UNL     1      -0.016   1.352   0.009  0.00  0.00    +0.027 A 
ATOM     10  C   UNL     1       1.184   2.038   0.002  0.00  0.00    -0.029 A 
ATOM     11  C   UNL     1       2.343   1.336  -0.013  0.00  0.00    +0.050 A 
ATOM     12  S   UNL     1       1.754  -0.349  -0.017  0.00  0.00    -0.090 S 
ATOM     13  C   UNL     1       0.002  -0.004   0.002  0.00  0.00    +0.055 A 
ATOM     14 BR   UNL     1      -1.450  -1.215   0.010  0.00  0.00    -0.043 Br
ENDBRANCH   8  10
ENDBRANCH   7   8
ENDBRANCH   1   7
BRANCH   2  15
ATOM     15  C   UNL     1       1.285   8.106   2.496  0.00  0.00    +0.146 C 
BRANCH  15  16
ATOM     16  C   UNL     1       1.306   8.744   3.887  0.00  0.00    +0.137 C 
ATOM     17  C   UNL     1       1.290  10.289   3.770  0.00  0.00    +0.035 C 
ATOM     18  C   UNL     1       0.677  10.682   5.141  0.00  0.00    +0.031 C 
ATOM     19  C   UNL     1      -0.310   9.524   5.404  0.00  0.00    +0.160 C 
ATOM     20  O   UNL     1       0.111   8.408   4.608  0.00  0.00    -0.375 OA
ENDBRANCH  15  16
ENDBRANCH   2  15
TORSDOF 5
