REMARK  Name = ZINC30757638
REMARK  13 active torsions:
REMARK  status: ('A' for Active; 'I' for Inactive)
REMARK    1  A    between atoms: C_1  and  C_2
REMARK    2  A    between atoms: C_2  and  C_3
REMARK    3  A    between atoms: C_2  and  C_4
REMARK    4  A    between atoms: C_2  and  C_5
REMARK    5  A    between atoms: C_8  and  C_11
REMARK    6  A    between atoms: C_11  and  C_13
REMARK    7  A    between atoms: C_17  and  N_19
REMARK    8  A    between atoms: C_20  and  C_22
REMARK    9  A    between atoms: C_22  and  N_23
REMARK   10  A    between atoms: N_23  and  C_24
REMARK   11  A    between atoms: N_23  and  S_33
REMARK   12  A    between atoms: C_28  and  N_30
REMARK   13  A    between atoms: S_33  and  C_36
REMARK                            x       y       z     vdW  Elec       q    Type
REMARK                         _______ _______ _______ _____ _____    ______ ____
ROOT
ATOM      1  N   UNL     1       3.476   7.888  -0.167  0.00  0.00    -0.284 N 
ATOM      2  C   UNL     1       4.343   8.602  -0.912  0.00  0.00    +0.236 C 
ATOM      3  O   UNL     1       5.226   8.037  -1.523  0.00  0.00    -0.274 OA
ATOM      4  H   UNL     1       2.718   8.405   0.441  0.00  0.00    +0.155 HD
ENDROOT
BRANCH   1   9
ATOM      5  C   UNL     1       2.447   4.350  -0.044  0.00  0.00    +0.024 A 
ATOM      6  C   UNL     1       3.686   3.717  -0.168  0.00  0.00    +0.012 A 
ATOM      7  C   UNL     1       4.836   4.469  -0.289  0.00  0.00    +0.002 A 
ATOM      8  C   UNL     1       4.767   5.850  -0.288  0.00  0.00    +0.023 A 
ATOM      9  C   UNL     1       3.540   6.490  -0.166  0.00  0.00    +0.034 A 
ATOM     10  C   UNL     1       2.378   5.744  -0.049  0.00  0.00    +0.035 A 
BRANCH   5  11
ATOM     11  C   UNL     1       1.214   3.546   0.085  0.00  0.00    +0.193 C 
ATOM     12  O   UNL     1       1.256   2.340  -0.057  0.00  0.00    -0.287 OA
BRANCH  11  16
ATOM     13  C   UNL     1      -2.481   5.453   0.953  0.00  0.00    -0.042 A 
ATOM     14  C   UNL     1      -1.305   5.957   1.481  0.00  0.00    +0.005 A 
ATOM     15  C   UNL     1      -0.102   5.343   1.203  0.00  0.00    +0.012 A 
ATOM     16  C   UNL     1      -0.072   4.210   0.387  0.00  0.00    +0.022 A 
ATOM     17  C   UNL     1      -1.262   3.706  -0.142  0.00  0.00    +0.012 A 
ATOM     18  C   UNL     1      -2.458   4.331   0.143  0.00  0.00    +0.005 A 
BRANCH  13  20
ATOM     19  C   UNL     1      -3.749   7.575   0.761  0.00  0.00    +0.015 C 
ATOM     20  C   UNL     1      -3.792   6.130   1.261  0.00  0.00    -0.013 C 
ATOM     21  C   UNL     1      -4.928   5.382   0.562  0.00  0.00    +0.015 C 
ATOM     22  C   UNL     1      -4.028   6.120   2.772  0.00  0.00    +0.015 C 
ENDBRANCH  13  20
ENDBRANCH  11  16
ENDBRANCH   5  11
ENDBRANCH   1   9
BRANCH   2  23
ATOM     23  C   UNL     1       4.216  10.102  -0.985  0.00  0.00    +0.227 C 
BRANCH  23  24
ATOM     24  N   UNL     1       5.269  10.639  -1.852  0.00  0.00    -0.199 N 
BRANCH  24  25
ATOM     25  C   UNL     1       6.536  10.905  -1.329  0.00  0.00    +0.054 A 
ATOM     26  C   UNL     1       7.356  11.848  -1.936  0.00  0.00    +0.025 A 
ATOM     27  C   UNL     1       8.606  12.113  -1.414  0.00  0.00    +0.004 A 
ATOM     28  C   UNL     1       9.047  11.433  -0.292  0.00  0.00    +0.033 A 
ATOM     29  C   UNL     1       8.235  10.491   0.312  0.00  0.00    +0.128 A 
ATOM     30  C   UNL     1       6.981  10.225  -0.203  0.00  0.00    +0.057 A 
BRANCH  29  31
ATOM     31  N   UNL     1       8.711   9.766   1.511  0.00  0.00    +0.056 N 
ATOM     32  O   UNL     1       7.997   8.935   2.044  0.00  0.00    -0.126 OA
ATOM     33  O   UNL     1       9.817  10.000   1.966  0.00  0.00    -0.126 OA
ENDBRANCH  29  31
ENDBRANCH  24  25
BRANCH  24  34
ATOM     34  S   UNL     1       4.955  10.929  -3.452  0.00  0.00    +0.043 S 
ATOM     35  O   UNL     1       6.220  10.829  -4.093  0.00  0.00    -0.155 OA
ATOM     36  O   UNL     1       3.902  10.035  -3.784  0.00  0.00    -0.155 OA
ATOM     37  C   UNL     1       4.361  12.642  -3.507  0.00  0.00    +0.218 C 
ENDBRANCH  24  34
ENDBRANCH  23  24
ENDBRANCH   2  23
TORSDOF 9
