REMARK  Name = ZINC66384226
REMARK  6 active torsions:
REMARK  status: ('A' for Active; 'I' for Inactive)
REMARK    1  A    between atoms: C_6  and  N_7
REMARK    2  A    between atoms: C_8  and  C_10
REMARK    3  A    between atoms: C_10  and  N_11
REMARK    4  A    between atoms: N_14  and  C_15
REMARK    5  A    between atoms: C_15  and  C_16
REMARK    6  A    between atoms: C_16  and  N_17
REMARK                            x       y       z     vdW  Elec       q    Type
REMARK                         _______ _______ _______ _____ _____    ______ ____
ROOT
ATOM      1  N   UNL     1      -2.194  -4.261  -0.311  0.00  0.00    -0.291 N 
ATOM      2  C   UNL     1      -3.207  -5.144  -0.417  0.00  0.00    +0.300 C 
ATOM      3  O   UNL     1      -4.357  -4.750  -0.422  0.00  0.00    -0.253 OA
ATOM      4  N   UNL     1      -2.945  -6.462  -0.516  0.00  0.00    -0.301 N 
ATOM      5  H   UNL     1      -1.276  -4.575  -0.307  0.00  0.00    +0.151 HD
ATOM      6  H   UNL     1      -2.027  -6.776  -0.511  0.00  0.00    +0.150 HD
ENDROOT
BRANCH   1   7
ATOM      7  C   UNL     1      -2.479  -2.828  -0.204  0.00  0.00    +0.202 C 
BRANCH   7   9
ATOM      8  N   UNL     1      -1.200  -0.722   0.010  0.00  0.00    -0.284 N 
ATOM      9  C   UNL     1      -1.183  -2.065  -0.099  0.00  0.00    +0.234 C 
ATOM     10  O   UNL     1      -0.126  -2.659  -0.113  0.00  0.00    -0.274 OA
ATOM     11  H   UNL     1      -2.044  -0.252   0.098  0.00  0.00    +0.155 HD
BRANCH   8  17
ATOM     12  C   UNL     1       1.072  -0.453  -0.766  0.00  0.00    +0.025 A 
ATOM     13  C   UNL     1       2.256   0.257  -0.778  0.00  0.00    +0.022 A 
ATOM     14  C   UNL     1       2.377   1.416  -0.032  0.00  0.00    +0.041 A 
ATOM     15  C   UNL     1       1.312   1.866   0.729  0.00  0.00    +0.022 A 
ATOM     16  C   UNL     1       0.126   1.159   0.745  0.00  0.00    +0.025 A 
ATOM     17  C   UNL     1       0.002  -0.004  -0.004  0.00  0.00    +0.034 A 
ATOM     18 CL   UNL     1       3.867   2.306  -0.048  0.00  0.00    -0.084 Cl
ENDBRANCH   8  17
ENDBRANCH   7   9
ENDBRANCH   1   7
BRANCH   4  19
ATOM     19  C   UNL     1      -4.046  -7.421  -0.630  0.00  0.00    +0.087 C 
BRANCH  19  20
ATOM     20  C   UNL     1      -3.479  -8.839  -0.727  0.00  0.00    -0.059 C 
BRANCH  20  21
ATOM     21  N   UNL     1      -4.583  -9.801  -0.842  0.00  0.00    +0.384 N 
ATOM     22  C   UNL     1      -4.044 -11.166  -0.782  0.00  0.00    -0.073 C 
ATOM     23  C   UNL     1      -5.206 -12.152  -0.568  0.00  0.00    +0.024 C 
ATOM     24  C   UNL     1      -6.284 -11.793  -1.538  0.00  0.00    -0.011 A 
ATOM     25  C   UNL     1      -6.370 -10.643  -2.264  0.00  0.00    -0.054 A 
ATOM     26  C   UNL     1      -7.466 -10.525  -3.115  0.00  0.00    +0.009 A 
ATOM     27  C   UNL     1      -8.379 -11.522  -3.184  0.00  0.00    +0.045 A 
ATOM     28  S   UNL     1      -7.718 -12.709  -2.023  0.00  0.00    -0.101 S 
ATOM     29  C   UNL     1      -5.291  -9.575  -2.108  0.00  0.00    -0.042 C 
ATOM     30  H   UNL     1      -5.224  -9.664  -0.074  0.00  0.00    -0.081 HD
ENDBRANCH  20  21
ENDBRANCH  19  20
ENDBRANCH   4  19
TORSDOF 6
