REMARK  Name = ZINC01473797
REMARK  9 active torsions:
REMARK  status: ('A' for Active; 'I' for Inactive)
REMARK    1  A    between atoms: C_1  and  C_2
REMARK    2  A    between atoms: C_5  and  S_8
REMARK    3  A    between atoms: S_8  and  N_11
REMARK    4  A    between atoms: C_16  and  C_17
REMARK    5  A    between atoms: C_16  and  N_54
REMARK    6  A    between atoms: N_19  and  N_20
REMARK    7  A    between atoms: C_21  and  C_22
REMARK    8  A    between atoms: C_25  and  O_29
REMARK    9  A    between atoms: C_26  and  O_28
REMARK                            x       y       z     vdW  Elec       q    Type
REMARK                         _______ _______ _______ _____ _____    ______ ____
ROOT
ATOM      1  C   UNL     1      -1.472   3.606  -2.377  0.00  0.00    +0.020 C 
ENDROOT
BRANCH   1   7
ATOM      2  N   UNL     1      -0.993   2.209   1.554  0.00  0.00    -0.180 NA
ATOM      3  C   UNL     1      -0.242   1.513   0.499  0.00  0.00    +0.091 C 
ATOM      4  C   UNL     1      -0.898   1.815  -0.852  0.00  0.00    -0.061 C 
ATOM      5  C   UNL     1      -1.882   3.863  -0.005  0.00  0.00    -0.061 C 
ATOM      6  C   UNL     1      -1.266   3.645   1.381  0.00  0.00    +0.091 C 
ATOM      7  N   UNL     1      -0.979   3.282  -1.022  0.00  0.00    +0.387 N 
ATOM      8  H   UNL     1      -0.042   3.684  -0.904  0.00  0.00    -0.081 HD
BRANCH   2   9
ATOM      9  S   UNL     1      -1.523   1.398   2.897  0.00  0.00    +0.061 S 
ATOM     10  O   UNL     1      -2.628   2.132   3.406  0.00  0.00    -0.153 OA
ATOM     11  O   UNL     1      -1.622   0.028   2.532  0.00  0.00    -0.153 OA
BRANCH   9  16
ATOM     12  C   UNL     1       2.845   1.766   7.043  0.00  0.00    +0.044 C 
ATOM     13  C   UNL     1       1.754   1.674   6.008  0.00  0.00    -0.050 A 
ATOM     14  C   UNL     1       0.770   2.643   5.952  0.00  0.00    +0.005 A 
ATOM     15  C   UNL     1      -0.231   2.559   5.003  0.00  0.00    +0.029 A 
ATOM     16  C   UNL     1      -0.247   1.505   4.108  0.00  0.00    +0.105 A 
ATOM     17  C   UNL     1       0.734   0.533   4.166  0.00  0.00    +0.029 A 
ATOM     18  C   UNL     1       1.737   0.620   5.113  0.00  0.00    +0.005 A 
ENDBRANCH   9  16
ENDBRANCH   2   9
ENDBRANCH   1   7
BRANCH   1  19
ATOM     19  C   UNL     1      -2.874   3.090  -2.569  0.00  0.00    +0.216 C 
ATOM     20  O   UNL     1      -3.394   2.410  -1.709  0.00  0.00    -0.276 OA
ATOM     21  N   UNL     1      -3.552   3.382  -3.697  0.00  0.00    -0.209 N 
ATOM     22  H   UNL     1      -3.136   3.925  -4.385  0.00  0.00    +0.177 HD
BRANCH  21  23
ATOM     23  N   UNL     1      -4.856   2.902  -3.876  0.00  0.00    -0.188 NA
ATOM     24  C   UNL     1      -5.508   3.183  -4.962  0.00  0.00    +0.138 C 
BRANCH  24  25
ATOM     25  C   UNL     1      -6.880   2.678  -5.150  0.00  0.00    -0.002 A 
ATOM     26  C   UNL     1      -7.478   1.891  -4.162  0.00  0.00    +0.013 A 
ATOM     27  C   UNL     1      -8.763   1.424  -4.337  0.00  0.00    +0.050 A 
ATOM     28  C   UNL     1      -9.462   1.724  -5.497  0.00  0.00    +0.158 A 
ATOM     29  C   UNL     1      -8.870   2.504  -6.489  0.00  0.00    +0.159 A 
ATOM     30  C   UNL     1      -7.584   2.980  -6.318  0.00  0.00    +0.058 A 
BRANCH  29  31
ATOM     31  O   UNL     1      -9.558   2.796  -7.625  0.00  0.00    -0.503 OA
ATOM     32  H   UNL     1      -9.436   2.151  -8.336  0.00  0.00    +0.292 HD
ENDBRANCH  29  31
BRANCH  28  33
ATOM     33  O   UNL     1     -10.727   1.257  -5.667  0.00  0.00    -0.503 OA
ATOM     34  H   UNL     1     -10.773   0.393  -6.098  0.00  0.00    +0.292 HD
ENDBRANCH  28  33
ENDBRANCH  24  25
ENDBRANCH  21  23
ENDBRANCH   1  19
TORSDOF 8
