REMARK  Name = ZINC64057966
REMARK  3 active torsions:
REMARK  status: ('A' for Active; 'I' for Inactive)
REMARK    1  A    between atoms: C_4  and  C_10
REMARK    2  A    between atoms: C_16  and  C_18
REMARK    3  A    between atoms: C_25  and  C_27
REMARK                            x       y       z     vdW  Elec       q    Type
REMARK                         _______ _______ _______ _____ _____    ______ ____
ROOT
ATOM      1  C   UNL     1       4.955   5.949  -2.760  0.00  0.00    -0.043 C 
ATOM      2  C   UNL     1       5.849   5.119  -2.236  0.00  0.00    -0.004 C 
ATOM      3  C   UNL     1       6.001   4.900  -0.756  0.00  0.00    +0.135 C 
ATOM      4  N   UNL     1       5.223   5.918  -0.036  0.00  0.00    -0.297 N 
ATOM      5  C   UNL     1       3.870   6.217  -0.536  0.00  0.00    +0.113 C 
ATOM      6  C   UNL     1       4.007   6.785  -1.953  0.00  0.00    +0.054 C 
ATOM      7  C   UNL     1       5.727   6.553   1.041  0.00  0.00    +0.220 C 
ATOM      8  O   UNL     1       6.872   6.350   1.383  0.00  0.00    -0.275 OA
ENDROOT
BRANCH   1  12
ATOM      9  C   UNL     1       2.604   8.662  -5.541  0.00  0.00    +0.020 A 
ATOM     10  C   UNL     1       3.211   7.954  -4.546  0.00  0.00    +0.013 A 
ATOM     11  C   UNL     1       4.127   6.940  -4.909  0.00  0.00    +0.022 A 
ATOM     12  C   UNL     1       4.898   6.056  -4.164  0.00  0.00    -0.015 C 
ATOM     13  C   UNL     1       5.663   5.233  -5.177  0.00  0.00    +0.150 C 
ATOM     14  N   UNL     1       5.255   5.729  -6.494  0.00  0.00    -0.365 N 
ATOM     15  C   UNL     1       4.381   6.700  -6.341  0.00  0.00    +0.135 A 
ATOM     16  N   UNL     1       3.728   7.458  -7.248  0.00  0.00    -0.238 NA
ATOM     17  C   UNL     1       2.886   8.389  -6.879  0.00  0.00    +0.113 A 
ATOM     18  H   UNL     1       5.578   5.394  -7.345  0.00  0.00    +0.161 HD
ENDBRANCH   1  12
BRANCH   7  19
ATOM     19  C   UNL     1       4.867   7.515   1.819  0.00  0.00    +0.092 C 
ATOM     20  C   UNL     1       4.005   6.738   2.817  0.00  0.00    +0.016 C 
ATOM     21  C   UNL     1       3.108   7.711   3.585  0.00  0.00    +0.020 C 
ATOM     22  C   UNL     1       3.982   8.697   4.366  0.00  0.00    +0.108 C 
ATOM     23  N   UNL     1       4.914   9.344   3.433  0.00  0.00    -0.300 N 
ATOM     24  C   UNL     1       5.761   8.500   2.580  0.00  0.00    +0.120 C 
ATOM     25  C   UNL     1       4.991  10.688   3.361  0.00  0.00    +0.229 C 
ATOM     26  O   UNL     1       5.765  11.210   2.587  0.00  0.00    -0.274 OA
BRANCH  25  27
ATOM     27  C   UNL     1       4.116  11.541   4.243  0.00  0.00    +0.140 C 
ATOM     28  C   UNL     1       4.749  12.936   4.494  0.00  0.00    +0.051 C 
ATOM     29  C   UNL     1       4.246  13.932   3.499  0.00  0.00    -0.019 C 
ATOM     30  C   UNL     1       3.143  13.682   2.820  0.00  0.00    +0.037 C 
ATOM     31  S   UNL     1       2.587  12.075   3.364  0.00  0.00    -0.120 S 
ENDBRANCH  25  27
ENDBRANCH   7  19
TORSDOF 3
