REMARK  Name = ZINC20875985
REMARK  10 active torsions:
REMARK  status: ('A' for Active; 'I' for Inactive)
REMARK    1  A    between atoms: C_1  and  C_2
REMARK    2  A    between atoms: C_7  and  C_8
REMARK    3  A    between atoms: C_11  and  C_13
REMARK    4  A    between atoms: C_13  and  N_14
REMARK    5  A    between atoms: N_14  and  C_15
REMARK    6  A    between atoms: C_15  and  C_16
REMARK    7  A    between atoms: C_16  and  C_17
REMARK    8  A    between atoms: C_17  and  S_18
REMARK    9  A    between atoms: S_18  and  C_19
REMARK   10  A    between atoms: N_23  and  C_24
REMARK                            x       y       z     vdW  Elec       q    Type
REMARK                         _______ _______ _______ _____ _____    ______ ____
ROOT
ATOM      1  N   UNL     1       1.359   2.034   0.000  0.00  0.00    +0.384 N 
ATOM      2  H   UNL     1       1.865   1.666  -0.905  0.00  0.00    -0.085 HD
ATOM      3  H   UNL     1       1.882   1.656   0.891  0.00  0.00    -0.085 HD
ENDROOT
BRANCH   1   4
ATOM      4  C   UNL     1       1.379   3.503   0.008  0.00  0.00    -0.007 C 
BRANCH   4   8
ATOM      5  C   UNL     1       4.779   4.649   0.696  0.00  0.00    +0.135 A 
ATOM      6  C   UNL     1       4.808   4.671  -0.663  0.00  0.00    +0.050 A 
ATOM      7  C   UNL     1       3.541   4.240  -1.104  0.00  0.00    +0.043 A 
ATOM      8  C   UNL     1       2.806   3.987  -0.003  0.00  0.00    +0.089 A 
ATOM      9  O   UNL     1       3.558   4.232   1.082  0.00  0.00    -0.462 OA
BRANCH   5  16
ATOM     10  C   UNL     1       4.311   6.506   2.865  0.00  0.00    +0.044 C 
ATOM     11  C   UNL     1       5.680   5.914   2.643  0.00  0.00    -0.039 A 
ATOM     12  C   UNL     1       6.724   6.255   3.478  0.00  0.00    +0.019 A 
ATOM     13  C   UNL     1       7.981   5.712   3.277  0.00  0.00    +0.018 A 
ATOM     14  C   UNL     1       8.199   4.824   2.237  0.00  0.00    +0.016 A 
ATOM     15  C   UNL     1       7.162   4.471   1.399  0.00  0.00    +0.013 A 
ATOM     16  C   UNL     1       5.893   5.019   1.593  0.00  0.00    +0.020 A 
ATOM     17 BR   UNL     1       9.406   6.185   4.426  0.00  0.00    -0.050 Br
ENDBRANCH   5  16
ENDBRANCH   4   8
ENDBRANCH   1   4
BRANCH   1  18
ATOM     18  C   UNL     1      -0.019   1.526   0.010  0.00  0.00    -0.081 C 
BRANCH  18  19
ATOM     19  C   UNL     1       0.002  -0.004   0.002  0.00  0.00    -0.008 C 
BRANCH  19  20
ATOM     20  C   UNL     1      -1.433  -0.534   0.013  0.00  0.00    +0.075 C 
BRANCH  20  21
ATOM     21  S   UNL     1      -1.409  -2.344   0.003  0.00  0.00    -0.084 S 
BRANCH  21  22
ATOM     22  C   UNL     1      -3.140  -2.673   0.018  0.00  0.00    +0.214 A 
ATOM     23  N   UNL     1      -4.106  -1.780   0.031  0.00  0.00    -0.101 NA
ATOM     24  N   UNL     1      -5.253  -2.358   0.039  0.00  0.00    -0.022 NA
ATOM     25  N   UNL     1      -5.110  -3.639   0.031  0.00  0.00    -0.038 NA
ATOM     26  N   UNL     1      -3.728  -3.896   0.011  0.00  0.00    -0.187 N 
BRANCH  26  27
ATOM     27  C   UNL     1      -3.094  -5.146  -0.008  0.00  0.00    +0.070 A 
ATOM     28  C   UNL     1      -1.912  -5.316  -0.716  0.00  0.00    +0.028 A 
ATOM     29  C   UNL     1      -1.287  -6.547  -0.729  0.00  0.00    +0.002 A 
ATOM     30  C   UNL     1      -1.843  -7.614  -0.047  0.00  0.00    +0.000 A 
ATOM     31  C   UNL     1      -3.023  -7.449   0.655  0.00  0.00    +0.002 A 
ATOM     32  C   UNL     1      -3.650  -6.219   0.676  0.00  0.00    +0.028 A 
ENDBRANCH  26  27
ENDBRANCH  21  22
ENDBRANCH  20  21
ENDBRANCH  19  20
ENDBRANCH  18  19
ENDBRANCH   1  18
TORSDOF 9
