REMARK  Name = ZINC45626260
REMARK  6 active torsions:
REMARK  status: ('A' for Active; 'I' for Inactive)
REMARK    1  A    between atoms: C_1  and  C_2
REMARK    2  A    between atoms: C_5  and  N_8
REMARK    3  A    between atoms: C_9  and  C_21
REMARK    4  A    between atoms: N_10  and  N_11
REMARK    5  A    between atoms: C_12  and  C_13
REMARK    6  A    between atoms: C_18  and  O_19
REMARK                            x       y       z     vdW  Elec       q    Type
REMARK                         _______ _______ _______ _____ _____    ______ ____
ROOT
ATOM      1  N   UNL     1       0.013  -4.172   0.005  0.00  0.00    -0.297 N 
ATOM      2  C   UNL     1       0.062  -4.866   1.199  0.00  0.00    +0.160 C 
ATOM      3  N   UNL     1      -0.008  -4.216   2.341  0.00  0.00    -0.261 N 
ATOM      4  H   UNL     1       0.403  -3.286  -0.058  0.00  0.00    +0.154 HD
ATOM      5  H   UNL     1      -0.046  -4.707   3.177  0.00  0.00    +0.190 HD
ENDROOT
BRANCH   2   6
ATOM      6  C   UNL     1       0.194  -6.332   1.193  0.00  0.00    +0.172 A 
ATOM      7  N   UNL     1       0.131  -7.136   2.303  0.00  0.00    -0.336 N 
ATOM      8  H   UNL     1      -0.007  -6.845   3.218  0.00  0.00    +0.167 HD
ATOM      9  C   UNL     1       0.300  -8.435   1.872  0.00  0.00    +0.067 A 
ATOM     10  C   UNL     1       0.332  -9.666   2.513  0.00  0.00    +0.028 A 
ATOM     11  C   UNL     1       0.524 -10.815   1.776  0.00  0.00    +0.002 A 
ATOM     12  C   UNL     1       0.687 -10.750   0.398  0.00  0.00    +0.002 A 
ATOM     13  C   UNL     1       0.659  -9.550  -0.251  0.00  0.00    +0.030 A 
ATOM     14  C   UNL     1       0.464  -8.368   0.475  0.00  0.00    +0.090 A 
ATOM     15  N   UNL     1       0.385  -7.070   0.124  0.00  0.00    -0.225 NA
ENDBRANCH   2   6
BRANCH   1  20
ATOM     16  C   UNL     1      -2.474  -6.503  -4.528  0.00  0.00    +0.044 C 
ATOM     17  C   UNL     1      -1.813  -5.884  -3.323  0.00  0.00    -0.050 A 
ATOM     18  C   UNL     1      -0.740  -5.027  -3.489  0.00  0.00    +0.005 A 
ATOM     19  C   UNL     1      -0.132  -4.458  -2.388  0.00  0.00    +0.023 A 
ATOM     20  C   UNL     1      -0.600  -4.746  -1.112  0.00  0.00    +0.032 A 
ATOM     21  C   UNL     1      -1.679  -5.607  -0.949  0.00  0.00    +0.023 A 
ATOM     22  C   UNL     1      -2.285  -6.169  -2.055  0.00  0.00    +0.005 A 
ENDBRANCH   1  20
BRANCH   3  23
ATOM     23  N   UNL     1      -0.026  -2.926   2.350  0.00  0.00    -0.180 NA
ATOM     24  C   UNL     1       0.004  -2.279   3.486  0.00  0.00    +0.144 C 
BRANCH  24  25
ATOM     25  C   UNL     1      -0.128  -0.816   3.502  0.00  0.00    +0.037 A 
ATOM     26  C   UNL     1       0.000  -0.111   4.704  0.00  0.00    +0.028 A 
ATOM     27  C   UNL     1      -0.125   1.262   4.710  0.00  0.00    +0.019 A 
ATOM     28  C   UNL     1      -0.379   1.947   3.532  0.00  0.00    +0.019 A 
ATOM     29  C   UNL     1      -0.509   1.262   2.339  0.00  0.00    +0.047 A 
ATOM     30  C   UNL     1      -0.380  -0.117   2.311  0.00  0.00    +0.126 A 
ATOM     31 BR   UNL     1       0.049   2.216   6.334  0.00  0.00    -0.050 Br
BRANCH  30  32
ATOM     32  O   UNL     1      -0.501  -0.790   1.138  0.00  0.00    -0.506 OA
ATOM     33  H   UNL     1      -1.414  -0.997   0.896  0.00  0.00    +0.292 HD
ENDBRANCH  30  32
ENDBRANCH  24  25
ENDBRANCH   3  23
TORSDOF 5
