REMARK  Name = ZINC21081898
REMARK  9 active torsions:
REMARK  status: ('A' for Active; 'I' for Inactive)
REMARK    1  A    between atoms: C_1  and  C_2
REMARK    2  A    between atoms: C_2  and  C_25
REMARK    3  A    between atoms: N_3  and  N_4
REMARK    4  A    between atoms: C_7  and  S_10
REMARK    5  A    between atoms: S_10  and  C_11
REMARK    6  A    between atoms: C_11  and  C_12
REMARK    7  A    between atoms: C_12  and  C_13
REMARK    8  A    between atoms: N_15  and  C_16
REMARK    9  A    between atoms: C_21  and  N_22
REMARK                            x       y       z     vdW  Elec       q    Type
REMARK                         _______ _______ _______ _____ _____    ______ ____
ROOT
ATOM      1  N   UNL     1       1.709  -1.732  -0.107  0.00  0.00    -0.205 N 
ATOM      2  C   UNL     1       1.268  -0.417  -0.085  0.00  0.00    +0.232 A 
ATOM      3  N   UNL     1      -0.036  -0.007  -0.079  0.00  0.00    -0.186 NA
ATOM      4  C   UNL     1      -0.050   1.359  -0.056  0.00  0.00    +0.210 A 
ATOM      5  N   UNL     1       1.194   1.776  -0.047  0.00  0.00    -0.144 NA
ATOM      6  N   UNL     1       2.028   0.651  -0.066  0.00  0.00    -0.245 N 
ATOM      7  H   UNL     1       0.981  -2.556  -0.123  0.00  0.00    +0.177 HD
ATOM      8  H   UNL     1       3.123   0.546  -0.067  0.00  0.00    +0.192 HD
ENDROOT
BRANCH   1  11
ATOM      9  C   UNL     1       2.498  -4.370  -0.153  0.00  0.00    +0.068 C 
ATOM     10  C   UNL     1       3.495  -3.241  -0.132  0.00  0.00    +0.063 C 
ATOM     11  N   UNL     1       3.082  -2.010  -0.111  0.00  0.00    -0.184 NA
BRANCH  10  12
ATOM     12  C   UNL     1       4.941  -3.534  -0.136  0.00  0.00    -0.002 A 
ATOM     13  C   UNL     1       5.388  -4.857  -0.153  0.00  0.00    +0.011 A 
ATOM     14  C   UNL     1       6.741  -5.124  -0.163  0.00  0.00    +0.016 A 
ATOM     15  C   UNL     1       7.655  -4.083  -0.143  0.00  0.00    +0.018 A 
ATOM     16  C   UNL     1       7.218  -2.770  -0.120  0.00  0.00    +0.016 A 
ATOM     17  C   UNL     1       5.868  -2.489  -0.117  0.00  0.00    +0.011 A 
ATOM     18 BR   UNL     1       9.509  -4.459  -0.149  0.00  0.00    -0.050 Br
ENDBRANCH  10  12
ENDBRANCH   1  11
BRANCH   4  19
ATOM     19  S   UNL     1      -1.485   2.381  -0.046  0.00  0.00    -0.084 S 
BRANCH  19  20
ATOM     20  C   UNL     1      -0.822   4.069  -0.013  0.00  0.00    +0.086 C 
BRANCH  20  21
ATOM     21  C   UNL     1      -1.978   5.071  -0.003  0.00  0.00    +0.107 C 
BRANCH  21  22
ATOM     22  C   UNL     1      -1.427   6.473   0.024  0.00  0.00    +0.218 C 
ATOM     23  O   UNL     1      -0.228   6.653   0.034  0.00  0.00    -0.275 OA
ATOM     24  N   UNL     1      -2.268   7.527   0.038  0.00  0.00    -0.284 N 
ATOM     25  H   UNL     1      -3.353   7.366  -0.044  0.00  0.00    +0.155 HD
BRANCH  24  26
ATOM     26  C   UNL     1      -1.759   8.825   0.156  0.00  0.00    +0.064 A 
ATOM     27  C   UNL     1      -0.549   9.156  -0.439  0.00  0.00    +0.025 A 
ATOM     28  C   UNL     1      -0.053  10.439  -0.325  0.00  0.00    +0.002 A 
ATOM     29  C   UNL     1      -0.754  11.393   0.390  0.00  0.00    +0.002 A 
ATOM     30  C   UNL     1      -1.957  11.065   0.989  0.00  0.00    +0.034 A 
ATOM     31  C   UNL     1      -2.461   9.784   0.874  0.00  0.00    +0.147 A 
BRANCH  31  32
ATOM     32  N   UNL     1      -3.748   9.435   1.516  0.00  0.00    +0.058 N 
ATOM     33  O   UNL     1      -4.412  10.299   2.060  0.00  0.00    -0.126 OA
ATOM     34  O   UNL     1      -4.144   8.283   1.500  0.00  0.00    -0.126 OA
ENDBRANCH  31  32
ENDBRANCH  24  26
ENDBRANCH  21  22
ENDBRANCH  20  21
ENDBRANCH  19  20
ENDBRANCH   4  19
TORSDOF 8
