REMARK  Name = ZINC12078406
REMARK  10 active torsions:
REMARK  status: ('A' for Active; 'I' for Inactive)
REMARK    1  A    between atoms: C_1  and  C_2
REMARK    2  A    between atoms: C_2  and  C_3
REMARK    3  A    between atoms: C_2  and  C_4
REMARK    4  A    between atoms: C_2  and  N_58
REMARK    5  A    between atoms: C_4  and  O_5
REMARK    6  A    between atoms: C_6  and  C_7
REMARK    7  A    between atoms: C_6  and  N_58
REMARK    8  A    between atoms: N_15  and  C_18
REMARK    9  A    between atoms: C_18  and  C_19
REMARK   10  A    between atoms: C_19  and  N_61
REMARK                            x       y       z     vdW  Elec       q    Type
REMARK                         _______ _______ _______ _____ _____    ______ ____
ROOT
ATOM      1  C   UNL     1       0.002  -0.004   0.002  0.00  0.00    +0.001 A 
ATOM      2  C   UNL     1      -0.016   1.353   0.009  0.00  0.00    +0.017 A 
ATOM      3  C   UNL     1       1.258   2.070   0.001  0.00  0.00    +0.003 A 
ATOM      4  C   UNL     1       1.300   3.470   0.008  0.00  0.00    +0.059 A 
ATOM      5  C   UNL     1       2.515   4.117   0.002  0.00  0.00    +0.167 A 
ATOM      6  C   UNL     1       3.707   3.381  -0.012  0.00  0.00    +0.168 A 
ATOM      7  C   UNL     1       3.675   1.998  -0.020  0.00  0.00    +0.076 A 
ATOM      8  C   UNL     1       2.457   1.331  -0.014  0.00  0.00    +0.056 A 
ATOM      9  N   UNL     1       2.406  -0.049  -0.022  0.00  0.00    -0.310 N 
ATOM     10  C   UNL     1       1.229  -0.698  -0.014  0.00  0.00    +0.253 A 
ATOM     11  O   UNL     1       1.222  -1.917  -0.021  0.00  0.00    -0.267 OA
ATOM     12  O   UNL     1       4.755   4.255  -0.015  0.00  0.00    -0.453 OA
ATOM     13  C   UNL     1       4.207   5.516   0.411  0.00  0.00    +0.466 C 
ATOM     14  O   UNL     1       2.828   5.447   0.007  0.00  0.00    -0.453 OA
ENDROOT
BRANCH   1  15
ATOM     15  C   UNL     1      -1.294  -0.772   0.011  0.00  0.00    -0.040 C 
BRANCH  15  16
ATOM     16  N   UNL     1      -1.662  -1.116  -1.376  0.00  0.00    +0.387 N 
ATOM     17  H   UNL     1      -1.772  -0.253  -1.921  0.00  0.00    -0.085 HD
ATOM     18  H   UNL     1      -0.919  -1.690  -1.791  0.00  0.00    -0.085 HD
BRANCH  16  20
ATOM     19  C   UNL     1      -2.773  -3.162  -0.593  0.00  0.00    -0.008 C 
ATOM     20  C   UNL     1      -2.929  -1.870  -1.398  0.00  0.00    -0.050 C 
ATOM     21  C   UNL     1      -4.045  -1.019  -0.787  0.00  0.00    -0.008 C 
BRANCH  20  22
ATOM     22  C   UNL     1      -3.284  -2.212  -2.847  0.00  0.00    +0.143 C 
BRANCH  22  23
ATOM     23  O   UNL     1      -4.512  -2.942  -2.877  0.00  0.00    -0.396 OA
ATOM     24  H   UNL     1      -4.799  -3.193  -3.766  0.00  0.00    +0.209 HD
ENDBRANCH  22  23
ENDBRANCH  20  22
ENDBRANCH  16  20
ENDBRANCH  15  16
ENDBRANCH   1  15
BRANCH   9  25
ATOM     25  C   UNL     1       3.654  -0.817  -0.040  0.00  0.00    +0.107 C 
BRANCH  25  26
ATOM     26  C   UNL     1       4.073  -1.075  -1.488  0.00  0.00    -0.057 C 
BRANCH  26  32
ATOM     27  C   UNL     1       6.434  -1.060  -0.950  0.00  0.00    -0.079 C 
ATOM     28  C   UNL     1       7.682  -1.939  -0.849  0.00  0.00    -0.019 C 
ATOM     29  C   UNL     1       8.048  -2.459  -2.242  0.00  0.00    -0.004 C 
ATOM     30  C   UNL     1       6.859  -3.232  -2.818  0.00  0.00    -0.019 C 
ATOM     31  C   UNL     1       5.634  -2.316  -2.862  0.00  0.00    -0.079 C 
ATOM     32  N   UNL     1       5.319  -1.869  -1.488  0.00  0.00    +0.381 N 
ATOM     33  H   UNL     1       5.189  -2.694  -0.891  0.00  0.00    -0.082 HD
ENDBRANCH  26  32
ENDBRANCH  25  26
ENDBRANCH   9  25
TORSDOF 8
