REMARK  Name = ZINC54450008
REMARK  12 active torsions:
REMARK  status: ('A' for Active; 'I' for Inactive)
REMARK    1  A    between atoms: C_1  and  C_2
REMARK    2  A    between atoms: C_2  and  O_3
REMARK    3  A    between atoms: O_3  and  C_4
REMARK    4  A    between atoms: N_6  and  C_7
REMARK    5  A    between atoms: C_11  and  N_14
REMARK    6  A    between atoms: C_12  and  C_13
REMARK    7  A    between atoms: N_17  and  C_18
REMARK    8  A    between atoms: C_18  and  C_19
REMARK    9  A    between atoms: C_19  and  C_20
REMARK   10  A    between atoms: C_19  and  C_21
REMARK   11  A    between atoms: C_19  and  N_22
REMARK   12  A    between atoms: C_26  and  C_29
REMARK                            x       y       z     vdW  Elec       q    Type
REMARK                         _______ _______ _______ _____ _____    ______ ____
ROOT
ATOM      1  N   UNL     1       2.592  -6.052   5.034  0.00  0.00    -0.269 N 
ATOM      2  C   UNL     1       2.708  -7.386   5.182  0.00  0.00    +0.304 C 
ATOM      3  O   UNL     1       2.244  -8.134   4.344  0.00  0.00    -0.253 OA
ATOM      4  N   UNL     1       3.340  -7.892   6.260  0.00  0.00    -0.300 N 
ATOM      5  H   UNL     1       2.902  -5.457   5.735  0.00  0.00    +0.156 HD
ATOM      6  H   UNL     1       3.711  -7.295   6.929  0.00  0.00    +0.150 HD
ENDROOT
BRANCH   1  11
ATOM      7  C   UNL     1       1.931  -3.808   2.191  0.00  0.00    +0.041 A 
ATOM      8  C   UNL     1       0.894  -4.486   1.561  0.00  0.00    +0.024 A 
ATOM      9  C   UNL     1       0.428  -5.677   2.083  0.00  0.00    +0.004 A 
ATOM     10  C   UNL     1       0.989  -6.197   3.233  0.00  0.00    +0.024 A 
ATOM     11  C   UNL     1       2.025  -5.524   3.869  0.00  0.00    +0.039 A 
ATOM     12  C   UNL     1       2.500  -4.331   3.343  0.00  0.00    -0.008 A 
ATOM     13  C   UNL     1       3.628  -3.602   4.026  0.00  0.00    +0.047 C 
BRANCH   7  16
ATOM     14  C   UNL     1       2.250  -2.337   0.349  0.00  0.00    +0.405 C 
ATOM     15  O   UNL     1       1.797  -3.185  -0.393  0.00  0.00    -0.226 OA
ATOM     16  N   UNL     1       2.403  -2.602   1.662  0.00  0.00    -0.251 N 
ATOM     17  H   UNL     1       2.840  -1.957   2.239  0.00  0.00    +0.158 HD
BRANCH  14  18
ATOM     18  O   UNL     1       2.601  -1.132  -0.139  0.00  0.00    -0.450 OA
BRANCH  18  20
ATOM     19  C   UNL     1       2.863   0.496  -1.907  0.00  0.00    +0.048 C 
ATOM     20  C   UNL     1       2.412  -0.919  -1.540  0.00  0.00    +0.230 C 
ENDBRANCH  18  20
ENDBRANCH  14  18
ENDBRANCH   7  16
ENDBRANCH   1  11
BRANCH   4  21
ATOM     21  C   UNL     1       3.467  -9.343   6.421  0.00  0.00    +0.093 C 
BRANCH  21  22
ATOM     22  C   UNL     1       4.220  -9.648   7.717  0.00  0.00    -0.055 C 
ATOM     23  C   UNL     1       4.352 -11.163   7.886  0.00  0.00    -0.008 C 
ATOM     24  C   UNL     1       5.613  -9.018   7.659  0.00  0.00    -0.008 C 
BRANCH  22  25
ATOM     25  N   UNL     1       3.478  -9.091   8.857  0.00  0.00    +0.384 N 
ATOM     26  C   UNL     1       2.139  -9.690   8.907  0.00  0.00    -0.078 C 
ATOM     27  C   UNL     1       1.334  -9.055  10.043  0.00  0.00    -0.018 C 
ATOM     28  C   UNL     1       2.055  -9.301  11.371  0.00  0.00    -0.001 C 
ATOM     29  C   UNL     1       3.477  -8.738  11.282  0.00  0.00    -0.031 C 
ATOM     30  C   UNL     1       4.202  -9.385  10.100  0.00  0.00    -0.075 C 
ATOM     31  C   UNL     1       4.231  -9.047  12.576  0.00  0.00    +0.005 C 
ATOM     32  H   UNL     1       3.394  -8.092   8.746  0.00  0.00    -0.081 HD
ENDBRANCH  22  25
ENDBRANCH  21  22
ENDBRANCH   4  21
TORSDOF 7
