REMARK  Name = ZINC39480939
REMARK  7 active torsions:
REMARK  status: ('A' for Active; 'I' for Inactive)
REMARK    1  A    between atoms: C_1  and  C_2
REMARK    2  A    between atoms: C_2  and  O_3
REMARK    3  A    between atoms: O_3  and  S_4
REMARK    4  A    between atoms: S_4  and  N_7
REMARK    5  A    between atoms: N_7  and  C_8
REMARK    6  A    between atoms: C_11  and  C_22
REMARK    7  A    between atoms: C_13  and  N_14
REMARK                            x       y       z     vdW  Elec       q    Type
REMARK                         _______ _______ _______ _____ _____    ______ ____
ROOT
ATOM      1  C   UNL     1      -0.983  -3.889  -1.898  0.00  0.00    +0.097 A 
ATOM      2  C   UNL     1       0.048  -4.797  -1.708  0.00  0.00    +0.029 A 
ATOM      3  C   UNL     1      -0.181  -6.149  -1.885  0.00  0.00    +0.005 A 
ATOM      4  C   UNL     1      -1.435  -6.600  -2.252  0.00  0.00    -0.049 A 
ATOM      5  C   UNL     1      -2.469  -5.702  -2.443  0.00  0.00    +0.028 A 
ATOM      6  C   UNL     1      -2.250  -4.345  -2.263  0.00  0.00    +0.055 A 
ATOM      7  C   UNL     1      -1.676  -8.075  -2.443  0.00  0.00    +0.044 C 
ENDROOT
BRANCH   6   8
ATOM      8  N   UNL     1      -3.297  -3.434  -2.451  0.00  0.00    -0.323 N 
ATOM      9  C   UNL     1      -3.553  -2.841  -3.772  0.00  0.00    +0.120 C 
ATOM     10  C   UNL     1      -3.636  -1.319  -3.614  0.00  0.00    +0.102 C 
ATOM     11  N   UNL     1      -4.630  -0.990  -2.583  0.00  0.00    -0.285 NA
ATOM     12  C   UNL     1      -4.229  -1.515  -1.271  0.00  0.00    +0.252 C 
ATOM     13  C   UNL     1      -4.173  -3.049  -1.334  0.00  0.00    +0.158 C 
ATOM     14  F   UNL     1      -5.162  -1.122  -0.306  0.00  0.00    -0.227 F 
ATOM     15  H   UNL     1      -4.791   0.005  -2.541  0.00  0.00    +0.125 HD
ENDBRANCH   6   8
BRANCH   1  16
ATOM     16  N   UNL     1      -0.754  -2.519  -1.719  0.00  0.00    -0.075 NA
BRANCH  16  17
ATOM     17  S   UNL     1       0.751  -1.981  -1.287  0.00  0.00    +0.186 S 
ATOM     18  O   UNL     1       1.613  -2.262  -2.381  0.00  0.00    -0.125 OA
ATOM     19  O   UNL     1       0.997  -2.473   0.023  0.00  0.00    -0.125 OA
BRANCH  17  20
ATOM     20  O   UNL     1       0.671  -0.465  -1.174  0.00  0.00    -0.221 OA
BRANCH  20  22
ATOM     21  C   UNL     1      -0.019   1.526   0.010  0.00  0.00    +0.036 C 
ATOM     22  C   UNL     1       0.002  -0.004   0.002  0.00  0.00    +0.192 C 
ENDBRANCH  20  22
ENDBRANCH  17  20
ENDBRANCH  16  17
ENDBRANCH   1  16
TORSDOF 5
