REMARK  Name = ZINC27562857
REMARK  15 active torsions:
REMARK  status: ('A' for Active; 'I' for Inactive)
REMARK    1  A    between atoms: C_1  and  C_2
REMARK    2  A    between atoms: C_2  and  O_3
REMARK    3  A    between atoms: O_3  and  C_4
REMARK    4  A    between atoms: C_4  and  C_6
REMARK    5  A    between atoms: N_9  and  C_12
REMARK    6  A    between atoms: C_12  and  C_13
REMARK    7  A    between atoms: C_13  and  C_14
REMARK    8  A    between atoms: C_14  and  N_15
REMARK    9  A    between atoms: C_16  and  C_18
REMARK   10  A    between atoms: C_19  and  C_39
REMARK   11  A    between atoms: C_21  and  C_38
REMARK   12  A    between atoms: C_22  and  C_34
REMARK   13  A    between atoms: C_23  and  C_25
REMARK   14  A    between atoms: C_28  and  N_31
REMARK   15  A    between atoms: N_36  and  C_37
REMARK                            x       y       z     vdW  Elec       q    Type
REMARK                         _______ _______ _______ _____ _____    ______ ____
ROOT
ATOM      1  C   UNL     1     -10.053   5.164   7.170  0.00  0.00    +0.043 C 
ATOM      2  C   UNL     1     -10.988   5.399   6.234  0.00  0.00    +0.014 C 
ATOM      3  N   UNL     1     -12.191   4.746   6.265  0.00  0.00    -0.321 N 
ATOM      4  C   UNL     1     -12.615   4.139   7.416  0.00  0.00    +0.014 C 
ATOM      5  C   UNL     1     -11.751   3.856   8.403  0.00  0.00    +0.043 C 
ATOM      6  C   UNL     1     -10.289   4.184   8.284  0.00  0.00    +0.092 C 
ATOM      7  C   UNL     1     -14.071   3.784   7.577  0.00  0.00    +0.061 C 
ATOM      8  C   UNL     1     -10.706   6.389   5.133  0.00  0.00    +0.061 C 
ATOM      9  H   UNL     1     -12.819   4.708   5.363  0.00  0.00    +0.152 HD
ENDROOT
BRANCH   6  10
ATOM     10  C   UNL     1      -9.519   2.919   8.003  0.00  0.00    -0.035 A 
ATOM     11  C   UNL     1      -9.781   2.191   6.857  0.00  0.00    +0.007 A 
ATOM     12  C   UNL     1      -9.071   1.033   6.597  0.00  0.00    +0.033 A 
ATOM     13  C   UNL     1      -8.107   0.598   7.488  0.00  0.00    +0.126 A 
ATOM     14  C   UNL     1      -7.850   1.324   8.636  0.00  0.00    +0.033 A 
ATOM     15  C   UNL     1      -8.556   2.484   8.893  0.00  0.00    +0.007 A 
BRANCH  13  16
ATOM     16  N   UNL     1      -7.351  -0.644   7.212  0.00  0.00    +0.056 N 
ATOM     17  O   UNL     1      -6.502  -1.027   7.997  0.00  0.00    -0.126 OA
ATOM     18  O   UNL     1      -7.578  -1.283   6.200  0.00  0.00    -0.126 OA
ENDBRANCH  13  16
ENDBRANCH   6  10
BRANCH   5  19
ATOM     19  C   UNL     1     -12.227   3.235   9.584  0.00  0.00    +0.242 C 
ATOM     20  O   UNL     1     -12.452   3.905  10.576  0.00  0.00    -0.270 OA
ATOM     21  N   UNL     1     -12.430   1.903   9.611  0.00  0.00    -0.315 N 
ATOM     22  C   UNL     1     -12.922   1.261  10.832  0.00  0.00    +0.128 C 
ATOM     23  H   UNL     1     -12.226   1.298   8.715  0.00  0.00    +0.149 HD
ENDBRANCH   5  19
BRANCH   1  25
ATOM     24  N   UNL     1      -7.861   5.455   6.253  0.00  0.00    -0.312 N 
ATOM     25  C   UNL     1      -8.821   5.859   7.109  0.00  0.00    +0.242 C 
ATOM     26  O   UNL     1      -8.629   6.822   7.829  0.00  0.00    -0.270 OA
ATOM     27  H   UNL     1      -8.034   4.585   5.603  0.00  0.00    +0.149 HD
BRANCH  24  28
ATOM     28  C   UNL     1      -6.586   6.175   6.190  0.00  0.00    +0.102 C 
BRANCH  28  29
ATOM     29  C   UNL     1      -5.681   5.517   5.147  0.00  0.00    +0.000 C 
BRANCH  29  30
ATOM     30  C   UNL     1      -4.350   6.268   5.081  0.00  0.00    -0.077 C 
BRANCH  30  34
ATOM     31  C   UNL     1      -1.251   4.077   3.112  0.00  0.00    +0.094 C 
ATOM     32  C   UNL     1      -2.686   3.545   3.082  0.00  0.00    -0.004 C 
ATOM     33  C   UNL     1      -3.482   4.176   4.227  0.00  0.00    -0.078 C 
ATOM     34  N   UNL     1      -3.480   5.637   4.079  0.00  0.00    +0.380 N 
ATOM     35  C   UNL     1      -2.116   6.176   4.152  0.00  0.00    -0.078 C 
ATOM     36  C   UNL     1      -1.279   5.604   3.005  0.00  0.00    -0.004 C 
ATOM     37  H   UNL     1      -3.881   5.874   3.083  0.00  0.00    -0.082 HD
BRANCH  31  38
ATOM     38  C   UNL     1      -0.477   3.506   1.951  0.00  0.00    +0.310 C 
ATOM     39  O   UNL     1       0.002   4.243   1.123  0.00  0.00    -0.251 OA
BRANCH  38  40
ATOM     40  O   UNL     1      -0.322   2.177   1.837  0.00  0.00    -0.465 OA
BRANCH  40  42
ATOM     41  C   UNL     1       0.505   0.170   0.735  0.00  0.00    +0.048 C 
ATOM     42  C   UNL     1       0.434   1.697   0.695  0.00  0.00    +0.229 C 
ENDBRANCH  40  42
ENDBRANCH  38  40
ENDBRANCH  31  38
ENDBRANCH  30  34
ENDBRANCH  29  30
ENDBRANCH  28  29
ENDBRANCH  24  28
ENDBRANCH   1  25
TORSDOF 11
