REMARK  Name = ZINC39683959
REMARK  8 active torsions:
REMARK  status: ('A' for Active; 'I' for Inactive)
REMARK    1  A    between atoms: C_1  and  C_2
REMARK    2  A    between atoms: C_2  and  C_4
REMARK    3  A    between atoms: C_2  and  N_8
REMARK    4  A    between atoms: N_6  and  C_7
REMARK    5  A    between atoms: C_9  and  C_11
REMARK    6  A    between atoms: C_22  and  C_24
REMARK    7  A    between atoms: C_28  and  O_29
REMARK    8  A    between atoms: O_29  and  C_30
REMARK                            x       y       z     vdW  Elec       q    Type
REMARK                         _______ _______ _______ _____ _____    ______ ____
ROOT
ATOM      1  C   UNL     1      -3.447  -1.176  -1.135  0.00  0.00    +0.100 C 
ATOM      2  C   UNL     1      -3.476  -2.664  -0.721  0.00  0.00    +0.121 C 
ATOM      3  N   UNL     1      -4.541  -3.265  -1.557  0.00  0.00    -0.296 N 
ATOM      4  C   UNL     1      -4.381  -2.616  -2.881  0.00  0.00    +0.115 C 
ATOM      5  C   UNL     1      -4.041  -1.149  -2.553  0.00  0.00    -0.004 C 
ATOM      6  C   UNL     1      -3.015  -0.611  -3.545  0.00  0.00    -0.010 C 
ATOM      7  C   UNL     1      -3.647  -0.538  -4.938  0.00  0.00    -0.082 C 
ATOM      8  N   UNL     1      -4.825   0.337  -4.898  0.00  0.00    +0.379 N 
ATOM      9  C   UNL     1      -5.845  -0.236  -4.012  0.00  0.00    -0.082 C 
ATOM     10  C   UNL     1      -5.306  -0.295  -2.580  0.00  0.00    -0.010 C 
ATOM     11  C   UNL     1      -5.451  -4.192  -1.196  0.00  0.00    +0.251 C 
ATOM     12  O   UNL     1      -5.519  -4.558  -0.039  0.00  0.00    -0.270 OA
ATOM     13  H   UNL     1      -4.554   1.246  -4.554  0.00  0.00    -0.086 HD
ATOM     14  H   UNL     1      -5.204   0.432  -5.829  0.00  0.00    -0.086 HD
ENDROOT
BRANCH  11  15
ATOM     15  C   UNL     1      -6.361  -4.759  -2.203  0.00  0.00    +0.087 A 
ATOM     16  C   UNL     1      -5.958  -4.971  -3.503  0.00  0.00    +0.063 A 
ATOM     17  S   UNL     1      -7.310  -5.618  -4.256  0.00  0.00    -0.081 S 
ATOM     18  C   UNL     1      -8.451  -5.633  -2.891  0.00  0.00    +0.120 A 
ATOM     19  C   UNL     1      -7.719  -5.127  -1.873  0.00  0.00    +0.158 A 
ATOM     20 CL   UNL     1     -10.102  -6.171  -2.869  0.00  0.00    -0.072 Cl
BRANCH  19  21
ATOM     21  O   UNL     1      -8.229  -4.970  -0.620  0.00  0.00    -0.492 OA
ATOM     22  C   UNL     1      -8.864  -3.724  -0.329  0.00  0.00    +0.277 C 
ENDBRANCH  19  21
ENDBRANCH  11  15
BRANCH   1  24
ATOM     23  N   UNL     1      -1.793   0.662  -1.068  0.00  0.00    -0.304 N 
ATOM     24  C   UNL     1      -2.031  -0.662  -1.149  0.00  0.00    +0.219 C 
ATOM     25  O   UNL     1      -1.105  -1.440  -1.234  0.00  0.00    -0.275 OA
ATOM     26  H   UNL     1      -2.534   1.285  -1.000  0.00  0.00    +0.149 HD
BRANCH  23  28
ATOM     27  C   UNL     1       0.056   1.315  -2.529  0.00  0.00    +0.038 C 
ATOM     28  C   UNL     1      -0.416   1.162  -1.082  0.00  0.00    +0.156 C 
BRANCH  28  29
ATOM     29  C   UNL     1      -0.360   2.500  -0.391  0.00  0.00    +0.233 C 
ATOM     30  O   UNL     1      -1.371   2.988   0.068  0.00  0.00    -0.274 OA
ATOM     31  N   UNL     1       0.813   3.154  -0.283  0.00  0.00    -0.317 N 
ATOM     32  C   UNL     1       0.868   4.455   0.389  0.00  0.00    +0.128 C 
ATOM     33  H   UNL     1       1.622   2.763  -0.650  0.00  0.00    +0.148 HD
ENDBRANCH  28  29
ENDBRANCH  23  28
ENDBRANCH   1  24
TORSDOF 5
