REMARK  Name = ZINC20873188
REMARK  13 active torsions:
REMARK  status: ('A' for Active; 'I' for Inactive)
REMARK    1  A    between atoms: C_1  and  C_2
REMARK    2  A    between atoms: C_2  and  C_4
REMARK    3  A    between atoms: C_2  and  O_23
REMARK    4  A    between atoms: C_4  and  N_5
REMARK    5  A    between atoms: N_5  and  C_6
REMARK    6  A    between atoms: C_6  and  C_7
REMARK    7  A    between atoms: C_12  and  O_13
REMARK    8  A    between atoms: O_13  and  C_14
REMARK    9  A    between atoms: C_14  and  C_15
REMARK   10  A    between atoms: N_17  and  C_18
REMARK   11  A    between atoms: C_18  and  C_19
REMARK   12  A    between atoms: C_18  and  C_20
REMARK   13  A    between atoms: C_18  and  C_21
REMARK                            x       y       z     vdW  Elec       q    Type
REMARK                         _______ _______ _______ _____ _____    ______ ____
ROOT
ATOM      1  C   UNL     1      -1.189  -0.715   0.015  0.00  0.00    -0.022 A 
ATOM      2  C   UNL     1      -1.168  -2.096   0.002  0.00  0.00    +0.020 A 
ATOM      3  C   UNL     1       0.040  -2.771  -0.013  0.00  0.00    +0.018 A 
ATOM      4  C   UNL     1       1.229  -2.063  -0.021  0.00  0.00    +0.019 A 
ATOM      5  C   UNL     1       1.212  -0.682  -0.013  0.00  0.00    +0.047 A 
ATOM      6  C   UNL     1       0.002  -0.004   0.002  0.00  0.00    +0.123 A 
ATOM      7 BR   UNL     1       0.065  -4.661  -0.023  0.00  0.00    -0.050 Br
ENDROOT
BRANCH   1   8
ATOM      8  C   UNL     1      -2.505   0.019   0.039  0.00  0.00    -0.043 C 
BRANCH   8   9
ATOM      9  N   UNL     1      -2.835   0.475  -1.318  0.00  0.00    +0.383 N 
ATOM     10  H   UNL     1      -2.901  -0.401  -1.979  0.00  0.00    -0.085 HD
ATOM     11  H   UNL     1      -2.034   1.142  -1.671  0.00  0.00    -0.085 HD
BRANCH   9  12
ATOM     12  C   UNL     1      -4.115   1.197  -1.334  0.00  0.00    -0.051 C 
BRANCH  12  14
ATOM     13  C   UNL     1      -5.757   2.407  -2.777  0.00  0.00    +0.035 C 
ATOM     14  C   UNL     1      -4.424   1.655  -2.760  0.00  0.00    +0.095 C 
BRANCH  14  15
ATOM     15  O   UNL     1      -3.383   2.521  -3.219  0.00  0.00    -0.394 OA
ATOM     16  H   UNL     1      -2.348   2.154  -3.276  0.00  0.00    +0.210 HD
ENDBRANCH  14  15
ENDBRANCH  12  14
ENDBRANCH   9  12
ENDBRANCH   8   9
ENDBRANCH   1   8
BRANCH   6  17
ATOM     17  O   UNL     1      -0.016   1.355   0.009  0.00  0.00    -0.483 OA
BRANCH  17  18
ATOM     18  C   UNL     1       1.248   2.021   0.001  0.00  0.00    +0.324 C 
BRANCH  18  19
ATOM     19  C   UNL     1       1.030   3.512   0.011  0.00  0.00    +0.251 C 
ATOM     20  O   UNL     1      -0.097   3.960   0.024  0.00  0.00    -0.272 OA
ATOM     21  N   UNL     1       2.088   4.348   0.005  0.00  0.00    -0.308 N 
ATOM     22  H   UNL     1       3.110   3.941  -0.006  0.00  0.00    +0.149 HD
BRANCH  21  23
ATOM     23  C   UNL     1       1.876   5.797   0.015  0.00  0.00    +0.026 C 
ATOM     24  C   UNL     1       1.101   6.191   1.274  0.00  0.00    +0.031 C 
ATOM     25  C   UNL     1       3.230   6.510   0.006  0.00  0.00    +0.031 C 
ATOM     26  C   UNL     1       1.077   6.204  -1.224  0.00  0.00    +0.031 C 
ENDBRANCH  21  23
ENDBRANCH  18  19
ENDBRANCH  17  18
ENDBRANCH   6  17
TORSDOF 9
