REMARK  Name = ZINC55064372
REMARK  8 active torsions:
REMARK  status: ('A' for Active; 'I' for Inactive)
REMARK    1  A    between atoms: C_1  and  C_2
REMARK    2  A    between atoms: C_2  and  C_3
REMARK    3  A    between atoms: C_3  and  C_5
REMARK    4  A    between atoms: C_3  and  N_6
REMARK    5  A    between atoms: N_9  and  C_12
REMARK    6  A    between atoms: C_12  and  C_14
REMARK    7  A    between atoms: C_12  and  C_16
REMARK    8  A    between atoms: C_14  and  N_15
REMARK                            x       y       z     vdW  Elec       q    Type
REMARK                         _______ _______ _______ _____ _____    ______ ____
ROOT
ATOM      1  C   UNL     1      -4.865   0.938   4.290  0.00  0.00    +0.105 C 
ENDROOT
BRANCH   1   5
ATOM      2  N   UNL     1      -2.175  -0.822   1.546  0.00  0.00    +0.383 N 
ATOM      3  C   UNL     1      -2.257   0.644   1.588  0.00  0.00    -0.063 C 
ATOM      4  C   UNL     1      -2.875   1.082   2.918  0.00  0.00    +0.066 C 
ATOM      5  N   UNL     1      -4.216   0.494   3.050  0.00  0.00    -0.298 NA
ATOM      6  C   UNL     1      -4.151  -0.973   2.984  0.00  0.00    +0.066 C 
ATOM      7  C   UNL     1      -3.523  -1.393   1.653  0.00  0.00    -0.063 C 
ATOM      8  H   UNL     1      -1.609  -1.149   2.314  0.00  0.00    -0.081 HD
BRANCH   2   9
ATOM      9  C   UNL     1      -1.565  -1.241   0.276  0.00  0.00    -0.072 C 
ATOM     10  C   UNL     1      -2.499  -0.880  -0.881  0.00  0.00    -0.013 C 
BRANCH   9  12
ATOM     11  C   UNL     1      -0.320  -3.102   1.385  0.00  0.00    +0.002 C 
ATOM     12  C   UNL     1      -1.336  -2.753   0.295  0.00  0.00    -0.019 C 
ENDBRANCH   9  12
ENDBRANCH   2   9
ENDBRANCH   1   5
BRANCH   1  13
ATOM     13  C   UNL     1      -4.955   2.442   4.301  0.00  0.00    +0.123 A 
ATOM     14  C   UNL     1      -4.745   3.235   5.367  0.00  0.00    +0.062 A 
ATOM     15  C   UNL     1      -4.932   4.567   4.930  0.00  0.00    +0.070 A 
ATOM     16  C   UNL     1      -5.245   4.508   3.622  0.00  0.00    +0.184 A 
ATOM     17  O   UNL     1      -5.252   3.218   3.245  0.00  0.00    -0.450 OA
ATOM     18 BR   UNL     1      -5.605   5.989   2.503  0.00  0.00    -0.007 Br
ATOM     19 BR   UNL     1      -4.773   6.130   5.982  0.00  0.00    -0.046 Br
ENDBRANCH   1  13
BRANCH   1  20
ATOM     20  C   UNL     1      -6.273   0.342   4.370  0.00  0.00    -0.059 C 
BRANCH  20  21
ATOM     21  N   UNL     1      -7.015   0.676   3.147  0.00  0.00    +0.379 N 
ATOM     22  H   UNL     1      -7.951   0.303   3.209  0.00  0.00    -0.090 HD
ATOM     23  H   UNL     1      -7.059   1.679   3.043  0.00  0.00    -0.090 HD
ATOM     24  H   UNL     1      -6.546   0.275   2.349  0.00  0.00    -0.090 HD
ENDBRANCH  20  21
ENDBRANCH   1  20
TORSDOF 6
