REMARK  Name = ZINC40150069
REMARK  6 active torsions:
REMARK  status: ('A' for Active; 'I' for Inactive)
REMARK    1  A    between atoms: C_6  and  N_7
REMARK    2  A    between atoms: N_10  and  C_11
REMARK    3  A    between atoms: C_11  and  C_12
REMARK    4  A    between atoms: C_23  and  C_25
REMARK    5  A    between atoms: C_25  and  C_26
REMARK    6  A    between atoms: C_26  and  O_27
REMARK                            x       y       z     vdW  Elec       q    Type
REMARK                         _______ _______ _______ _____ _____    ______ ____
ROOT
ATOM      1  C   UNL     1      -3.735  -4.696  -0.792  0.00  0.00    -0.014 A 
ATOM      2  C   UNL     1      -4.383  -4.937   0.412  0.00  0.00    +0.010 A 
ATOM      3  C   UNL     1      -5.681  -5.413   0.380  0.00  0.00    +0.042 A 
ATOM      4  C   UNL     1      -6.290  -5.634  -0.852  0.00  0.00    +0.099 A 
ATOM      5  N   UNL     1      -5.639  -5.392  -1.978  0.00  0.00    -0.349 N 
ATOM      6  C   UNL     1      -4.402  -4.932  -1.978  0.00  0.00    +0.089 A 
ATOM      7  N   UNL     1      -7.594  -6.112  -0.899  0.00  0.00    -0.314 N 
ATOM      8  C   UNL     1      -8.727  -5.187  -1.033  0.00  0.00    +0.107 C 
ATOM      9  C   UNL     1      -9.581  -5.622  -2.228  0.00  0.00    +0.019 C 
ATOM     10  C   UNL     1      -9.985  -7.088  -2.055  0.00  0.00    +0.003 C 
ATOM     11  C   UNL     1      -8.729  -7.963  -2.014  0.00  0.00    +0.022 C 
ATOM     12  C   UNL     1      -7.865  -7.554  -0.822  0.00  0.00    +0.077 C 
ATOM     13  H   UNL     1      -6.083  -5.553  -2.825  0.00  0.00    +0.167 HD
ENDROOT
BRANCH   1  14
ATOM     14  C   UNL     1      -2.320  -4.177  -0.805  0.00  0.00    +0.142 C 
BRANCH  14  18
ATOM     15  N   UNL     1      -1.194  -0.677  -0.803  0.00  0.00    -0.269 N 
ATOM     16  C   UNL     1      -1.178  -2.025  -0.808  0.00  0.00    +0.304 C 
ATOM     17  O   UNL     1      -0.118  -2.620  -0.822  0.00  0.00    -0.252 OA
ATOM     18  N   UNL     1      -2.337  -2.712  -0.799  0.00  0.00    -0.295 N 
ATOM     19  H   UNL     1      -2.036  -0.202  -0.718  0.00  0.00    +0.156 HD
ATOM     20  H   UNL     1      -3.183  -2.237  -0.789  0.00  0.00    +0.151 HD
BRANCH  15  26
ATOM     21  C   UNL     1       1.088  -0.525  -1.581  0.00  0.00    +0.026 A 
ATOM     22  C   UNL     1       2.269   0.181  -1.696  0.00  0.00    +0.040 A 
ATOM     23  C   UNL     1       2.373   1.451  -1.153  0.00  0.00    +0.124 A 
ATOM     24  C   UNL     1       1.294   2.014  -0.493  0.00  0.00    +0.040 A 
ATOM     25  C   UNL     1       0.111   1.310  -0.376  0.00  0.00    +0.026 A 
ATOM     26  C   UNL     1       0.005   0.038  -0.920  0.00  0.00    +0.035 A 
ATOM     27  F   UNL     1       3.529   2.141  -1.266  0.00  0.00    -0.205 F 
ENDBRANCH  15  26
ENDBRANCH  14  18
ENDBRANCH   1  14
BRANCH  12  28
ATOM     28  C   UNL     1      -6.546  -8.327  -0.860  0.00  0.00    +0.050 C 
BRANCH  28  29
ATOM     29  C   UNL     1      -6.821  -9.818  -0.653  0.00  0.00    +0.157 C 
BRANCH  29  30
ATOM     30  O   UNL     1      -5.582 -10.525  -0.570  0.00  0.00    -0.395 OA
ATOM     31  H   UNL     1      -5.681 -11.478  -0.439  0.00  0.00    +0.209 HD
ENDBRANCH  29  30
ENDBRANCH  28  29
ENDBRANCH  12  28
TORSDOF 6
