REMARK  Name = ZINC58311707
REMARK  3 active torsions:
REMARK  status: ('A' for Active; 'I' for Inactive)
REMARK    1  A    between atoms: C_1  and  C_2
REMARK    2  A    between atoms: C_9  and  C_11
REMARK    3  A    between atoms: C_15  and  N_17
REMARK                            x       y       z     vdW  Elec       q    Type
REMARK                         _______ _______ _______ _____ _____    ______ ____
ROOT
ATOM      1  C   UNL     1       0.075  -4.309   1.806  0.00  0.00    +0.039 A 
ATOM      2  C   UNL     1       1.039  -4.860   0.960  0.00  0.00    +0.013 A 
ATOM      3  C   UNL     1       1.448  -6.166   1.138  0.00  0.00    +0.003 A 
ATOM      4  C   UNL     1       0.907  -6.932   2.154  0.00  0.00    +0.025 A 
ATOM      5  C   UNL     1      -0.053  -6.393   3.002  0.00  0.00    +0.057 A 
ATOM      6  C   UNL     1      -0.467  -5.080   2.834  0.00  0.00    +0.038 A 
ENDROOT
BRANCH   5   7
ATOM      7  N   UNL     1      -0.598  -7.172   4.028  0.00  0.00    -0.188 N 
ATOM      8  C   UNL     1      -0.684  -6.670   5.277  0.00  0.00    +0.240 C 
ATOM      9  O   UNL     1      -0.250  -5.566   5.530  0.00  0.00    -0.273 OA
ATOM     10  C   UNL     1      -1.334  -7.512   6.360  0.00  0.00    +0.093 C 
ATOM     11  C   UNL     1      -0.292  -8.536   6.827  0.00  0.00    +0.040 C 
ATOM     12  C   UNL     1      -0.938  -9.661   7.574  0.00  0.00    -0.030 C 
ATOM     13  C   UNL     1      -2.199  -9.942   7.523  0.00  0.00    -0.030 C 
ATOM     14  C   UNL     1      -3.194  -9.159   6.719  0.00  0.00    +0.040 C 
ATOM     15  C   UNL     1      -2.514  -8.247   5.711  0.00  0.00    +0.092 C 
ATOM     16  C   UNL     1      -2.014  -9.022   4.524  0.00  0.00    +0.234 C 
ATOM     17  O   UNL     1      -2.465 -10.118   4.264  0.00  0.00    -0.274 OA
ATOM     18  N   UNL     1      -1.056  -8.468   3.749  0.00  0.00    -0.227 N 
ATOM     19  H   UNL     1      -0.685  -8.967   3.005  0.00  0.00    +0.173 HD
ENDBRANCH   5   7
BRANCH   1  27
ATOM     20  C   UNL     1      -3.154   0.190  -0.797  0.00  0.00    +0.009 C 
ATOM     21  C   UNL     1      -2.651  -1.218  -0.474  0.00  0.00    +0.003 C 
ATOM     22  C   UNL     1      -2.512  -2.020  -1.770  0.00  0.00    +0.006 C 
ATOM     23  C   UNL     1      -2.040  -3.439  -1.445  0.00  0.00    +0.019 C 
ATOM     24  C   UNL     1      -0.668  -3.374  -0.768  0.00  0.00    +0.108 C 
ATOM     25  N   UNL     1      -0.758  -2.486   0.399  0.00  0.00    -0.297 N 
ATOM     26  C   UNL     1      -1.286  -1.127   0.215  0.00  0.00    +0.111 C 
ATOM     27  C   UNL     1      -0.365  -2.910   1.617  0.00  0.00    +0.247 C 
ATOM     28  O   UNL     1      -0.373  -2.143   2.559  0.00  0.00    -0.270 OA
ENDBRANCH   1  27
TORSDOF 2
