REMARK  Name = ZINC29471974
REMARK  11 active torsions:
REMARK  status: ('A' for Active; 'I' for Inactive)
REMARK    1  A    between atoms: C_1  and  C_2
REMARK    2  A    between atoms: C_2  and  C_3
REMARK    3  A    between atoms: C_3  and  C_5
REMARK    4  A    between atoms: C_3  and  N_6
REMARK    5  A    between atoms: C_7  and  S_9
REMARK    6  A    between atoms: S_9  and  C_10
REMARK    7  A    between atoms: C_10  and  C_11
REMARK    8  A    between atoms: N_13  and  C_14
REMARK    9  A    between atoms: N_13  and  C_15
REMARK   10  A    between atoms: C_15  and  C_16
REMARK   11  A    between atoms: N_18  and  C_19
REMARK                            x       y       z     vdW  Elec       q    Type
REMARK                         _______ _______ _______ _____ _____    ______ ____
ROOT
ATOM      1  C   UNL     1       0.196   0.927  -7.646  0.00  0.00    +0.226 C 
ATOM      2  O   UNL     1      -0.999   1.132  -7.665  0.00  0.00    -0.275 OA
ATOM      3  N   UNL     1       0.919   1.046  -8.777  0.00  0.00    -0.295 N 
ATOM      4  C   UNL     1       2.363   0.798  -8.754  0.00  0.00    +0.132 C 
ENDROOT
BRANCH   1   5
ATOM      5  C   UNL     1       0.873   0.539  -6.357  0.00  0.00    +0.173 C 
BRANCH   5   6
ATOM      6  S   UNL     1      -0.358   0.463  -5.026  0.00  0.00    -0.084 S 
BRANCH   6   8
ATOM      7  N   UNL     1      -0.016  -0.142  -2.453  0.00  0.00    -0.366 N 
ATOM      8  C   UNL     1       0.578   0.003  -3.606  0.00  0.00    +0.126 C 
ATOM      9  N   UNL     1       1.934  -0.203  -3.712  0.00  0.00    -0.339 N 
ATOM     10  H   UNL     1       2.449  -0.456  -2.930  0.00  0.00    +0.144 HD
ATOM     11  H   UNL     1       2.375  -0.095  -4.569  0.00  0.00    +0.144 HD
ATOM     12  H   UNL     1      -0.972   0.003  -2.378  0.00  0.00    +0.162 HD
BRANCH   7  13
ATOM     13  C   UNL     1       0.762  -0.524  -1.272  0.00  0.00    +0.078 C 
ATOM     14  C   UNL     1       0.904  -2.047  -1.226  0.00  0.00    +0.030 C 
BRANCH  13  16
ATOM     15  C   UNL     1       0.013   1.490   0.003  0.00  0.00    +0.006 C 
ATOM     16  C   UNL     1       0.044  -0.040  -0.011  0.00  0.00    +0.021 C 
ENDBRANCH  13  16
ENDBRANCH   7  13
ENDBRANCH   6   8
ENDBRANCH   5   6
ENDBRANCH   1   5
BRANCH   3  17
ATOM     17  C   UNL     1       0.261   1.423 -10.031  0.00  0.00    +0.203 C 
BRANCH  17  18
ATOM     18  C   UNL     1       0.267   2.924 -10.169  0.00  0.00    +0.235 C 
ATOM     19  O   UNL     1       0.770   3.611  -9.305  0.00  0.00    -0.274 OA
ATOM     20  N   UNL     1      -0.288   3.503 -11.252  0.00  0.00    -0.283 N 
ATOM     21  H   UNL     1      -0.633   2.953 -11.973  0.00  0.00    +0.155 HD
BRANCH  20  22
ATOM     22  C   UNL     1      -0.368   4.898 -11.336  0.00  0.00    +0.052 A 
ATOM     23  C   UNL     1       0.642   5.686 -10.801  0.00  0.00    +0.025 A 
ATOM     24  C   UNL     1       0.562   7.062 -10.886  0.00  0.00    +0.002 A 
ATOM     25  C   UNL     1      -0.524   7.656 -11.504  0.00  0.00    +0.002 A 
ATOM     26  C   UNL     1      -1.532   6.875 -12.038  0.00  0.00    +0.022 A 
ATOM     27  C   UNL     1      -1.454   5.497 -11.961  0.00  0.00    +0.062 A 
ATOM     28 CL   UNL     1      -2.717   4.517 -12.639  0.00  0.00    -0.082 Cl
ENDBRANCH  20  22
ENDBRANCH  17  18
ENDBRANCH   3  17
TORSDOF 8
