REMARK  Name = ZINC59435032
REMARK  8 active torsions:
REMARK  status: ('A' for Active; 'I' for Inactive)
REMARK    1  A    between atoms: C_1  and  O_2
REMARK    2  A    between atoms: O_2  and  C_3
REMARK    3  A    between atoms: C_6  and  C_9
REMARK    4  A    between atoms: C_17  and  S_27
REMARK    5  A    between atoms: C_20  and  C_21
REMARK    6  A    between atoms: S_27  and  C_28
REMARK    7  A    between atoms: C_28  and  C_29
REMARK    8  A    between atoms: C_29  and  N_30
REMARK                            x       y       z     vdW  Elec       q    Type
REMARK                         _______ _______ _______ _____ _____    ______ ____
ROOT
ATOM      1  C   UNL     1       2.587  -2.550   4.310  0.00  0.00    +0.055 C 
ATOM      2  C   UNL     1       1.539  -3.299   5.135  0.00  0.00    +0.027 C 
ATOM      3  C   UNL     1       0.476  -2.283   5.566  0.00  0.00    +0.006 C 
ATOM      4  C   UNL     1      -0.648  -2.978   6.330  0.00  0.00    +0.000 C 
ATOM      5  C   UNL     1      -1.305  -4.009   5.407  0.00  0.00    +0.002 C 
ATOM      6  C   UNL     1      -0.260  -5.051   5.014  0.00  0.00    +0.029 C 
ATOM      7  C   UNL     1       0.917  -4.406   4.271  0.00  0.00    +0.070 C 
ATOM      8  S   UNL     1       2.200  -5.674   4.000  0.00  0.00    -0.115 S 
ATOM      9  C   UNL     1       3.629  -4.725   3.606  0.00  0.00    +0.046 C 
ATOM     10  C   UNL     1       3.660  -3.425   3.770  0.00  0.00    -0.026 C 
ENDROOT
BRANCH   1  14
ATOM     11  C   UNL     1       0.626  -0.618   1.042  0.00  0.00    +0.120 A 
ATOM     12  C   UNL     1       0.424  -0.167   2.338  0.00  0.00    +0.046 A 
ATOM     13  C   UNL     1       1.059  -0.793   3.393  0.00  0.00    +0.008 A 
ATOM     14  C   UNL     1       1.895  -1.869   3.158  0.00  0.00    -0.039 A 
ATOM     15  C   UNL     1       2.098  -2.321   1.867  0.00  0.00    +0.008 A 
ATOM     16  C   UNL     1       1.461  -1.701   0.809  0.00  0.00    +0.046 A 
BRANCH  11  18
ATOM     17  C   UNL     1      -0.843   1.105   0.316  0.00  0.00    +0.277 C 
ATOM     18  O   UNL     1       0.002  -0.004   0.002  0.00  0.00    -0.495 OA
ENDBRANCH  11  18
ENDBRANCH   1  14
BRANCH  10  19
ATOM     19  C   UNL     1       4.930  -2.765   3.415  0.00  0.00    -0.021 A 
ATOM     20  C   UNL     1       5.717  -2.178   4.409  0.00  0.00    +0.008 A 
ATOM     21  C   UNL     1       6.905  -1.564   4.071  0.00  0.00    +0.001 A 
ATOM     22  C   UNL     1       7.317  -1.527   2.751  0.00  0.00    +0.000 A 
ATOM     23  C   UNL     1       6.543  -2.106   1.761  0.00  0.00    +0.001 A 
ATOM     24  C   UNL     1       5.356  -2.729   2.085  0.00  0.00    +0.008 A 
ENDBRANCH  10  19
BRANCH   7  25
ATOM     25  S   UNL     1       0.336  -3.721   2.695  0.00  0.00    -0.144 S 
BRANCH  25  26
ATOM     26  C   UNL     1      -0.216  -5.175   1.762  0.00  0.00    +0.051 C 
BRANCH  26  27
ATOM     27  C   UNL     1      -0.738  -4.734   0.393  0.00  0.00    -0.076 C 
BRANCH  27  28
ATOM     28  N   UNL     1      -1.186  -5.911  -0.363  0.00  0.00    +0.379 N 
ATOM     29  H   UNL     1      -0.411  -6.546  -0.487  0.00  0.00    -0.090 HD
ATOM     30  H   UNL     1      -1.924  -6.376   0.144  0.00  0.00    -0.090 HD
ATOM     31  H   UNL     1      -1.530  -5.620  -1.266  0.00  0.00    -0.090 HD
ENDBRANCH  27  28
ENDBRANCH  26  27
ENDBRANCH  25  26
ENDBRANCH   7  25
TORSDOF 7
