REMARK  Name = ZINC35495344
REMARK  14 active torsions:
REMARK  status: ('A' for Active; 'I' for Inactive)
REMARK    1  A    between atoms: C_1  and  C_2
REMARK    2  A    between atoms: C_3  and  C_28
REMARK    3  A    between atoms: C_4  and  C_13
REMARK    4  A    between atoms: C_17  and  N_19
REMARK    5  A    between atoms: C_20  and  C_22
REMARK    6  A    between atoms: C_22  and  C_23
REMARK    7  A    between atoms: C_23  and  C_24
REMARK    8  A    between atoms: C_24  and  C_25
REMARK    9  A    between atoms: C_25  and  C_26
REMARK   10  A    between atoms: C_26  and  N_27
REMARK   11  A    between atoms: C_28  and  O_30
REMARK   12  A    between atoms: O_30  and  C_31
REMARK   13  A    between atoms: C_31  and  C_32
REMARK   14  A    between atoms: C_31  and  C_33
REMARK                            x       y       z     vdW  Elec       q    Type
REMARK                         _______ _______ _______ _____ _____    ______ ____
ROOT
ATOM      1  C   UNL     1      -1.292  -2.506   1.553  0.00  0.00    -0.021 A 
ATOM      2  C   UNL     1      -0.148  -2.655   2.315  0.00  0.00    +0.006 A 
ATOM      3  C   UNL     1      -0.219  -3.231   3.570  0.00  0.00    +0.002 A 
ATOM      4  C   UNL     1      -1.435  -3.661   4.065  0.00  0.00    +0.023 A 
ATOM      5  C   UNL     1      -2.586  -3.513   3.302  0.00  0.00    +0.034 A 
ATOM      6  C   UNL     1      -2.511  -2.929   2.045  0.00  0.00    +0.029 A 
ENDROOT
BRANCH   1  10
ATOM      7  C   UNL     1       0.137   1.736   0.551  0.00  0.00    +0.066 C 
ATOM      8  C   UNL     1       0.068   0.244   0.351  0.00  0.00    +0.053 C 
ATOM      9  C   UNL     1      -1.146  -0.375   0.323  0.00  0.00    +0.082 C 
ATOM     10  C   UNL     1      -1.209  -1.876   0.186  0.00  0.00    +0.145 C 
ATOM     11  N   UNL     1       0.011  -2.338  -0.503  0.00  0.00    -0.298 N 
ATOM     12  C   UNL     1      -0.114  -3.395  -1.490  0.00  0.00    +0.109 C 
ATOM     13  C   UNL     1       1.056  -4.340  -1.611  0.00  0.00    +0.030 C 
ATOM     14  C   UNL     1       2.363  -3.596  -1.895  0.00  0.00    +0.079 C 
ATOM     15  S   UNL     1       2.720  -2.553  -0.444  0.00  0.00    -0.090 S 
ATOM     16  C   UNL     1       1.187  -1.704  -0.218  0.00  0.00    +0.157 C 
ATOM     17  N   UNL     1       1.193  -0.450   0.199  0.00  0.00    -0.230 NA
BRANCH   9  18
ATOM     18  C   UNL     1      -2.327   0.378   0.421  0.00  0.00    +0.339 C 
ATOM     19  O   UNL     1      -2.270   1.589   0.532  0.00  0.00    -0.245 OA
BRANCH  18  20
ATOM     20  O   UNL     1      -3.527  -0.242   0.392  0.00  0.00    -0.459 OA
BRANCH  20  21
ATOM     21  C   UNL     1      -4.687   0.586   0.497  0.00  0.00    +0.171 C 
ATOM     22  C   UNL     1      -5.136   1.014  -0.902  0.00  0.00    +0.052 C 
ATOM     23  C   UNL     1      -5.813  -0.197   1.176  0.00  0.00    +0.052 C 
ENDBRANCH  20  21
ENDBRANCH  18  20
ENDBRANCH   9  18
ENDBRANCH   1  10
BRANCH   5  24
ATOM     24  N   UNL     1      -3.818  -3.948   3.801  0.00  0.00    -0.285 N 
ATOM     25  C   UNL     1      -4.074  -3.876   5.122  0.00  0.00    +0.217 C 
ATOM     26  O   UNL     1      -3.276  -3.347   5.867  0.00  0.00    -0.275 OA
ATOM     27  H   UNL     1      -4.489  -4.302   3.196  0.00  0.00    +0.155 HD
BRANCH  25  28
ATOM     28  C   UNL     1      -5.352  -4.452   5.675  0.00  0.00    +0.096 C 
BRANCH  28  29
ATOM     29  C   UNL     1      -5.394  -4.239   7.190  0.00  0.00    +0.009 C 
BRANCH  29  30
ATOM     30  C   UNL     1      -6.691  -4.824   7.751  0.00  0.00    -0.001 C 
BRANCH  30  31
ATOM     31  C   UNL     1      -6.734  -4.611   9.266  0.00  0.00    -0.020 C 
BRANCH  31  32
ATOM     32  C   UNL     1      -8.031  -5.197   9.827  0.00  0.00    -0.086 C 
BRANCH  32  33
ATOM     33  N   UNL     1      -8.072  -4.992  11.281  0.00  0.00    +0.378 N 
ATOM     34  H   UNL     1      -7.282  -5.454  11.708  0.00  0.00    -0.090 HD
ATOM     35  H   UNL     1      -8.033  -4.004  11.483  0.00  0.00    -0.090 HD
ATOM     36  H   UNL     1      -8.927  -5.378  11.652  0.00  0.00    -0.090 HD
ENDBRANCH  32  33
ENDBRANCH  31  32
ENDBRANCH  30  31
ENDBRANCH  29  30
ENDBRANCH  28  29
ENDBRANCH  25  28
ENDBRANCH   5  24
TORSDOF 11
