REMARK  Name = ZINC43020065
REMARK  8 active torsions:
REMARK  status: ('A' for Active; 'I' for Inactive)
REMARK    1  A    between atoms: C_1  and  C_2
REMARK    2  A    between atoms: C_2  and  C_4
REMARK    3  A    between atoms: C_2  and  N_23
REMARK    4  A    between atoms: C_4  and  C_6
REMARK    5  A    between atoms: C_4  and  N_13
REMARK    6  A    between atoms: C_18  and  C_20
REMARK    7  A    between atoms: C_20  and  C_21
REMARK    8  A    between atoms: C_21  and  O_22
REMARK                            x       y       z     vdW  Elec       q    Type
REMARK                         _______ _______ _______ _____ _____    ______ ____
ROOT
ATOM      1  C   UNL     1       0.475  -0.568   1.229  0.00  0.00    +0.072 C 
ENDROOT
BRANCH   1   2
ATOM      2  C   UNL     1      -0.904  -0.212   0.736  0.00  0.00    -0.031 A 
ATOM      3  C   UNL     1      -1.509  -0.982  -0.240  0.00  0.00    +0.005 A 
ATOM      4  C   UNL     1      -2.774  -0.656  -0.693  0.00  0.00    +0.001 A 
ATOM      5  C   UNL     1      -3.434   0.440  -0.170  0.00  0.00    +0.015 A 
ATOM      6  C   UNL     1      -2.829   1.210   0.806  0.00  0.00    +0.018 A 
ATOM      7  C   UNL     1      -1.565   0.881   1.263  0.00  0.00    +0.020 A 
ATOM      8 BR   UNL     1      -3.731   2.711   1.522  0.00  0.00    -0.050 Br
ENDBRANCH   1   2
BRANCH   1   9
ATOM      9  N   UNL     1       0.754  -1.978   0.926  0.00  0.00    -0.294 NA
ATOM     10  C   UNL     1       1.264  -2.132  -0.442  0.00  0.00    +0.085 C 
ATOM     11  C   UNL     1       1.405  -3.620  -0.771  0.00  0.00    +0.015 C 
ATOM     12  C   UNL     1       2.367  -4.270   0.228  0.00  0.00    +0.003 C 
ATOM     13  C   UNL     1       1.837  -4.054   1.648  0.00  0.00    +0.019 C 
ATOM     14  C   UNL     1       1.683  -2.553   1.907  0.00  0.00    +0.059 C 
BRANCH  14  15
ATOM     15  C   UNL     1       1.135  -2.333   3.318  0.00  0.00    +0.046 C 
BRANCH  15  16
ATOM     16  C   UNL     1       2.105  -2.929   4.341  0.00  0.00    +0.157 C 
BRANCH  16  17
ATOM     17  O   UNL     1       1.559  -2.788   5.654  0.00  0.00    -0.395 OA
ATOM     18  H   UNL     1       2.154  -3.074   6.360  0.00  0.00    +0.209 HD
ENDBRANCH  16  17
ENDBRANCH  15  16
ENDBRANCH  14  15
ENDBRANCH   1   9
BRANCH   1  20
ATOM     19  C   UNL     1       1.203   1.787   0.825  0.00  0.00    -0.012 C 
ATOM     20  C   UNL     1       1.510   0.317   0.532  0.00  0.00    -0.056 C 
BRANCH  20  21
ATOM     21  N   UNL     1       2.851  -0.011   1.033  0.00  0.00    +0.381 N 
ATOM     22  H   UNL     1       2.849   0.011   2.042  0.00  0.00    -0.090 HD
ATOM     23  H   UNL     1       3.111  -0.934   0.717  0.00  0.00    -0.090 HD
ATOM     24  H   UNL     1       3.515   0.663   0.683  0.00  0.00    -0.090 HD
ENDBRANCH  20  21
ENDBRANCH   1  20
TORSDOF 7
