REMARK  Name = ZINC22199389
REMARK  9 active torsions:
REMARK  status: ('A' for Active; 'I' for Inactive)
REMARK    1  A    between atoms: C_1  and  N_2
REMARK    2  A    between atoms: N_2  and  C_3
REMARK    3  A    between atoms: N_2  and  C_18
REMARK    4  A    between atoms: C_3  and  C_4
REMARK    5  A    between atoms: C_4  and  C_5
REMARK    6  A    between atoms: N_7  and  C_8
REMARK    7  A    between atoms: C_11  and  S_14
REMARK    8  A    between atoms: S_14  and  N_17
REMARK    9  A    between atoms: C_18  and  C_19
REMARK                            x       y       z     vdW  Elec       q    Type
REMARK                         _______ _______ _______ _____ _____    ______ ____
ROOT
ATOM      1  C   UNL     1      -1.132   1.261  -3.576  0.00  0.00    +0.077 C 
ENDROOT
BRANCH   1   2
ATOM      2  C   UNL     1      -0.602   0.609  -4.828  0.00  0.00    +0.215 C 
ATOM      3  O   UNL     1       0.411  -0.056  -4.782  0.00  0.00    -0.276 OA
ATOM      4  N   UNL     1      -1.254   0.766  -5.997  0.00  0.00    -0.286 N 
ATOM      5  H   UNL     1      -2.212   1.305  -6.024  0.00  0.00    +0.155 HD
BRANCH   4   6
ATOM      6  C   UNL     1      -0.711   0.242  -7.176  0.00  0.00    +0.033 A 
ATOM      7  C   UNL     1      -0.879   0.917  -8.378  0.00  0.00    +0.025 A 
ATOM      8  C   UNL     1      -0.336   0.401  -9.539  0.00  0.00    +0.030 A 
ATOM      9  C   UNL     1       0.362  -0.792  -9.507  0.00  0.00    +0.105 A 
ATOM     10  C   UNL     1       0.526  -1.469  -8.312  0.00  0.00    +0.030 A 
ATOM     11  C   UNL     1      -0.009  -0.955  -7.147  0.00  0.00    +0.025 A 
BRANCH   9  12
ATOM     12  S   UNL     1       1.046  -1.450 -10.991  0.00  0.00    +0.056 S 
ATOM     13  O   UNL     1       1.223  -0.354 -11.878  0.00  0.00    -0.153 OA
ATOM     14  O   UNL     1       2.119  -2.297 -10.603  0.00  0.00    -0.153 OA
BRANCH  12  15
ATOM     15  N   UNL     1      -0.106  -2.427 -11.670  0.00  0.00    -0.204 NA
ATOM     16  H   UNL     1       0.284  -2.860 -12.603  0.00  0.00    +0.144 HD
ATOM     17  H   UNL     1      -1.007  -1.835 -11.888  0.00  0.00    +0.144 HD
ENDBRANCH  12  15
ENDBRANCH   9  12
ENDBRANCH   4   6
ENDBRANCH   1   2
BRANCH   1  18
ATOM     18  C   UNL     1      -0.213   0.928  -2.400  0.00  0.00    -0.070 C 
BRANCH  18  20
ATOM     19  C   UNL     1      -0.657   3.028  -1.277  0.00  0.00    -0.096 C 
ATOM     20  N   UNL     1      -0.730   1.564  -1.180  0.00  0.00    +0.381 N 
ATOM     21  H   UNL     1      -1.789   1.284  -1.076  0.00  0.00    -0.082 HD
BRANCH  20  22
ATOM     22  C   UNL     1      -0.016   1.079   0.009  0.00  0.00    -0.043 C 
BRANCH  22  23
ATOM     23  C   UNL     1      -0.725   1.557   1.250  0.00  0.00    -0.063 A 
ATOM     24  C   UNL     1      -0.364   2.776   1.820  0.00  0.00    +0.002 A 
ATOM     25  C   UNL     1      -0.988   3.239   2.938  0.00  0.00    +0.009 A 
ATOM     26  C   UNL     1      -2.004   2.473   3.535  0.00  0.00    -0.018 A 
ATOM     27  C   UNL     1      -2.666   2.916   4.693  0.00  0.00    +0.008 A 
ATOM     28  C   UNL     1      -3.645   2.147   5.243  0.00  0.00    +0.001 A 
ATOM     29  C   UNL     1      -4.003   0.925   4.676  0.00  0.00    +0.001 A 
ATOM     30  C   UNL     1      -3.383   0.465   3.555  0.00  0.00    +0.008 A 
ATOM     31  C   UNL     1      -2.367   1.231   2.958  0.00  0.00    -0.018 A 
ATOM     32  C   UNL     1      -1.704   0.788   1.800  0.00  0.00    +0.010 A 
ENDBRANCH  22  23
ENDBRANCH  20  22
ENDBRANCH  18  20
ENDBRANCH   1  18
TORSDOF 8
