REMARK  Name = ZINC35476908
REMARK  7 active torsions:
REMARK  status: ('A' for Active; 'I' for Inactive)
REMARK    1  A    between atoms: C_1  and  C_2
REMARK    2  A    between atoms: C_3  and  C_30
REMARK    3  A    between atoms: C_5  and  N_21
REMARK    4  A    between atoms: C_6  and  C_7
REMARK    5  A    between atoms: C_7  and  C_9
REMARK    6  A    between atoms: C_7  and  N_14
REMARK    7  A    between atoms: C_22  and  C_24
REMARK                            x       y       z     vdW  Elec       q    Type
REMARK                         _______ _______ _______ _____ _____    ______ ____
ROOT
ATOM      1  C   UNL     1      -0.277   1.568   0.017  0.00  0.00    +0.045 C 
ATOM      2  C   UNL     1      -0.159   0.067  -0.030  0.00  0.00    -0.033 A 
ATOM      3  C   UNL     1      -0.170  -0.587  -1.216  0.00  0.00    -0.008 A 
ATOM      4  S   UNL     1      -0.006  -2.289  -0.706  0.00  0.00    -0.078 S 
ATOM      5  C   UNL     1       0.067  -2.019   1.057  0.00  0.00    +0.078 A 
ATOM      6  C   UNL     1      -0.031  -0.663   1.138  0.00  0.00    +0.009 A 
ATOM      7  C   UNL     1      -0.291  -0.021  -2.608  0.00  0.00    +0.052 C 
ENDROOT
BRANCH   5   8
ATOM      8  N   UNL     1       0.198  -2.955   2.085  0.00  0.00    -0.276 N 
ATOM      9  C   UNL     1       0.168  -4.273   1.805  0.00  0.00    +0.249 C 
ATOM     10  O   UNL     1       0.028  -4.647   0.657  0.00  0.00    -0.270 OA
ATOM     11  H   UNL     1       0.309  -2.656   3.001  0.00  0.00    +0.156 HD
BRANCH   9  12
ATOM     12  C   UNL     1       0.306  -5.263   2.894  0.00  0.00    +0.037 A 
ATOM     13  C   UNL     1       0.462  -4.837   4.214  0.00  0.00    +0.013 A 
ATOM     14  C   UNL     1       0.589  -5.766   5.225  0.00  0.00    +0.001 A 
ATOM     15  C   UNL     1       0.564  -7.119   4.933  0.00  0.00    +0.000 A 
ATOM     16  C   UNL     1       0.411  -7.548   3.627  0.00  0.00    +0.001 A 
ATOM     17  C   UNL     1       0.276  -6.629   2.607  0.00  0.00    +0.013 A 
ENDBRANCH   9  12
ENDBRANCH   5   8
BRANCH   6  18
ATOM     18  C   UNL     1      -0.008   0.029   2.476  0.00  0.00    +0.135 C 
BRANCH  18  19
ATOM     19  N   UNL     1       1.087  -0.510   3.286  0.00  0.00    -0.320 N 
ATOM     20  C   UNL     1       1.650   0.261   4.296  0.00  0.00    +0.097 A 
ATOM     21  C   UNL     1       1.165   1.542   4.537  0.00  0.00    +0.041 A 
ATOM     22  C   UNL     1       1.734   2.299   5.545  0.00  0.00    +0.005 A 
ATOM     23  C   UNL     1       2.774   1.746   6.282  0.00  0.00    +0.018 A 
ATOM     24  C   UNL     1       3.205   0.468   5.989  0.00  0.00    +0.084 A 
ATOM     25  N   UNL     1       2.639  -0.233   5.025  0.00  0.00    -0.350 N 
ATOM     26  H   UNL     1       1.419  -1.406   3.117  0.00  0.00    +0.148 HD
ATOM     27  H   UNL     1       2.959  -1.130   4.842  0.00  0.00    +0.166 HD
ENDBRANCH  18  19
BRANCH  18  28
ATOM     28  C   UNL     1      -1.318  -0.202   3.185  0.00  0.00    -0.016 A 
ATOM     29  C   UNL     1      -2.357   0.699   3.048  0.00  0.00    +0.013 A 
ATOM     30  C   UNL     1      -3.523   0.461   3.699  0.00  0.00    +0.045 A 
ATOM     31  S   UNL     1      -3.170  -1.075   4.538  0.00  0.00    -0.105 S 
ATOM     32  C   UNL     1      -1.496  -1.299   3.961  0.00  0.00    +0.051 A 
ENDBRANCH  18  28
ENDBRANCH   6  18
TORSDOF 5
