REMARK  Name = ZINC67637557
REMARK  11 active torsions:
REMARK  status: ('A' for Active; 'I' for Inactive)
REMARK    1  A    between atoms: C_1  and  C_2
REMARK    2  A    between atoms: C_4  and  C_26
REMARK    3  A    between atoms: C_5  and  C_9
REMARK    4  A    between atoms: C_6  and  C_8
REMARK    5  A    between atoms: C_9  and  N_10
REMARK    6  A    between atoms: N_13  and  C_14
REMARK    7  A    between atoms: C_14  and  C_15
REMARK    8  A    between atoms: C_15  and  C_17
REMARK    9  A    between atoms: C_15  and  O_25
REMARK   10  A    between atoms: C_17  and  N_18
REMARK   11  A    between atoms: C_21  and  C_24
REMARK                            x       y       z     vdW  Elec       q    Type
REMARK                         _______ _______ _______ _____ _____    ______ ____
ROOT
ATOM      1  N   UNL     1       1.471  -4.796   0.627  0.00  0.00    -0.295 N 
ATOM      2  C   UNL     1       1.731  -6.111   0.485  0.00  0.00    +0.300 C 
ATOM      3  O   UNL     1       0.818  -6.913   0.470  0.00  0.00    -0.253 OA
ATOM      4  N   UNL     1       3.004  -6.535   0.359  0.00  0.00    -0.297 N 
ATOM      5  H   UNL     1       2.199  -4.155   0.639  0.00  0.00    +0.151 HD
ATOM      6  H   UNL     1       3.732  -5.895   0.370  0.00  0.00    +0.150 HD
ENDROOT
BRANCH   1   7
ATOM      7  C   UNL     1       0.087  -4.334   0.765  0.00  0.00    +0.141 C 
BRANCH   7  12
ATOM      8  C   UNL     1       0.019   1.418   1.316  0.00  0.00    +0.044 C 
ATOM      9  C   UNL     1       0.037  -0.082   1.172  0.00  0.00    -0.050 A 
ATOM     10  C   UNL     1      -0.034  -0.657  -0.083  0.00  0.00    +0.007 A 
ATOM     11  C   UNL     1      -0.018  -2.033  -0.215  0.00  0.00    -0.045 A 
ATOM     12  C   UNL     1       0.070  -2.834   0.908  0.00  0.00    -0.024 A 
ATOM     13  C   UNL     1       0.142  -2.259   2.163  0.00  0.00    -0.045 A 
ATOM     14  C   UNL     1       0.130  -0.883   2.295  0.00  0.00    +0.007 A 
ATOM     15  C   UNL     1       0.237  -3.132   3.388  0.00  0.00    +0.044 C 
ATOM     16  C   UNL     1      -0.096  -2.660  -1.583  0.00  0.00    +0.044 C 
ENDBRANCH   7  12
ENDBRANCH   1   7
BRANCH   4  17
ATOM     17  C   UNL     1       3.287  -7.964   0.204  0.00  0.00    +0.135 C 
BRANCH  17  18
ATOM     18  C   UNL     1       4.798  -8.175   0.082  0.00  0.00    +0.115 C 
BRANCH  18  19
ATOM     19  O   UNL     1       5.432  -7.794   1.305  0.00  0.00    -0.392 OA
ATOM     20  H   UNL     1       5.135  -8.297   2.075  0.00  0.00    +0.210 HD
ENDBRANCH  18  19
BRANCH  18  21
ATOM     21  C   UNL     1       5.086  -9.650  -0.204  0.00  0.00    -0.046 C 
BRANCH  21  22
ATOM     22  N   UNL     1       6.536  -9.849  -0.334  0.00  0.00    +0.381 N 
ATOM     23  C   UNL     1       6.822 -11.284  -0.455  0.00  0.00    -0.078 C 
ATOM     24  C   UNL     1       8.335 -11.503  -0.508  0.00  0.00    -0.016 C 
ATOM     25  C   UNL     1       8.910 -10.762  -1.719  0.00  0.00    -0.018 C 
ATOM     26  C   UNL     1       8.542  -9.279  -1.620  0.00  0.00    -0.016 C 
ATOM     27  C   UNL     1       7.021  -9.142  -1.525  0.00  0.00    -0.078 C 
ATOM     28  C   UNL     1      10.433 -10.912  -1.735  0.00  0.00    +0.007 C 
ATOM     29  H   UNL     1       6.999  -9.484   0.485  0.00  0.00    -0.082 HD
ENDBRANCH  21  22
ENDBRANCH  18  21
ENDBRANCH  17  18
ENDBRANCH   4  17
TORSDOF 7
