REMARK  Name = ZINC49468126
REMARK  6 active torsions:
REMARK  status: ('A' for Active; 'I' for Inactive)
REMARK    1  A    between atoms: C_1  and  C_2
REMARK    2  A    between atoms: C_2  and  C_3
REMARK    3  A    between atoms: C_2  and  N_4
REMARK    4  A    between atoms: N_7  and  N_8
REMARK    5  A    between atoms: C_9  and  C_11
REMARK    6  A    between atoms: C_11  and  N_12
REMARK                            x       y       z     vdW  Elec       q    Type
REMARK                         _______ _______ _______ _____ _____    ______ ____
ROOT
ATOM      1  N   UNL     1      -3.924  -1.457   0.078  0.00  0.00    -0.235 N 
ATOM      2  C   UNL     1      -5.189  -1.924   0.087  0.00  0.00    +0.213 C 
ATOM      3  O   UNL     1      -5.799  -2.042  -0.954  0.00  0.00    -0.276 OA
ATOM      4  H   UNL     1      -3.436  -1.363   0.910  0.00  0.00    +0.173 HD
ENDROOT
BRANCH   1   8
ATOM      5  N   UNL     1      -1.372  -0.511   0.012  0.00  0.00    -0.296 N 
ATOM      6  C   UNL     1      -2.051  -0.643  -1.145  0.00  0.00    +0.316 C 
ATOM      7  O   UNL     1      -1.522  -0.341  -2.197  0.00  0.00    -0.251 OA
ATOM      8  N   UNL     1      -3.315  -1.109  -1.135  0.00  0.00    -0.218 N 
ATOM      9  H   UNL     1      -1.794  -0.752   0.852  0.00  0.00    +0.151 HD
ATOM     10  H   UNL     1      -3.804  -1.204  -1.968  0.00  0.00    +0.174 HD
BRANCH   5  12
ATOM     11  C   UNL     1      -0.019   1.526   0.010  0.00  0.00    +0.027 C 
ATOM     12  C   UNL     1       0.002  -0.004   0.002  0.00  0.00    +0.068 C 
ATOM     13  C   UNL     1       0.742  -0.511   1.242  0.00  0.00    +0.027 C 
ENDBRANCH   5  12
ENDBRANCH   1   8
BRANCH   2  14
ATOM     14  C   UNL     1      -5.844  -2.298   1.392  0.00  0.00    +0.020 C 
BRANCH  14  15
ATOM     15  N   UNL     1      -7.209  -2.775   1.135  0.00  0.00    +0.388 N 
ATOM     16  C   UNL     1      -7.999  -1.683   0.561  0.00  0.00    -0.055 C 
ATOM     17  C   UNL     1      -9.297  -2.236  -0.036  0.00  0.00    +0.147 C 
ATOM     18  S   UNL     1     -10.281  -2.973   1.305  0.00  0.00    -0.034 S 
ATOM     19  O   UNL     1     -10.636  -1.947   2.223  0.00  0.00    -0.174 OA
ATOM     20  O   UNL     1     -11.305  -3.774   0.729  0.00  0.00    -0.174 OA
ATOM     21  C   UNL     1      -9.061  -4.064   2.099  0.00  0.00    +0.147 C 
ATOM     22  C   UNL     1      -7.797  -3.248   2.389  0.00  0.00    -0.055 C 
ATOM     23  H   UNL     1      -7.175  -3.539   0.476  0.00  0.00    -0.081 HD
ENDBRANCH  14  15
ENDBRANCH   2  14
TORSDOF 4
