REMARK  Name = ZINC63349694
REMARK  6 active torsions:
REMARK  status: ('A' for Active; 'I' for Inactive)
REMARK    1  A    between atoms: C_1  and  O_2
REMARK    2  A    between atoms: O_2  and  C_3
REMARK    3  A    between atoms: C_5  and  C_14
REMARK    4  A    between atoms: C_8  and  O_9
REMARK    5  A    between atoms: O_9  and  C_10
REMARK    6  A    between atoms: C_10  and  C_11
REMARK                            x       y       z     vdW  Elec       q    Type
REMARK                         _______ _______ _______ _____ _____    ______ ____
ROOT
ATOM      1  C   UNL     1      -1.201  -0.638   0.010  0.00  0.00    +0.162 A 
ATOM      2  C   UNL     1      -2.374   0.099   0.019  0.00  0.00    +0.054 A 
ATOM      3  C   UNL     1      -3.596  -0.546   0.027  0.00  0.00    -0.024 A 
ATOM      4  C   UNL     1      -3.652  -1.928   0.026  0.00  0.00    +0.009 A 
ATOM      5  C   UNL     1      -2.485  -2.669   0.017  0.00  0.00    +0.050 A 
ATOM      6  C   UNL     1      -1.257  -2.028   0.003  0.00  0.00    +0.163 A 
ENDROOT
BRANCH   3   7
ATOM      7  C   UNL     1      -4.871   0.257   0.037  0.00  0.00    +0.111 C 
ATOM      8  C   UNL     1      -5.458   0.311  -1.375  0.00  0.00    +0.128 C 
ATOM      9  C   UNL     1      -6.819   0.987  -1.246  0.00  0.00    -0.035 C 
ATOM     10  C   UNL     1      -6.816   2.002  -2.099  0.00  0.00    -0.001 A 
ATOM     11  C   UNL     1      -7.862   2.962  -2.486  0.00  0.00    +0.010 A 
ATOM     12  C   UNL     1      -7.505   3.902  -3.400  0.00  0.00    +0.001 A 
ATOM     13  C   UNL     1      -6.226   3.984  -3.960  0.00  0.00    +0.002 A 
ATOM     14  C   UNL     1      -5.205   3.140  -3.667  0.00  0.00    +0.026 A 
ATOM     15  C   UNL     1      -5.460   2.104  -2.722  0.00  0.00    +0.043 A 
ATOM     16  N   UNL     1      -4.670   1.145  -2.281  0.00  0.00    -0.376 N 
ATOM     17  C   UNL     1      -7.833   0.536  -0.223  0.00  0.00    +0.048 C 
ATOM     18  C   UNL     1      -7.072   0.410   1.110  0.00  0.00    +0.086 C 
ATOM     19  N   UNL     1      -5.855  -0.385   0.924  0.00  0.00    -0.307 NA
ATOM     20  H   UNL     1      -6.077  -1.316   0.604  0.00  0.00    +0.123 HD
ATOM     21  H   UNL     1      -3.736   1.012  -2.506  0.00  0.00    +0.160 HD
ENDBRANCH   3   7
BRANCH   1  23
ATOM     22  C   UNL     1      -0.017   1.425   0.010  0.00  0.00    +0.277 C 
ATOM     23  O   UNL     1       0.002  -0.004   0.002  0.00  0.00    -0.491 OA
ENDBRANCH   1  23
BRANCH   6  24
ATOM     24  O   UNL     1      -0.108  -2.756  -0.012  0.00  0.00    -0.479 OA
BRANCH  24  25
ATOM     25  C   UNL     1      -0.242  -4.179  -0.018  0.00  0.00    +0.324 C 
BRANCH  25  26
ATOM     26  C   UNL     1       1.125  -4.812  -0.034  0.00  0.00    +0.248 C 
ATOM     27  O   UNL     1       2.117  -4.114  -0.040  0.00  0.00    -0.272 OA
ATOM     28  N   UNL     1       1.247  -6.154  -0.043  0.00  0.00    -0.327 N 
ATOM     29  H   UNL     1       0.454  -6.713  -0.038  0.00  0.00    +0.145 HD
ATOM     30  H   UNL     1       2.127  -6.562  -0.053  0.00  0.00    +0.145 HD
ENDBRANCH  25  26
ENDBRANCH  24  25
ENDBRANCH   6  24
TORSDOF 5
