REMARK  Name = ZINC39652870
REMARK  8 active torsions:
REMARK  status: ('A' for Active; 'I' for Inactive)
REMARK    1  A    between atoms: C_1  and  C_2
REMARK    2  A    between atoms: C_2  and  C_3
REMARK    3  A    between atoms: C_3  and  C_5
REMARK    4  A    between atoms: C_3  and  C_6
REMARK    5  A    between atoms: C_10  and  C_19
REMARK    6  A    between atoms: N_21  and  C_22
REMARK    7  A    between atoms: C_22  and  C_23
REMARK    8  A    between atoms: C_23  and  C_24
REMARK                            x       y       z     vdW  Elec       q    Type
REMARK                         _______ _______ _______ _____ _____    ______ ____
ROOT
ATOM      1  C   UNL     1      -1.374  -1.931   0.442  0.00  0.00    +0.218 C 
ATOM      2  O   UNL     1      -0.371  -2.566   0.689  0.00  0.00    -0.275 OA
ATOM      3  N   UNL     1      -2.548  -2.567   0.264  0.00  0.00    -0.300 N 
ATOM      4  C   UNL     1      -3.844  -1.982  -0.154  0.00  0.00    +0.121 C 
ATOM      5  C   UNL     1      -4.454  -3.030  -1.112  0.00  0.00    +0.100 C 
ATOM      6  C   UNL     1      -3.790  -4.359  -0.715  0.00  0.00    -0.004 C 
ATOM      7  C   UNL     1      -2.834  -4.012   0.435  0.00  0.00    +0.115 C 
ATOM      8  C   UNL     1      -4.844  -5.356  -0.245  0.00  0.00    -0.010 C 
ATOM      9  C   UNL     1      -4.167  -6.688   0.089  0.00  0.00    -0.082 C 
ATOM     10  N   UNL     1      -3.476  -7.200  -1.101  0.00  0.00    +0.379 N 
ATOM     11  C   UNL     1      -2.402  -6.279  -1.491  0.00  0.00    -0.082 C 
ATOM     12  C   UNL     1      -3.005  -4.929  -1.892  0.00  0.00    -0.010 C 
ATOM     13  H   UNL     1      -3.082  -8.106  -0.896  0.00  0.00    -0.086 HD
ATOM     14  H   UNL     1      -4.135  -7.287  -1.859  0.00  0.00    -0.086 HD
ENDROOT
BRANCH   5  15
ATOM     15  C   UNL     1      -4.129  -2.685  -2.543  0.00  0.00    +0.218 C 
ATOM     16  O   UNL     1      -3.142  -2.028  -2.799  0.00  0.00    -0.275 OA
ATOM     17  N   UNL     1      -4.935  -3.106  -3.538  0.00  0.00    -0.315 N 
ATOM     18  H   UNL     1      -5.724  -3.632  -3.333  0.00  0.00    +0.149 HD
BRANCH  17  19
ATOM     19  C   UNL     1      -4.619  -2.771  -4.928  0.00  0.00    +0.109 C 
BRANCH  19  20
ATOM     20  C   UNL     1      -5.684  -3.366  -5.851  0.00  0.00    +0.054 C 
BRANCH  20  21
ATOM     21  C   UNL     1      -5.359  -3.022  -7.282  0.00  0.00    -0.046 A 
ATOM     22  C   UNL     1      -5.849  -1.856  -7.840  0.00  0.00    +0.005 A 
ATOM     23  C   UNL     1      -5.550  -1.539  -9.152  0.00  0.00    +0.015 A 
ATOM     24  C   UNL     1      -4.761  -2.388  -9.906  0.00  0.00    +0.018 A 
ATOM     25  C   UNL     1      -4.271  -3.555  -9.347  0.00  0.00    +0.015 A 
ATOM     26  C   UNL     1      -4.565  -3.868  -8.033  0.00  0.00    +0.005 A 
ATOM     27 BR   UNL     1      -4.353  -1.956 -11.701  0.00  0.00    -0.050 Br
ENDBRANCH  20  21
ENDBRANCH  19  20
ENDBRANCH  17  19
ENDBRANCH   5  15
BRANCH   1  28
ATOM     28  C   UNL     1      -1.306  -0.429   0.333  0.00  0.00    +0.072 C 
ATOM     29  C   UNL     1       0.038  -0.021  -0.273  0.00  0.00    +0.017 C 
BRANCH  28  31
ATOM     30  C   UNL     1      -1.504   1.714   1.602  0.00  0.00    +0.004 C 
ATOM     31  C   UNL     1      -1.448   0.190   1.725  0.00  0.00    +0.009 C 
ENDBRANCH  28  31
ENDBRANCH   1  28
TORSDOF 6
