REMARK  Name = ZINC63743588
REMARK  6 active torsions:
REMARK  status: ('A' for Active; 'I' for Inactive)
REMARK    1  A    between atoms: C_1  and  C_2
REMARK    2  A    between atoms: C_2  and  O_3
REMARK    3  A    between atoms: O_3  and  C_4
REMARK    4  A    between atoms: C_9  and  N_10
REMARK    5  A    between atoms: N_13  and  C_14
REMARK    6  A    between atoms: C_18  and  C_20
REMARK                            x       y       z     vdW  Elec       q    Type
REMARK                         _______ _______ _______ _____ _____    ______ ____
ROOT
ATOM      1  C   UNL     1       3.891  -1.556  -6.511  0.00  0.00    +0.035 A 
ATOM      2  C   UNL     1       3.996  -2.930  -6.685  0.00  0.00    +0.023 A 
ATOM      3  C   UNL     1       4.627  -3.436  -7.804  0.00  0.00    +0.002 A 
ATOM      4  C   UNL     1       5.155  -2.577  -8.750  0.00  0.00    +0.006 A 
ATOM      5  C   UNL     1       5.053  -1.209  -8.579  0.00  0.00    -0.020 A 
ATOM      6  C   UNL     1       4.418  -0.696  -7.465  0.00  0.00    +0.029 A 
ENDROOT
BRANCH   5   7
ATOM      7  C   UNL     1       5.630  -0.276  -9.613  0.00  0.00    +0.133 C 
ATOM      8  C   UNL     1       4.715  -0.199 -10.814  0.00  0.00    +0.012 C 
ATOM      9  C   UNL     1       5.438  -0.644 -11.866  0.00  0.00    -0.004 A 
ATOM     10  C   UNL     1       5.124  -0.813 -13.290  0.00  0.00    +0.010 A 
ATOM     11  C   UNL     1       6.077  -1.293 -14.120  0.00  0.00    +0.001 A 
ATOM     12  C   UNL     1       7.355  -1.634 -13.656  0.00  0.00    +0.002 A 
ATOM     13  C   UNL     1       7.719  -1.508 -12.362  0.00  0.00    +0.026 A 
ATOM     14  C   UNL     1       6.795  -1.012 -11.401  0.00  0.00    +0.043 A 
ATOM     15  N   UNL     1       6.907  -0.800 -10.111  0.00  0.00    -0.374 N 
ATOM     16  H   UNL     1       7.699  -0.963  -9.575  0.00  0.00    +0.161 HD
ENDBRANCH   5   7
BRANCH   1  20
ATOM     17  N   UNL     1       2.632  -1.253  -3.138  0.00  0.00    -0.266 N 
ATOM     18  C   UNL     1       3.335  -1.691  -4.201  0.00  0.00    +0.308 C 
ATOM     19  O   UNL     1       4.045  -2.672  -4.098  0.00  0.00    -0.252 OA
ATOM     20  N   UNL     1       3.251  -1.040  -5.378  0.00  0.00    -0.269 N 
ATOM     21  H   UNL     1       2.006  -0.520  -3.239  0.00  0.00    +0.156 HD
ATOM     22  H   UNL     1       2.747  -0.213  -5.440  0.00  0.00    +0.156 HD
BRANCH  17  28
ATOM     23  C   UNL     1       1.831  -1.718  -0.900  0.00  0.00    +0.142 A 
ATOM     24  C   UNL     1       2.006  -2.324   0.333  0.00  0.00    +0.047 A 
ATOM     25  C   UNL     1       3.148  -3.061   0.586  0.00  0.00    +0.004 A 
ATOM     26  C   UNL     1       4.119  -3.196  -0.389  0.00  0.00    +0.002 A 
ATOM     27  C   UNL     1       3.952  -2.594  -1.622  0.00  0.00    +0.027 A 
ATOM     28  C   UNL     1       2.806  -1.859  -1.885  0.00  0.00    +0.077 A 
BRANCH  23  29
ATOM     29  O   UNL     1       0.709  -0.993  -1.151  0.00  0.00    -0.490 OA
BRANCH  29  31
ATOM     30  C   UNL     1      -1.434  -0.045  -0.559  0.00  0.00    +0.048 C 
ATOM     31  C   UNL     1      -0.248  -0.892  -0.094  0.00  0.00    +0.226 C 
ENDBRANCH  29  31
ENDBRANCH  23  29
ENDBRANCH  17  28
ENDBRANCH   1  20
TORSDOF 5
