REMARK  Name = ZINC45356219
REMARK  10 active torsions:
REMARK  status: ('A' for Active; 'I' for Inactive)
REMARK    1  A    between atoms: C_1  and  C_2
REMARK    2  A    between atoms: C_2  and  C_4
REMARK    3  A    between atoms: C_2  and  N_14
REMARK    4  A    between atoms: C_7  and  S_10
REMARK    5  A    between atoms: S_10  and  N_13
REMARK    6  A    between atoms: N_14  and  C_15
REMARK    7  A    between atoms: N_14  and  C_16
REMARK    8  A    between atoms: C_16  and  C_17
REMARK    9  A    between atoms: N_19  and  C_20
REMARK   10  A    between atoms: C_23  and  C_26
REMARK                            x       y       z     vdW  Elec       q    Type
REMARK                         _______ _______ _______ _____ _____    ______ ____
ROOT
ATOM      1  N   UNL     1       0.692  -0.478  -1.205  0.00  0.00    +0.388 N 
ATOM      2  C   UNL     1       2.069   0.034  -1.226  0.00  0.00    -0.095 C 
ATOM      3  H   UNL     1       0.198  -0.146  -2.019  0.00  0.00    -0.081 HD
ENDROOT
BRANCH   1   5
ATOM      4  C   UNL     1      -0.013   1.525   0.015  0.00  0.00    -0.008 C 
ATOM      5  C   UNL     1       0.012  -0.005   0.008  0.00  0.00    -0.041 C 
BRANCH   5   6
ATOM      6  C   UNL     1      -1.401  -0.530   0.029  0.00  0.00    -0.061 A 
ATOM      7  C   UNL     1      -2.138  -0.576  -1.139  0.00  0.00    +0.004 A 
ATOM      8  C   UNL     1      -3.434  -1.058  -1.120  0.00  0.00    +0.029 A 
ATOM      9  C   UNL     1      -3.991  -1.493   0.067  0.00  0.00    +0.105 A 
ATOM     10  C   UNL     1      -3.253  -1.448   1.235  0.00  0.00    +0.029 A 
ATOM     11  C   UNL     1      -1.956  -0.970   1.215  0.00  0.00    +0.004 A 
BRANCH   9  12
ATOM     12  S   UNL     1      -5.643  -2.106   0.092  0.00  0.00    +0.056 S 
ATOM     13  O   UNL     1      -6.117  -1.942   1.422  0.00  0.00    -0.153 OA
ATOM     14  O   UNL     1      -6.305  -1.536  -1.028  0.00  0.00    -0.153 OA
BRANCH  12  15
ATOM     15  N   UNL     1      -5.565  -3.737  -0.184  0.00  0.00    -0.204 NA
ATOM     16  H   UNL     1      -6.235  -4.326   0.196  0.00  0.00    +0.144 HD
ATOM     17  H   UNL     1      -4.849  -4.103  -0.727  0.00  0.00    +0.144 HD
ENDBRANCH  12  15
ENDBRANCH   9  12
ENDBRANCH   5   6
ENDBRANCH   1   5
BRANCH   1  18
ATOM     18  C   UNL     1       0.716  -1.947  -1.212  0.00  0.00    +0.019 C 
BRANCH  18  19
ATOM     19  C   UNL     1       1.303  -2.434  -2.511  0.00  0.00    +0.201 C 
ATOM     20  O   UNL     1       1.666  -1.636  -3.349  0.00  0.00    -0.278 OA
ATOM     21  N   UNL     1       1.424  -3.756  -2.742  0.00  0.00    -0.287 N 
ATOM     22  H   UNL     1       1.197  -4.393  -2.047  0.00  0.00    +0.155 HD
BRANCH  21  23
ATOM     23  C   UNL     1       1.879  -4.210  -3.985  0.00  0.00    +0.033 A 
ATOM     24  C   UNL     1       1.368  -5.383  -4.527  0.00  0.00    +0.024 A 
ATOM     25  C   UNL     1       1.818  -5.829  -5.754  0.00  0.00    +0.014 A 
ATOM     26  C   UNL     1       2.777  -5.109  -6.443  0.00  0.00    +0.055 A 
ATOM     27  C   UNL     1       3.288  -3.942  -5.906  0.00  0.00    +0.014 A 
ATOM     28  C   UNL     1       2.837  -3.487  -4.682  0.00  0.00    +0.024 A 
BRANCH  26  29
ATOM     29  C   UNL     1       3.267  -5.598  -7.782  0.00  0.00    +0.417 C 
ATOM     30  F   UNL     1       2.468  -5.058  -8.796  0.00  0.00    -0.166 F 
ATOM     31  F   UNL     1       4.593  -5.196  -7.969  0.00  0.00    -0.166 F 
ATOM     32  F   UNL     1       3.192  -6.995  -7.823  0.00  0.00    -0.166 F 
ENDBRANCH  26  29
ENDBRANCH  21  23
ENDBRANCH  18  19
ENDBRANCH   1  18
TORSDOF 8
