REMARK  Name = ZINC43619357
REMARK  10 active torsions:
REMARK  status: ('A' for Active; 'I' for Inactive)
REMARK    1  A    between atoms: C_1  and  N_2
REMARK    2  A    between atoms: N_2  and  C_3
REMARK    3  A    between atoms: N_2  and  S_4
REMARK    4  A    between atoms: S_4  and  C_7
REMARK    5  A    between atoms: C_9  and  C_20
REMARK    6  A    between atoms: C_11  and  N_13
REMARK    7  A    between atoms: N_13  and  C_14
REMARK    8  A    between atoms: C_14  and  C_15
REMARK    9  A    between atoms: N_22  and  C_23
REMARK   10  A    between atoms: C_23  and  C_24
REMARK                            x       y       z     vdW  Elec       q    Type
REMARK                         _______ _______ _______ _____ _____    ______ ____
ROOT
ATOM      1  C   UNL     1      -1.884  -1.109  -1.669  0.00  0.00    +0.108 A 
ATOM      2  C   UNL     1      -2.673  -0.179  -2.315  0.00  0.00    +0.041 A 
ATOM      3  C   UNL     1      -3.042  -0.380  -3.646  0.00  0.00    +0.040 A 
ATOM      4  C   UNL     1      -2.610  -1.523  -4.319  0.00  0.00    +0.036 A 
ATOM      5  C   UNL     1      -1.818  -2.452  -3.662  0.00  0.00    +0.030 A 
ATOM      6  C   UNL     1      -1.452  -2.239  -2.337  0.00  0.00    +0.051 A 
ENDROOT
BRANCH   3   7
ATOM      7  C   UNL     1      -3.887   0.615  -4.341  0.00  0.00    +0.244 C 
ATOM      8  O   UNL     1      -4.262   1.610  -3.752  0.00  0.00    -0.270 OA
ATOM      9  N   UNL     1      -4.242   0.418  -5.626  0.00  0.00    -0.311 N 
ATOM     10  H   UNL     1      -3.942  -0.377  -6.096  0.00  0.00    +0.149 HD
BRANCH   9  11
ATOM     11  C   UNL     1      -5.080   1.403  -6.314  0.00  0.00    +0.106 C 
BRANCH  11  12
ATOM     12  C   UNL     1      -5.333   0.943  -7.750  0.00  0.00    -0.008 C 
ATOM     13  C   UNL     1      -4.011   0.924  -8.520  0.00  0.00    +0.002 C 
ATOM     14  C   UNL     1      -4.294   0.522  -9.971  0.00  0.00    -0.018 C 
ATOM     15  C   UNL     1      -5.289   1.514 -10.573  0.00  0.00    -0.078 C 
ATOM     16  N   UNL     1      -6.549   1.490  -9.815  0.00  0.00    +0.382 N 
ATOM     17  C   UNL     1      -6.312   1.907  -8.429  0.00  0.00    -0.064 C 
ATOM     18  C   UNL     1      -7.627   1.883  -7.643  0.00  0.00    -0.015 C 
ATOM     19  C   UNL     1      -8.642   2.819  -8.302  0.00  0.00    -0.003 C 
ATOM     20  C   UNL     1      -8.839   2.382  -9.757  0.00  0.00    -0.019 C 
ATOM     21  C   UNL     1      -7.490   2.412 -10.469  0.00  0.00    -0.078 C 
ATOM     22  H   UNL     1      -6.931   0.556  -9.825  0.00  0.00    -0.081 HD
ENDBRANCH  11  12
ENDBRANCH   9  11
ENDBRANCH   3   7
BRANCH   1  23
ATOM     23  S   UNL     1      -1.421  -0.852   0.011  0.00  0.00    +0.060 S 
ATOM     24  O   UNL     1      -1.127  -2.132   0.552  0.00  0.00    -0.153 OA
ATOM     25  O   UNL     1      -2.401   0.008   0.576  0.00  0.00    -0.153 OA
BRANCH  23  27
ATOM     26  C   UNL     1      -0.018   1.461   0.010  0.00  0.00    +0.131 C 
ATOM     27  N   UNL     1       0.002  -0.004   0.002  0.00  0.00    -0.183 NA
ATOM     28  C   UNL     1       1.281  -0.719  -0.014  0.00  0.00    +0.131 C 
ENDBRANCH  23  27
ENDBRANCH   1  23
BRANCH   5  29
ATOM     29  N   UNL     1      -1.384  -3.599  -4.331  0.00  0.00    -0.340 N 
ATOM     30  H   UNL     1      -0.830  -4.248  -3.871  0.00  0.00    +0.146 HD
BRANCH  29  31
ATOM     31  C   UNL     1      -1.765  -3.820  -5.728  0.00  0.00    +0.140 C 
BRANCH  31  32
ATOM     32  C   UNL     1      -1.173  -5.119  -6.210  0.00  0.00    +0.007 A 
ATOM     33  C   UNL     1       0.092  -5.294  -6.817  0.00  0.00    +0.046 A 
ATOM     34  C   UNL     1       0.217  -6.606  -7.087  0.00  0.00    +0.195 A 
ATOM     35  O   UNL     1      -0.899  -7.231  -6.679  0.00  0.00    -0.471 OA
ATOM     36  C   UNL     1      -1.743  -6.335  -6.141  0.00  0.00    +0.200 A 
ENDBRANCH  31  32
ENDBRANCH  29  31
ENDBRANCH   5  29
TORSDOF 8
