REMARK  Name = ZINC38652126
REMARK  9 active torsions:
REMARK  status: ('A' for Active; 'I' for Inactive)
REMARK    1  A    between atoms: C_1  and  C_2
REMARK    2  A    between atoms: C_2  and  O_3
REMARK    3  A    between atoms: O_3  and  C_4
REMARK    4  A    between atoms: C_7  and  C_11
REMARK    5  A    between atoms: C_11  and  O_13
REMARK    6  A    between atoms: O_13  and  C_14
REMARK    7  A    between atoms: C_21  and  N_34
REMARK    8  A    between atoms: C_22  and  C_32
REMARK    9  A    between atoms: C_23  and  C_25
REMARK                            x       y       z     vdW  Elec       q    Type
REMARK                         _______ _______ _______ _____ _____    ______ ____
ROOT
ATOM      1  C   UNL     1       0.225  -8.028  -2.722  0.00  0.00    +0.135 A 
ATOM      2  C   UNL     1       1.280  -8.758  -2.193  0.00  0.00    +0.047 A 
ATOM      3  C   UNL     1       1.358 -10.118  -2.415  0.00  0.00    +0.012 A 
ATOM      4  C   UNL     1       0.387 -10.759  -3.164  0.00  0.00    +0.008 A 
ATOM      5  C   UNL     1      -0.669 -10.035  -3.695  0.00  0.00    +0.138 A 
ATOM      6  C   UNL     1      -0.752  -8.667  -3.467  0.00  0.00    +0.093 A 
ATOM      7  O   UNL     1      -1.630 -10.645  -4.432  0.00  0.00    -0.441 OA
ATOM      8  C   UNL     1      -1.798 -11.975  -4.345  0.00  0.00    +0.199 C 
ATOM      9  C   UNL     1      -0.830 -12.790  -3.862  0.00  0.00    +0.098 C 
ATOM     10  C   UNL     1       0.490 -12.243  -3.396  0.00  0.00    +0.101 C 
ENDROOT
BRANCH  10  11
ATOM     11  C   UNL     1       1.540 -12.513  -4.443  0.00  0.00    +0.000 A 
ATOM     12  C   UNL     1       1.405 -11.979  -5.711  0.00  0.00    +0.007 A 
ATOM     13  C   UNL     1       2.368 -12.227  -6.671  0.00  0.00    +0.000 A 
ATOM     14  C   UNL     1       3.467 -13.008  -6.365  0.00  0.00    +0.003 A 
ATOM     15  C   UNL     1       3.604 -13.543  -5.098  0.00  0.00    +0.038 A 
ATOM     16  C   UNL     1       2.643 -13.291  -4.134  0.00  0.00    +0.127 A 
ATOM     17  F   UNL     1       2.778 -13.809  -2.893  0.00  0.00    -0.205 F 
ENDBRANCH  10  11
BRANCH   8  18
ATOM     18  N   UNL     1      -2.986 -12.525  -4.758  0.00  0.00    -0.328 N 
ATOM     19  H   UNL     1      -3.689 -11.954  -5.107  0.00  0.00    +0.145 HD
ATOM     20  H   UNL     1      -3.122 -13.483  -4.702  0.00  0.00    +0.145 HD
ENDBRANCH   8  18
BRANCH   9  21
ATOM     21  C   UNL     1      -1.070 -14.200  -3.793  0.00  0.00    +0.101 C 
ATOM     22  N   UNL     1      -1.260 -15.318  -3.739  0.00  0.00    -0.191 NA
ENDBRANCH   9  21
BRANCH   1  23
ATOM     23  O   UNL     1       0.147  -6.689  -2.504  0.00  0.00    -0.422 OA
BRANCH  23  24
ATOM     24  C   UNL     1       0.950  -5.882  -3.226  0.00  0.00    +0.345 C 
ATOM     25  O   UNL     1       1.777  -6.362  -3.977  0.00  0.00    -0.245 OA
BRANCH  24  29
ATOM     26  C   UNL     1       0.593  -1.665  -2.878  0.00  0.00    +0.157 A 
ATOM     27  C   UNL     1       1.540  -2.212  -3.737  0.00  0.00    +0.085 A 
ATOM     28  C   UNL     1       1.659  -3.580  -3.853  0.00  0.00    +0.038 A 
ATOM     29  C   UNL     1       0.827  -4.418  -3.105  0.00  0.00    +0.062 A 
ATOM     30  C   UNL     1      -0.124  -3.864  -2.242  0.00  0.00    +0.038 A 
ATOM     31  C   UNL     1      -0.233  -2.495  -2.128  0.00  0.00    +0.085 A 
ATOM     32 CL   UNL     1      -1.408  -1.806  -1.052  0.00  0.00    -0.080 Cl
ATOM     33 CL   UNL     1       2.573  -1.171  -4.666  0.00  0.00    -0.080 Cl
BRANCH  26  34
ATOM     34  O   UNL     1       0.478  -0.317  -2.768  0.00  0.00    -0.489 OA
BRANCH  34  36
ATOM     35  C   UNL     1       1.019   1.830  -1.799  0.00  0.00    +0.048 C 
ATOM     36  C   UNL     1       1.282   0.323  -1.774  0.00  0.00    +0.226 C 
ENDBRANCH  34  36
ENDBRANCH  26  34
ENDBRANCH  24  29
ENDBRANCH  23  24
ENDBRANCH   1  23
TORSDOF 8
