REMARK  Name = ZINC44179910
REMARK  9 active torsions:
REMARK  status: ('A' for Active; 'I' for Inactive)
REMARK    1  A    between atoms: C_1  and  C_2
REMARK    2  A    between atoms: C_2  and  C_3
REMARK    3  A    between atoms: C_2  and  C_4
REMARK    4  A    between atoms: C_2  and  N_20
REMARK    5  A    between atoms: C_4  and  N_5
REMARK    6  A    between atoms: N_8  and  C_9
REMARK    7  A    between atoms: C_14  and  C_15
REMARK    8  A    between atoms: C_15  and  C_16
REMARK    9  A    between atoms: N_18  and  C_19
REMARK                            x       y       z     vdW  Elec       q    Type
REMARK                         _______ _______ _______ _____ _____    ______ ____
ROOT
ATOM      1  N   UNL     1      -1.533  -2.038  -0.210  0.00  0.00    -0.300 N 
ATOM      2  C   UNL     1      -2.709  -2.673  -0.382  0.00  0.00    +0.304 C 
ATOM      3  O   UNL     1      -3.748  -2.042  -0.367  0.00  0.00    -0.253 OA
ATOM      4  N   UNL     1      -2.733  -4.007  -0.571  0.00  0.00    -0.269 N 
ATOM      5  H   UNL     1      -0.704  -2.541  -0.222  0.00  0.00    +0.150 HD
ATOM      6  H   UNL     1      -1.902  -4.498  -0.666  0.00  0.00    +0.156 HD
ENDROOT
BRANCH   4   7
ATOM      7  C   UNL     1      -3.957  -4.684  -0.629  0.00  0.00    +0.038 A 
ATOM      8  C   UNL     1      -5.078  -4.148  -0.010  0.00  0.00    +0.023 A 
ATOM      9  C   UNL     1      -6.284  -4.817  -0.070  0.00  0.00    +0.002 A 
ATOM     10  C   UNL     1      -6.376  -6.021  -0.746  0.00  0.00    +0.000 A 
ATOM     11  C   UNL     1      -5.261  -6.557  -1.363  0.00  0.00    +0.006 A 
ATOM     12  C   UNL     1      -4.053  -5.889  -1.312  0.00  0.00    -0.017 A 
BRANCH  12  13
ATOM     13  C   UNL     1      -2.840  -6.471  -1.990  0.00  0.00    +0.132 C 
BRANCH  13  14
ATOM     14  C   UNL     1      -2.039  -7.266  -0.991  0.00  0.00    +0.217 C 
ATOM     15  O   UNL     1      -2.417  -7.352   0.158  0.00  0.00    -0.275 OA
ATOM     16  N   UNL     1      -0.904  -7.883  -1.375  0.00  0.00    -0.318 N 
ATOM     17  C   UNL     1      -0.125  -8.656  -0.404  0.00  0.00    +0.128 C 
ATOM     18  H   UNL     1      -0.602  -7.814  -2.294  0.00  0.00    +0.148 HD
ENDBRANCH  13  14
ENDBRANCH  12  13
ENDBRANCH   4   7
BRANCH   1  19
ATOM     19  C   UNL     1      -1.507  -0.587  -0.005  0.00  0.00    +0.093 C 
BRANCH  19  21
ATOM     20  C   UNL     1       0.632  -0.437  -1.287  0.00  0.00    -0.008 C 
ATOM     21  C   UNL     1      -0.056  -0.104   0.038  0.00  0.00    -0.055 C 
ATOM     22  C   UNL     1      -0.028   1.409   0.261  0.00  0.00    -0.008 C 
BRANCH  21  23
ATOM     23  N   UNL     1       0.651  -0.774   1.139  0.00  0.00    +0.384 N 
ATOM     24  C   UNL     1      -0.080  -0.554   2.393  0.00  0.00    -0.078 C 
ATOM     25  C   UNL     1       0.607  -1.317   3.528  0.00  0.00    -0.019 C 
ATOM     26  C   UNL     1       2.045  -0.812   3.678  0.00  0.00    -0.004 C 
ATOM     27  C   UNL     1       2.776  -0.977   2.342  0.00  0.00    -0.019 C 
ATOM     28  C   UNL     1       2.008  -0.227   1.251  0.00  0.00    -0.078 C 
ATOM     29  H   UNL     1       0.703  -1.764   0.951  0.00  0.00    -0.081 HD
ENDBRANCH  21  23
ENDBRANCH  19  21
ENDBRANCH   1  19
TORSDOF 6
