REMARK  Name = ZINC63354676
REMARK  7 active torsions:
REMARK  status: ('A' for Active; 'I' for Inactive)
REMARK    1  A    between atoms: C_1  and  O_2
REMARK    2  A    between atoms: O_2  and  C_3
REMARK    3  A    between atoms: C_6  and  C_23
REMARK    4  A    between atoms: C_8  and  C_9
REMARK    5  A    between atoms: C_9  and  O_10
REMARK    6  A    between atoms: O_10  and  C_11
REMARK    7  A    between atoms: C_16  and  C_17
REMARK                            x       y       z     vdW  Elec       q    Type
REMARK                         _______ _______ _______ _____ _____    ______ ____
ROOT
ATOM      1  C   UNL     1       0.606  -0.607  -1.056  0.00  0.00    +0.126 A 
ATOM      2  C   UNL     1       0.984   0.143  -2.160  0.00  0.00    +0.046 A 
ATOM      3  C   UNL     1       1.598  -0.473  -3.234  0.00  0.00    +0.009 A 
ATOM      4  C   UNL     1       1.836  -1.835  -3.208  0.00  0.00    -0.028 A 
ATOM      5  C   UNL     1       1.459  -2.584  -2.109  0.00  0.00    +0.015 A 
ATOM      6  C   UNL     1       0.850  -1.972  -1.031  0.00  0.00    +0.032 A 
ENDROOT
BRANCH   4   7
ATOM      7  C   UNL     1       2.506  -2.503  -4.381  0.00  0.00    +0.111 C 
ATOM      8  C   UNL     1       1.746  -2.171  -5.667  0.00  0.00    +0.128 C 
ATOM      9  C   UNL     1       1.921  -0.673  -5.891  0.00  0.00    -0.035 C 
ATOM     10  C   UNL     1       0.702  -0.168  -6.018  0.00  0.00    -0.001 A 
ATOM     11  C   UNL     1       0.231   1.191  -6.332  0.00  0.00    +0.010 A 
ATOM     12  C   UNL     1      -1.117   1.364  -6.371  0.00  0.00    +0.001 A 
ATOM     13  C   UNL     1      -2.032   0.334  -6.131  0.00  0.00    +0.002 A 
ATOM     14  C   UNL     1      -1.687  -0.946  -5.841  0.00  0.00    +0.026 A 
ATOM     15  C   UNL     1      -0.297  -1.253  -5.779  0.00  0.00    +0.043 A 
ATOM     16  N   UNL     1       0.307  -2.403  -5.547  0.00  0.00    -0.376 N 
ATOM     17  C   UNL     1       3.281  -0.020  -5.846  0.00  0.00    +0.048 C 
ATOM     18  C   UNL     1       3.967  -0.542  -4.570  0.00  0.00    +0.086 C 
ATOM     19  N   UNL     1       3.884  -2.005  -4.515  0.00  0.00    -0.307 NA
ATOM     20  H   UNL     1       4.474  -2.375  -3.785  0.00  0.00    +0.123 HD
ATOM     21  H   UNL     1      -0.115  -3.249  -5.332  0.00  0.00    +0.160 HD
ENDBRANCH   4   7
BRANCH   1  23
ATOM     22  C   UNL     1      -0.218   1.405  -0.093  0.00  0.00    +0.277 C 
ATOM     23  O   UNL     1       0.002  -0.004   0.002  0.00  0.00    -0.495 OA
ENDBRANCH   1  23
BRANCH   6  24
ATOM     24  C   UNL     1       0.445  -2.789   0.170  0.00  0.00    +0.268 C 
BRANCH  24  25
ATOM     25  O   UNL     1       0.800  -4.157  -0.043  0.00  0.00    -0.487 OA
BRANCH  25  26
ATOM     26  C   UNL     1       0.502  -5.033   0.952  0.00  0.00    +0.124 A 
ATOM     27  C   UNL     1      -0.124  -4.587   2.107  0.00  0.00    +0.046 A 
ATOM     28  C   UNL     1      -0.426  -5.480   3.116  0.00  0.00    +0.004 A 
ATOM     29  C   UNL     1      -0.105  -6.818   2.977  0.00  0.00    +0.001 A 
ATOM     30  C   UNL     1       0.520  -7.265   1.827  0.00  0.00    +0.007 A 
ATOM     31  C   UNL     1       0.819  -6.376   0.812  0.00  0.00    -0.003 A 
BRANCH  31  32
ATOM     32  C   UNL     1       1.494  -6.865  -0.443  0.00  0.00    +0.023 C 
ATOM     33  C   UNL     1       0.609  -7.912  -1.124  0.00  0.00    +0.008 C 
ATOM     34  C   UNL     1       1.295  -8.408  -2.398  0.00  0.00    +0.001 C 
ATOM     35  C   UNL     1       2.643  -9.036  -2.041  0.00  0.00    +0.000 C 
ATOM     36  C   UNL     1       3.528  -7.990  -1.360  0.00  0.00    +0.001 C 
ATOM     37  C   UNL     1       2.843  -7.493  -0.086  0.00  0.00    +0.008 C 
ENDBRANCH  31  32
ENDBRANCH  25  26
ENDBRANCH  24  25
ENDBRANCH   6  24
TORSDOF 6
