REMARK  Name = ZINC39387750
REMARK  8 active torsions:
REMARK  status: ('A' for Active; 'I' for Inactive)
REMARK    1  A    between atoms: C_1  and  N_2
REMARK    2  A    between atoms: N_2  and  C_3
REMARK    3  A    between atoms: N_2  and  C_9
REMARK    4  A    between atoms: C_3  and  C_4
REMARK    5  A    between atoms: C_9  and  C_10
REMARK    6  A    between atoms: C_14  and  C_17
REMARK    7  A    between atoms: N_19  and  C_20
REMARK    8  A    between atoms: C_20  and  C_21
REMARK                            x       y       z     vdW  Elec       q    Type
REMARK                         _______ _______ _______ _____ _____    ______ ____
ROOT
ATOM      1  C   UNL     1      -1.860  -0.403  -1.492  0.00  0.00    +0.033 A 
ATOM      2  N   UNL     1      -2.065   0.870  -1.906  0.00  0.00    -0.324 N 
ATOM      3  C   UNL     1      -2.575   1.130  -3.125  0.00  0.00    +0.261 A 
ATOM      4  O   UNL     1      -2.752   2.283  -3.480  0.00  0.00    -0.267 OA
ATOM      5  C   UNL     1      -2.906   0.059  -3.994  0.00  0.00    +0.101 A 
ATOM      6  C   UNL     1      -2.693  -1.248  -3.561  0.00  0.00    +0.020 A 
ATOM      7  C   UNL     1      -2.157  -1.460  -2.290  0.00  0.00    +0.023 A 
ATOM      8  H   UNL     1      -1.840   1.606  -1.316  0.00  0.00    +0.169 HD
ENDROOT
BRANCH   5   9
ATOM      9  C   UNL     1      -3.466   0.323  -5.328  0.00  0.00    +0.249 C 
ATOM     10  O   UNL     1      -3.651  -0.596  -6.103  0.00  0.00    -0.270 OA
ATOM     11  N   UNL     1      -3.772   1.584  -5.693  0.00  0.00    -0.309 N 
ATOM     12  H   UNL     1      -3.561   2.324  -5.103  0.00  0.00    +0.149 HD
BRANCH  11  13
ATOM     13  C   UNL     1      -4.424   1.836  -6.980  0.00  0.00    +0.138 C 
BRANCH  13  14
ATOM     14  C   UNL     1      -4.659   3.339  -7.147  0.00  0.00    +0.150 C 
ATOM     15  N   UNL     1      -3.401   4.087  -7.029  0.00  0.00    -0.330 N 
ATOM     16  C   UNL     1      -3.293   5.007  -5.987  0.00  0.00    +0.042 A 
ATOM     17  C   UNL     1      -2.171   5.810  -5.717  0.00  0.00    +0.024 A 
ATOM     18  C   UNL     1      -2.163   6.690  -4.660  0.00  0.00    +0.002 A 
ATOM     19  C   UNL     1      -3.258   6.814  -3.825  0.00  0.00    +0.001 A 
ATOM     20  C   UNL     1      -4.378   6.036  -4.067  0.00  0.00    +0.016 A 
ATOM     21  C   UNL     1      -4.385   5.156  -5.126  0.00  0.00    +0.031 A 
ATOM     22  S   UNL     1      -5.613   4.020  -5.732  0.00  0.00    -0.099 S 
ATOM     23  H   UNL     1      -2.671   3.946  -7.653  0.00  0.00    +0.147 HD
ENDBRANCH  13  14
ENDBRANCH  11  13
ENDBRANCH   5   9
BRANCH   1  24
ATOM     24  C   UNL     1      -1.287  -0.651  -0.120  0.00  0.00    +0.137 C 
BRANCH  24  26
ATOM     25  C   UNL     1       0.613  -0.193   1.310  0.00  0.00    +0.105 C 
ATOM     26  N   UNL     1       0.081  -0.118  -0.058  0.00  0.00    -0.296 NA
BRANCH  26  27
ATOM     27  C   UNL     1       0.961  -0.817  -1.004  0.00  0.00    +0.120 C 
BRANCH  27  28
ATOM     28  C   UNL     1       2.280  -0.092  -1.092  0.00  0.00    -0.026 A 
ATOM     29  C   UNL     1       2.465   0.916  -2.019  0.00  0.00    +0.012 A 
ATOM     30  C   UNL     1       3.663   1.548  -2.072  0.00  0.00    +0.045 A 
ATOM     31  S   UNL     1       4.577   0.715  -0.785  0.00  0.00    -0.105 S 
ATOM     32  C   UNL     1       3.299  -0.415  -0.259  0.00  0.00    +0.050 A 
ENDBRANCH  27  28
ENDBRANCH  26  27
ENDBRANCH  24  26
ENDBRANCH   1  24
TORSDOF 7
