REMARK  Name = ZINC39098607
REMARK  7 active torsions:
REMARK  status: ('A' for Active; 'I' for Inactive)
REMARK    1  A    between atoms: C_1  and  C_2
REMARK    2  A    between atoms: C_2  and  C_3
REMARK    3  A    between atoms: C_2  and  N_4
REMARK    4  A    between atoms: N_4  and  C_5
REMARK    5  A    between atoms: C_5  and  C_6
REMARK    6  A    between atoms: C_11  and  O_17
REMARK    7  A    between atoms: C_12  and  O_16
REMARK                            x       y       z     vdW  Elec       q    Type
REMARK                         _______ _______ _______ _____ _____    ______ ____
ROOT
ATOM      1  C   UNL     1       2.816  -0.564  -2.418  0.00  0.00    +0.132 C 
ATOM      2  C   UNL     1       4.276  -0.174  -2.373  0.00  0.00    -0.012 A 
ATOM      3  C   UNL     1       4.920   0.991  -2.009  0.00  0.00    +0.010 A 
ATOM      4  C   UNL     1       6.300   1.067  -2.069  0.00  0.00    +0.049 A 
ATOM      5  C   UNL     1       7.037  -0.026  -2.496  0.00  0.00    +0.159 A 
ATOM      6  C   UNL     1       6.387  -1.201  -2.864  0.00  0.00    +0.164 A 
ATOM      7  C   UNL     1       5.008  -1.271  -2.801  0.00  0.00    +0.029 A 
ATOM      8  C   UNL     1       4.022  -2.370  -3.122  0.00  0.00    +0.200 C 
ATOM      9  O   UNL     1       2.791  -2.002  -2.471  0.00  0.00    -0.369 OA
ENDROOT
BRANCH   6  10
ATOM     10  O   UNL     1       7.106  -2.276  -3.283  0.00  0.00    -0.503 OA
ATOM     11  H   UNL     1       7.366  -2.877  -2.571  0.00  0.00    +0.292 HD
ENDBRANCH   6  10
BRANCH   5  12
ATOM     12  O   UNL     1       8.394   0.049  -2.555  0.00  0.00    -0.503 OA
ATOM     13  H   UNL     1       8.839  -0.219  -1.740  0.00  0.00    +0.292 HD
ENDBRANCH   5  12
BRANCH   1  14
ATOM     14  C   UNL     1       2.100  -0.070  -1.159  0.00  0.00    -0.045 C 
BRANCH  14  15
ATOM     15  N   UNL     1       0.690  -0.478  -1.207  0.00  0.00    +0.382 N 
ATOM     16  H   UNL     1       0.632  -1.484  -1.254  0.00  0.00    -0.085 HD
ATOM     17  H   UNL     1       0.251  -0.077  -2.022  0.00  0.00    -0.085 HD
BRANCH  15  19
ATOM     18  C   UNL     1      -0.019   1.526   0.010  0.00  0.00    -0.014 C 
ATOM     19  C   UNL     1       0.002  -0.004   0.002  0.00  0.00    -0.078 C 
ATOM     20  C   UNL     1      -1.433  -0.534   0.013  0.00  0.00    -0.014 C 
ENDBRANCH  15  19
ENDBRANCH  14  15
ENDBRANCH   1  14
TORSDOF 5
