REMARK  Name = ZINC17308030
REMARK  12 active torsions:
REMARK  status: ('A' for Active; 'I' for Inactive)
REMARK    1  A    between atoms: C_1  and  C_2
REMARK    2  A    between atoms: C_2  and  N_3
REMARK    3  A    between atoms: N_3  and  C_4
REMARK    4  A    between atoms: C_5  and  N_20
REMARK    5  A    between atoms: N_6  and  C_13
REMARK    6  A    between atoms: C_13  and  C_14
REMARK    7  A    between atoms: C_21  and  C_23
REMARK    8  A    between atoms: C_23  and  N_24
REMARK    9  A    between atoms: N_24  and  C_25
REMARK   10  A    between atoms: N_24  and  C_31
REMARK   11  A    between atoms: C_25  and  C_26
REMARK   12  A    between atoms: C_31  and  C_32
REMARK                            x       y       z     vdW  Elec       q    Type
REMARK                         _______ _______ _______ _____ _____    ______ ____
ROOT
ATOM      1  N   UNL     1       1.037  -0.763  -2.086  0.00  0.00    -0.263 N 
ATOM      2  C   UNL     1       0.228  -0.978  -3.144  0.00  0.00    +0.234 C 
ATOM      3  O   UNL     1       0.676  -1.470  -4.159  0.00  0.00    -0.274 OA
ENDROOT
BRANCH   1   4
ATOM      4  C   UNL     1       2.422  -1.013  -2.193  0.00  0.00    +0.140 A 
ATOM      5  C   UNL     1       3.013  -2.019  -1.457  0.00  0.00    +0.128 A 
ATOM      6  N   UNL     1       4.365  -2.238  -1.583  0.00  0.00    -0.276 N 
ATOM      7  C   UNL     1       5.102  -1.480  -2.415  0.00  0.00    +0.331 A 
ATOM      8  O   UNL     1       6.296  -1.689  -2.512  0.00  0.00    -0.246 OA
ATOM      9  N   UNL     1       4.543  -0.495  -3.141  0.00  0.00    -0.273 N 
ATOM     10  H   UNL     1       5.097   0.037  -3.733  0.00  0.00    +0.173 HD
ATOM     11  C   UNL     1       3.223  -0.243  -3.058  0.00  0.00    +0.277 A 
ATOM     12  O   UNL     1       2.725   0.649  -3.724  0.00  0.00    -0.266 OA
BRANCH   5  13
ATOM     13  N   UNL     1       2.260  -2.793  -0.607  0.00  0.00    -0.343 N 
ATOM     14  H   UNL     1       1.320  -2.592  -0.472  0.00  0.00    +0.144 HD
ATOM     15  H   UNL     1       2.667  -3.540  -0.141  0.00  0.00    +0.144 HD
ENDBRANCH   5  13
BRANCH   6  16
ATOM     16  C   UNL     1       5.006  -3.303  -0.807  0.00  0.00    +0.163 C 
BRANCH  16  17
ATOM     17  C   UNL     1       4.978  -4.586  -1.597  0.00  0.00    -0.028 A 
ATOM     18  C   UNL     1       3.906  -5.450  -1.474  0.00  0.00    +0.005 A 
ATOM     19  C   UNL     1       3.881  -6.628  -2.198  0.00  0.00    +0.000 A 
ATOM     20  C   UNL     1       4.927  -6.940  -3.046  0.00  0.00    +0.000 A 
ATOM     21  C   UNL     1       5.998  -6.075  -3.171  0.00  0.00    +0.000 A 
ATOM     22  C   UNL     1       6.021  -4.896  -2.449  0.00  0.00    +0.005 A 
ENDBRANCH  16  17
ENDBRANCH   6  16
ENDBRANCH   1   4
BRANCH   1  24
ATOM     23  C   UNL     1       0.599   1.253  -0.773  0.00  0.00    +0.025 C 
ATOM     24  C   UNL     1       0.477  -0.271  -0.824  0.00  0.00    +0.110 C 
ENDBRANCH   1  24
BRANCH   2  25
ATOM     25  C   UNL     1      -1.230  -0.608  -3.065  0.00  0.00    +0.181 C 
BRANCH  25  26
ATOM     26  N   UNL     1      -1.889  -0.939  -4.336  0.00  0.00    -0.287 NA
BRANCH  26  27
ATOM     27  C   UNL     1      -1.908  -2.392  -4.557  0.00  0.00    +0.127 C 
BRANCH  27  28
ATOM     28  C   UNL     1      -2.216  -2.676  -6.004  0.00  0.00    +0.004 A 
ATOM     29  C   UNL     1      -1.359  -2.899  -7.031  0.00  0.00    +0.012 A 
ATOM     30  C   UNL     1      -1.873  -3.143  -8.291  0.00  0.00    +0.008 A 
ATOM     31  C   UNL     1      -3.217  -3.151  -8.463  0.00  0.00    +0.045 A 
ATOM     32  S   UNL     1      -3.803  -2.814  -6.810  0.00  0.00    -0.100 S 
ENDBRANCH  27  28
ENDBRANCH  26  27
BRANCH  26  33
ATOM     33  C   UNL     1      -3.247  -0.381  -4.387  0.00  0.00    +0.116 C 
BRANCH  33  34
ATOM     34  C   UNL     1      -3.170   1.125  -4.644  0.00  0.00    +0.132 C 
ATOM     35  C   UNL     1      -4.593   1.719  -4.707  0.00  0.00    +0.035 C 
ATOM     36  C   UNL     1      -4.468   2.755  -5.857  0.00  0.00    +0.031 C 
ATOM     37  C   UNL     1      -3.459   2.038  -6.789  0.00  0.00    +0.160 C 
ATOM     38  O   UNL     1      -2.540   1.371  -5.907  0.00  0.00    -0.375 OA
ENDBRANCH  33  34
ENDBRANCH  26  33
ENDBRANCH  25  26
ENDBRANCH   2  25
TORSDOF 11
