REMARK  Name = ZINC56739848
REMARK  10 active torsions:
REMARK  status: ('A' for Active; 'I' for Inactive)
REMARK    1  A    between atoms: C_1  and  C_2
REMARK    2  A    between atoms: C_2  and  C_3
REMARK    3  A    between atoms: C_3  and  C_5
REMARK    4  A    between atoms: C_3  and  N_6
REMARK    5  A    between atoms: C_7  and  C_9
REMARK    6  A    between atoms: C_9  and  C_10
REMARK    7  A    between atoms: C_10  and  N_11
REMARK    8  A    between atoms: N_14  and  C_15
REMARK    9  A    between atoms: C_18  and  C_21
REMARK   10  A    between atoms: N_26  and  C_29
REMARK                            x       y       z     vdW  Elec       q    Type
REMARK                         _______ _______ _______ _____ _____    ______ ____
ROOT
ATOM      1  N   UNL     1      -0.284   1.617  -7.234  0.00  0.00    -0.299 N 
ATOM      2  C   UNL     1       0.354   1.782  -8.410  0.00  0.00    +0.304 C 
ATOM      3  O   UNL     1       1.444   2.320  -8.440  0.00  0.00    -0.253 OA
ATOM      4  N   UNL     1      -0.215   1.350  -9.552  0.00  0.00    -0.269 N 
ATOM      5  H   UNL     1      -1.153   1.188  -7.211  0.00  0.00    +0.150 HD
ATOM      6  H   UNL     1      -1.052   0.861  -9.522  0.00  0.00    +0.156 HD
ENDROOT
BRANCH   4   7
ATOM      7  C   UNL     1       0.399   1.607 -10.778  0.00  0.00    +0.035 A 
ATOM      8  C   UNL     1       1.786   1.596 -10.874  0.00  0.00    +0.024 A 
ATOM      9  C   UNL     1       2.396   1.849 -12.083  0.00  0.00    +0.015 A 
ATOM     10  C   UNL     1       1.619   2.116 -13.213  0.00  0.00    +0.037 A 
ATOM     11  C   UNL     1       0.225   2.125 -13.113  0.00  0.00    +0.015 A 
ATOM     12  C   UNL     1      -0.378   1.867 -11.902  0.00  0.00    +0.024 A 
BRANCH  10  13
ATOM     13  C   UNL     1       2.268   2.388 -14.510  0.00  0.00    +0.246 C 
ATOM     14  O   UNL     1       3.192   1.692 -14.885  0.00  0.00    -0.270 OA
ATOM     15  N   UNL     1       1.838   3.408 -15.279  0.00  0.00    -0.301 N 
ATOM     16  C   UNL     1       0.668   4.209 -14.887  0.00  0.00    +0.089 C 
ATOM     17  C   UNL     1       1.048   5.691 -14.962  0.00  0.00    -0.060 C 
ATOM     18  N   UNL     1       1.569   5.995 -16.301  0.00  0.00    +0.380 N 
ATOM     19  C   UNL     1       2.816   5.255 -16.531  0.00  0.00    -0.060 C 
ATOM     20  C   UNL     1       2.528   3.755 -16.531  0.00  0.00    +0.089 C 
ATOM     21  C   UNL     1       1.829   7.436 -16.408  0.00  0.00    -0.096 C 
ATOM     22  H   UNL     1       0.887   5.726 -16.995  0.00  0.00    -0.082 HD
ENDBRANCH  10  13
ENDBRANCH   4   7
BRANCH   1  23
ATOM     23  C   UNL     1       0.335   2.087  -5.992  0.00  0.00    +0.115 C 
BRANCH  23  24
ATOM     24  C   UNL     1      -0.590   1.780  -4.813  0.00  0.00    +0.114 C 
BRANCH  24  26
ATOM     25  N   UNL     1      -0.591   2.098  -2.360  0.00  0.00    -0.313 N 
ATOM     26  C   UNL     1       0.047   2.262  -3.536  0.00  0.00    +0.215 C 
ATOM     27  O   UNL     1       1.134   2.799  -3.565  0.00  0.00    -0.276 OA
ATOM     28  H   UNL     1      -1.461   1.668  -2.337  0.00  0.00    +0.149 HD
BRANCH  25  29
ATOM     29  C   UNL     1       0.028   2.567  -1.118  0.00  0.00    +0.070 C 
ATOM     30  C   UNL     1       0.979   1.493  -0.585  0.00  0.00    +0.028 C 
BRANCH  29  32
ATOM     31  C   UNL     1      -1.937   4.005  -0.558  0.00  0.00    +0.005 C 
ATOM     32  C   UNL     1      -1.060   2.846  -0.080  0.00  0.00    +0.018 C 
ENDBRANCH  29  32
ENDBRANCH  25  29
ENDBRANCH  24  26
ENDBRANCH  23  24
ENDBRANCH   1  23
TORSDOF 7
