REMARK  Name = ZINC06852542
REMARK  13 active torsions:
REMARK  status: ('A' for Active; 'I' for Inactive)
REMARK    1  A    between atoms: C_1  and  C_2
REMARK    2  A    between atoms: C_6  and  C_22
REMARK    3  A    between atoms: C_6  and  C_23
REMARK    4  A    between atoms: C_13  and  C_15
REMARK    5  A    between atoms: C_15  and  C_16
REMARK    6  A    between atoms: C_16  and  C_17
REMARK    7  A    between atoms: N_25  and  C_26
REMARK    8  A    between atoms: C_26  and  C_27
REMARK    9  A    between atoms: C_27  and  C_28
REMARK   10  A    between atoms: C_28  and  C_29
REMARK   11  A    between atoms: C_29  and  C_30
REMARK   12  A    between atoms: C_30  and  C_31
REMARK   13  A    between atoms: C_31  and  N_72
REMARK                            x       y       z     vdW  Elec       q    Type
REMARK                         _______ _______ _______ _____ _____    ______ ____
ROOT
ATOM      1  C   UNL     1      -0.876   0.922  -1.597  0.00  0.00    +0.012 C 
ATOM      2  C   UNL     1       0.224   0.590  -0.577  0.00  0.00    -0.022 C 
ATOM      3  C   UNL     1       0.782  -0.797  -0.879  0.00  0.00    +0.007 C 
ATOM      4  C   UNL     1       1.482  -0.795  -2.240  0.00  0.00    +0.002 C 
ATOM      5  C   UNL     1       2.625   0.212  -2.243  0.00  0.00    +0.016 C 
ATOM      6  C   UNL     1       2.144   1.618  -1.896  0.00  0.00    +0.047 C 
ATOM      7  C   UNL     1       1.347   1.623  -0.591  0.00  0.00    +0.010 C 
ATOM      8  C   UNL     1       2.334   1.366   0.556  0.00  0.00    +0.009 C 
ATOM      9  C   UNL     1       1.654   1.367   1.927  0.00  0.00    +0.031 C 
ATOM     10  C   UNL     1       0.513   0.374   1.881  0.00  0.00    -0.073 C 
ATOM     11  C   UNL     1       0.411  -0.601   2.742  0.00  0.00    +0.008 C 
ATOM     12  C   UNL     1      -0.495   0.590   0.782  0.00  0.00    +0.021 C 
ATOM     13  C   UNL     1       1.373   2.222  -3.071  0.00  0.00    +0.021 C 
ENDROOT
BRANCH   6  14
ATOM     14  C   UNL     1       3.385   2.489  -1.739  0.00  0.00    +0.219 C 
ATOM     15  O   UNL     1       4.483   2.025  -1.960  0.00  0.00    -0.275 OA
ATOM     16  N   UNL     1       3.261   3.775  -1.355  0.00  0.00    -0.315 N 
ATOM     17  H   UNL     1       2.383   4.146  -1.178  0.00  0.00    +0.149 HD
BRANCH  16  18
ATOM     18  C   UNL     1       4.454   4.612  -1.205  0.00  0.00    +0.104 C 
BRANCH  18  19
ATOM     19  C   UNL     1       4.039   6.017  -0.763  0.00  0.00    +0.019 C 
BRANCH  19  20
ATOM     20  C   UNL     1       5.285   6.891  -0.606  0.00  0.00    +0.001 C 
BRANCH  20  21
ATOM     21  C   UNL     1       4.869   8.296  -0.164  0.00  0.00    -0.002 C 
BRANCH  21  22
ATOM     22  C   UNL     1       6.115   9.170  -0.007  0.00  0.00    -0.020 C 
BRANCH  22  23
ATOM     23  C   UNL     1       5.700  10.575   0.434  0.00  0.00    -0.086 C 
BRANCH  23  26
ATOM     24  H   UNL     1       7.435  11.433  -0.268  0.00  0.00    -0.090 HD
ATOM     25  H   UNL     1       6.648  12.348   0.877  0.00  0.00    -0.090 HD
ATOM     26  N   UNL     1       6.908  11.402   0.604  0.00  0.00    +0.378 N 
ATOM     27  H   UNL     1       7.498  10.991   1.337  0.00  0.00    -0.090 HD
ENDBRANCH  23  26
ENDBRANCH  22  23
ENDBRANCH  21  22
ENDBRANCH  20  21
ENDBRANCH  19  20
ENDBRANCH  18  19
ENDBRANCH  16  18
ENDBRANCH   6  14
BRANCH  12  28
ATOM     28  C   UNL     1      -1.575  -0.485   0.825  0.00  0.00    +0.013 C 
BRANCH  28  29
ATOM     29  C   UNL     1      -2.399  -0.330   2.105  0.00  0.00    +0.039 C 
BRANCH  29  30
ATOM     30  C   UNL     1      -3.393  -1.458   2.203  0.00  0.00    -0.010 A 
ATOM     31  C   UNL     1      -3.187  -2.711   2.824  0.00  0.00    +0.044 A 
ATOM     32  C   UNL     1      -4.327  -3.410   2.681  0.00  0.00    +0.195 A 
ATOM     33  O   UNL     1      -5.209  -2.650   2.010  0.00  0.00    -0.471 OA
ATOM     34  C   UNL     1      -4.649  -1.463   1.722  0.00  0.00    +0.198 A 
ENDBRANCH  29  30
ENDBRANCH  28  29
ENDBRANCH  12  28
TORSDOF 11
