REMARK  Name = ZINC42529235
REMARK  10 active torsions:
REMARK  status: ('A' for Active; 'I' for Inactive)
REMARK    1  A    between atoms: C_1  and  C_2
REMARK    2  A    between atoms: C_2  and  C_3
REMARK    3  A    between atoms: C_2  and  N_4
REMARK    4  A    between atoms: N_4  and  C_5
REMARK    5  A    between atoms: N_4  and  C_10
REMARK    6  A    between atoms: C_5  and  C_6
REMARK    7  A    between atoms: C_6  and  C_7
REMARK    8  A    between atoms: C_7  and  N_9
REMARK    9  A    between atoms: C_10  and  C_11
REMARK   10  A    between atoms: N_13  and  C_14
REMARK                            x       y       z     vdW  Elec       q    Type
REMARK                         _______ _______ _______ _____ _____    ______ ____
ROOT
ATOM      1  N   UNL     1      -1.544  -0.332  -0.400  0.00  0.00    +0.387 N 
ATOM      2  H   UNL     1      -1.284   0.211   0.410  0.00  0.00    -0.081 HD
ENDROOT
BRANCH   1   4
ATOM      3  C   UNL     1      -0.947  -0.953  -2.692  0.00  0.00    -0.014 C 
ATOM      4  C   UNL     1      -0.549  -0.134  -1.463  0.00  0.00    -0.074 C 
ATOM      5  C   UNL     1      -0.487   1.348  -1.835  0.00  0.00    -0.014 C 
ENDBRANCH   1   4
BRANCH   1   6
ATOM      6  C   UNL     1      -1.599  -1.754  -0.039  0.00  0.00    -0.071 C 
BRANCH   6   7
ATOM      7  C   UNL     1      -0.267  -2.174   0.587  0.00  0.00    +0.040 C 
BRANCH   7   8
ATOM      8  C   UNL     1      -0.298  -3.649   0.894  0.00  0.00    +0.044 C 
ATOM      9  S   UNL     1      -1.603  -4.508   0.555  0.00  0.00    -0.041 S 
BRANCH   8  10
ATOM     10  N   UNL     1       0.774  -4.244   1.453  0.00  0.00    -0.356 N 
ATOM     11  H   UNL     1       1.565  -3.722   1.659  0.00  0.00    +0.143 HD
ATOM     12  H   UNL     1       0.754  -5.193   1.651  0.00  0.00    +0.143 HD
ENDBRANCH   8  10
ENDBRANCH   7   8
ENDBRANCH   6   7
ENDBRANCH   1   6
BRANCH   1  13
ATOM     13  C   UNL     1      -2.863   0.104  -0.878  0.00  0.00    +0.019 C 
BRANCH  13  14
ATOM     14  C   UNL     1      -2.979   1.600  -0.739  0.00  0.00    +0.201 C 
ATOM     15  O   UNL     1      -2.113   2.225  -0.164  0.00  0.00    -0.278 OA
ATOM     16  N   UNL     1      -4.045   2.244  -1.254  0.00  0.00    -0.287 N 
ATOM     17  H   UNL     1      -4.771   1.738  -1.653  0.00  0.00    +0.155 HD
BRANCH  16  18
ATOM     18  C   UNL     1      -4.106   3.641  -1.213  0.00  0.00    +0.033 A 
ATOM     19  C   UNL     1      -4.677   4.344  -2.265  0.00  0.00    +0.024 A 
ATOM     20  C   UNL     1      -4.736   5.723  -2.222  0.00  0.00    +0.017 A 
ATOM     21  C   UNL     1      -4.226   6.405  -1.131  0.00  0.00    +0.018 A 
ATOM     22  C   UNL     1      -3.656   5.707  -0.081  0.00  0.00    +0.017 A 
ATOM     23  C   UNL     1      -3.599   4.327  -0.117  0.00  0.00    +0.024 A 
ATOM     24 BR   UNL     1      -4.308   8.293  -1.075  0.00  0.00    -0.050 Br
ENDBRANCH  16  18
ENDBRANCH  13  14
ENDBRANCH   1  13
TORSDOF 8
