REMARK  Name = ZINC03167076
REMARK  5 active torsions:
REMARK  status: ('A' for Active; 'I' for Inactive)
REMARK    1  A    between atoms: C_5  and  C_7
REMARK    2  A    between atoms: N_9  and  C_10
REMARK    3  A    between atoms: C_10  and  C_12
REMARK    4  A    between atoms: C_10  and  N_16
REMARK    5  A    between atoms: N_16  and  C_17
REMARK                            x       y       z     vdW  Elec       q    Type
REMARK                         _______ _______ _______ _____ _____    ______ ____
ROOT
ATOM      1  C   UNL     1       1.275  -0.719  -0.125  0.00  0.00    +0.211 C 
ENDROOT
BRANCH   1   4
ATOM      2  C   UNL     1       2.318  -0.518  -2.317  0.00  0.00    +0.247 C 
ATOM      3  O   UNL     1       2.954   0.428  -1.896  0.00  0.00    -0.270 OA
ATOM      4  N   UNL     1       1.451  -1.161  -1.510  0.00  0.00    -0.289 N 
ATOM      5  H   UNL     1       0.944  -1.916  -1.847  0.00  0.00    +0.151 HD
BRANCH   2  10
ATOM      6  C   UNL     1       1.938  -2.461  -5.508  0.00  0.00    +0.001 A 
ATOM      7  C   UNL     1       2.829  -1.799  -6.335  0.00  0.00    +0.001 A 
ATOM      8  C   UNL     1       3.554  -0.723  -5.860  0.00  0.00    +0.021 A 
ATOM      9  C   UNL     1       3.393  -0.300  -4.554  0.00  0.00    +0.053 A 
ATOM     10  C   UNL     1       2.496  -0.964  -3.715  0.00  0.00    +0.055 A 
ATOM     11  C   UNL     1       1.771  -2.054  -4.201  0.00  0.00    +0.014 A 
ATOM     12 CL   UNL     1       4.305   1.052  -3.959  0.00  0.00    -0.083 Cl
ENDBRANCH   2  10
ENDBRANCH   1   4
BRANCH   1  13
ATOM     13  C   UNL     1       1.270  -1.936   0.802  0.00  0.00    +0.225 C 
ATOM     14 CL   UNL     1      -0.084  -3.035   0.345  0.00  0.00    -0.080 Cl
ATOM     15 CL   UNL     1       2.837  -2.815   0.647  0.00  0.00    -0.080 Cl
ATOM     16 CL   UNL     1       1.054  -1.392   2.508  0.00  0.00    -0.080 Cl
ENDBRANCH   1  13
BRANCH   1  17
ATOM     17  N   UNL     1       0.002  -0.004   0.002  0.00  0.00    -0.309 N 
ATOM     18  H   UNL     1      -0.832  -0.498   0.018  0.00  0.00    +0.149 HD
BRANCH  17  19
ATOM     19  C   UNL     1      -0.010   1.383   0.100  0.00  0.00    +0.098 A 
ATOM     20  C   UNL     1       1.179   2.093  -0.036  0.00  0.00    +0.041 A 
ATOM     21  C   UNL     1       1.152   3.473   0.064  0.00  0.00    +0.005 A 
ATOM     22  C   UNL     1      -0.066   4.097   0.296  0.00  0.00    +0.018 A 
ATOM     23  C   UNL     1      -1.206   3.330   0.421  0.00  0.00    +0.084 A 
ATOM     24  N   UNL     1      -1.219   1.973   0.323  0.00  0.00    -0.350 N 
ATOM     25  H   UNL     1      -2.085   1.428   0.411  0.00  0.00    +0.166 HD
ENDBRANCH  17  19
ENDBRANCH   1  17
TORSDOF 5
