REMARK  Name = ZINC36754518
REMARK  4 active torsions:
REMARK  status: ('A' for Active; 'I' for Inactive)
REMARK    1  A    between atoms: C_3  and  N_4
REMARK    2  A    between atoms: C_8  and  C_10
REMARK    3  A    between atoms: C_10  and  N_11
REMARK    4  A    between atoms: C_14  and  N_17
REMARK                            x       y       z     vdW  Elec       q    Type
REMARK                         _______ _______ _______ _____ _____    ______ ____
ROOT
ATOM      1  N   UNL     1      -0.391  -0.679  -1.237  0.00  0.00    -0.296 N 
ATOM      2  C   UNL     1      -0.877  -1.935  -1.196  0.00  0.00    +0.306 C 
ATOM      3  O   UNL     1      -0.989  -2.509  -0.130  0.00  0.00    -0.252 OA
ATOM      4  N   UNL     1      -1.239  -2.557  -2.336  0.00  0.00    -0.239 N 
ATOM      5  C   UNL     1      -1.724  -3.813  -2.294  0.00  0.00    +0.234 C 
ATOM      6  O   UNL     1      -1.836  -4.385  -1.230  0.00  0.00    -0.274 OA
ATOM      7  H   UNL     1      -0.302  -0.222  -2.088  0.00  0.00    +0.151 HD
ATOM      8  H   UNL     1      -1.149  -2.099  -3.186  0.00  0.00    +0.159 HD
ENDROOT
BRANCH   1  11
ATOM      9  C   UNL     1      -0.019   1.526   0.010  0.00  0.00    +0.024 C 
ATOM     10  C   UNL     1       1.317   0.779  -0.006  0.00  0.00    +0.024 C 
ATOM     11  C   UNL     1       0.002  -0.004   0.002  0.00  0.00    +0.075 C 
ENDBRANCH   1  11
BRANCH   5  12
ATOM     12  C   UNL     1      -2.129  -4.507  -3.569  0.00  0.00    +0.181 C 
BRANCH  12  13
ATOM     13  N   UNL     1      -2.622  -5.855  -3.257  0.00  0.00    -0.294 NA
ATOM     14  C   UNL     1      -3.865  -5.794  -2.477  0.00  0.00    +0.083 C 
ATOM     15  C   UNL     1      -4.270  -7.205  -2.047  0.00  0.00    -0.001 C 
ATOM     16  C   UNL     1      -4.469  -8.075  -3.292  0.00  0.00    -0.073 C 
ATOM     17  C   UNL     1      -3.175  -8.084  -4.111  0.00  0.00    -0.001 C 
ATOM     18  C   UNL     1      -2.802  -6.646  -4.481  0.00  0.00    +0.083 C 
BRANCH  16  19
ATOM     19  N   UNL     1      -4.801  -9.447  -2.884  0.00  0.00    +0.380 N 
ATOM     20  H   UNL     1      -5.651  -9.440  -2.340  0.00  0.00    -0.090 HD
ATOM     21  H   UNL     1      -4.932 -10.019  -3.705  0.00  0.00    -0.090 HD
ATOM     22  H   UNL     1      -4.048  -9.824  -2.328  0.00  0.00    -0.090 HD
ENDBRANCH  16  19
ENDBRANCH  12  13
ENDBRANCH   5  12
TORSDOF 4
