REMARK  Name = ZINC67400746
REMARK  9 active torsions:
REMARK  status: ('A' for Active; 'I' for Inactive)
REMARK    1  A    between atoms: C_6  and  C_7
REMARK    2  A    between atoms: C_7  and  C_9
REMARK    3  A    between atoms: C_7  and  O_28
REMARK    4  A    between atoms: N_12  and  C_15
REMARK    5  A    between atoms: C_15  and  C_16
REMARK    6  A    between atoms: C_16  and  C_18
REMARK    7  A    between atoms: C_16  and  O_27
REMARK    8  A    between atoms: C_18  and  O_19
REMARK    9  A    between atoms: O_19  and  C_20
REMARK                            x       y       z     vdW  Elec       q    Type
REMARK                         _______ _______ _______ _____ _____    ______ ____
ROOT
ATOM      1  C   UNL     1      -1.617  -1.243  -1.409  0.00  0.00    +0.019 C 
ATOM      2  C   UNL     1      -1.763  -0.028  -2.329  0.00  0.00    -0.012 C 
ATOM      3  C   UNL     1      -2.165  -0.499  -3.728  0.00  0.00    -0.078 C 
ATOM      4  N   UNL     1      -3.443  -1.218  -3.658  0.00  0.00    +0.381 N 
ATOM      5  C   UNL     1      -3.291  -2.424  -2.836  0.00  0.00    -0.078 C 
ATOM      6  C   UNL     1      -2.933  -2.027  -1.402  0.00  0.00    -0.012 C 
ATOM      7  H   UNL     1      -4.143  -0.618  -3.248  0.00  0.00    -0.082 HD
ENDROOT
BRANCH   1   8
ATOM      8  C   UNL     1      -1.293  -0.775   0.011  0.00  0.00    +0.147 C 
BRANCH   8  14
ATOM      9  C   UNL     1      -0.017   1.378   0.010  0.00  0.00    +0.007 A 
ATOM     10  C   UNL     1       1.171   2.086   0.002  0.00  0.00    +0.020 A 
ATOM     11  C   UNL     1       2.378   1.410  -0.013  0.00  0.00    +0.041 A 
ATOM     12  C   UNL     1       2.396   0.027  -0.021  0.00  0.00    +0.020 A 
ATOM     13  C   UNL     1       1.208  -0.679  -0.013  0.00  0.00    +0.007 A 
ATOM     14  C   UNL     1       0.002  -0.004   0.002  0.00  0.00    -0.019 A 
ATOM     15 CL   UNL     1       3.870   2.298  -0.023  0.00  0.00    -0.084 Cl
ENDBRANCH   8  14
BRANCH   8  16
ATOM     16  O   UNL     1      -1.166  -1.910   0.869  0.00  0.00    -0.387 OA
ATOM     17  H   UNL     1      -0.469  -2.526   0.606  0.00  0.00    +0.210 HD
ENDBRANCH   8  16
ENDBRANCH   1   8
BRANCH   4  18
ATOM     18  C   UNL     1      -3.863  -1.600  -5.013  0.00  0.00    -0.044 C 
BRANCH  18  19
ATOM     19  C   UNL     1      -5.253  -2.238  -4.955  0.00  0.00    +0.135 C 
BRANCH  19  20
ATOM     20  O   UNL     1      -6.206  -1.265  -4.524  0.00  0.00    -0.390 OA
ATOM     21  H   UNL     1      -6.271  -0.494  -5.103  0.00  0.00    +0.210 HD
ENDBRANCH  19  20
BRANCH  19  22
ATOM     22  C   UNL     1      -5.638  -2.748  -6.345  0.00  0.00    +0.258 C 
BRANCH  22  23
ATOM     23  O   UNL     1      -6.882  -3.447  -6.268  0.00  0.00    -0.489 OA
BRANCH  23  24
ATOM     24  C   UNL     1      -7.370  -3.968  -7.425  0.00  0.00    +0.121 A 
ATOM     25  C   UNL     1      -6.662  -3.815  -8.608  0.00  0.00    +0.048 A 
ATOM     26  C   UNL     1      -7.159  -4.345  -9.783  0.00  0.00    +0.042 A 
ATOM     27  C   UNL     1      -8.363  -5.028  -9.780  0.00  0.00    +0.124 A 
ATOM     28  C   UNL     1      -9.070  -5.181  -8.600  0.00  0.00    +0.042 A 
ATOM     29  C   UNL     1      -8.573  -4.658  -7.423  0.00  0.00    +0.048 A 
ATOM     30  F   UNL     1      -8.848  -5.545 -10.930  0.00  0.00    -0.205 F 
ENDBRANCH  23  24
ENDBRANCH  22  23
ENDBRANCH  19  22
ENDBRANCH  18  19
ENDBRANCH   4  18
TORSDOF 9
