REMARK  Name = ZINC39696191
REMARK  10 active torsions:
REMARK  status: ('A' for Active; 'I' for Inactive)
REMARK    1  A    between atoms: C_1  and  C_2
REMARK    2  A    between atoms: C_2  and  C_3
REMARK    3  A    between atoms: C_6  and  C_9
REMARK    4  A    between atoms: C_9  and  C_11
REMARK    5  A    between atoms: C_9  and  N_12
REMARK    6  A    between atoms: C_13  and  C_15
REMARK    7  A    between atoms: C_26  and  C_28
REMARK    8  A    between atoms: C_33  and  O_34
REMARK    9  A    between atoms: O_34  and  C_35
REMARK   10  A    between atoms: C_38  and  C_41
REMARK                            x       y       z     vdW  Elec       q    Type
REMARK                         _______ _______ _______ _____ _____    ______ ____
ROOT
ATOM      1  C   UNL     1       2.062  -0.653   8.551  0.00  0.00    +0.100 C 
ATOM      2  C   UNL     1       1.999   0.834   8.137  0.00  0.00    +0.121 C 
ATOM      3  N   UNL     1       2.481   1.575   9.327  0.00  0.00    -0.296 N 
ATOM      4  C   UNL     1       3.594   0.747   9.850  0.00  0.00    +0.115 C 
ATOM      5  C   UNL     1       3.111  -0.706   9.675  0.00  0.00    -0.004 C 
ATOM      6  C   UNL     1       4.276  -1.603   9.268  0.00  0.00    -0.010 C 
ATOM      7  C   UNL     1       5.277  -1.687  10.424  0.00  0.00    -0.082 C 
ATOM      8  N   UNL     1       4.610  -2.227  11.614  0.00  0.00    +0.379 N 
ATOM      9  C   UNL     1       3.550  -1.311  12.053  0.00  0.00    -0.082 C 
ATOM     10  C   UNL     1       2.476  -1.211  10.966  0.00  0.00    -0.010 C 
ATOM     11  C   UNL     1       2.012   2.737   9.822  0.00  0.00    +0.252 C 
ATOM     12  O   UNL     1       2.576   3.271  10.757  0.00  0.00    -0.270 OA
ATOM     13  H   UNL     1       4.206  -3.125  11.393  0.00  0.00    -0.086 HD
ATOM     14  H   UNL     1       5.285  -2.338  12.356  0.00  0.00    -0.086 HD
ENDROOT
BRANCH  11  15
ATOM     15  C   UNL     1       0.814   3.362   9.229  0.00  0.00    +0.099 A 
ATOM     16  C   UNL     1       0.568   3.268   7.854  0.00  0.00    +0.020 A 
ATOM     17  C   UNL     1      -0.569   3.871   7.348  0.00  0.00    +0.021 A 
ATOM     18  C   UNL     1      -1.423   4.543   8.205  0.00  0.00    +0.114 A 
ATOM     19  N   UNL     1      -1.171   4.619   9.497  0.00  0.00    -0.220 NA
ATOM     20  C   UNL     1      -0.102   4.056  10.034  0.00  0.00    +0.233 A 
BRANCH  20  21
ATOM     21  O   UNL     1       0.114   4.155  11.367  0.00  0.00    -0.437 OA
BRANCH  21  22
ATOM     22  C   UNL     1      -0.744   4.916  12.097  0.00  0.00    +0.130 A 
ATOM     23  C   UNL     1      -0.380   6.198  12.482  0.00  0.00    +0.046 A 
ATOM     24  C   UNL     1      -1.253   6.970  13.224  0.00  0.00    +0.007 A 
ATOM     25  C   UNL     1      -2.489   6.465  13.583  0.00  0.00    -0.050 A 
ATOM     26  C   UNL     1      -2.854   5.187  13.201  0.00  0.00    +0.007 A 
ATOM     27  C   UNL     1      -1.987   4.414  12.454  0.00  0.00    +0.046 A 
ATOM     28  C   UNL     1      -3.440   7.309  14.392  0.00  0.00    +0.044 C 
ENDBRANCH  21  22
ENDBRANCH  20  21
ENDBRANCH  11  15
BRANCH   1  30
ATOM     29  N   UNL     1       2.124  -2.796   7.317  0.00  0.00    -0.308 N 
ATOM     30  C   UNL     1       2.499  -1.504   7.386  0.00  0.00    +0.219 C 
ATOM     31  O   UNL     1       3.187  -1.025   6.509  0.00  0.00    -0.275 OA
ATOM     32  H   UNL     1       1.573  -3.179   8.018  0.00  0.00    +0.149 HD
BRANCH  29  33
ATOM     33  C   UNL     1       2.548  -3.623   6.184  0.00  0.00    +0.100 C 
ATOM     34  C   UNL     1       3.940  -4.194   6.463  0.00  0.00    +0.033 C 
BRANCH  33  38
ATOM     35  C   UNL     1      -0.222  -6.830   5.645  0.00  0.00    -0.048 A 
ATOM     36  C   UNL     1       0.302  -6.177   4.545  0.00  0.00    +0.004 A 
ATOM     37  C   UNL     1       1.198  -5.139   4.720  0.00  0.00    +0.006 A 
ATOM     38  C   UNL     1       1.570  -4.754   5.994  0.00  0.00    -0.027 A 
ATOM     39  C   UNL     1       1.046  -5.407   7.094  0.00  0.00    +0.006 A 
ATOM     40  C   UNL     1       0.146  -6.442   6.920  0.00  0.00    +0.004 A 
BRANCH  35  42
ATOM     41  C   UNL     1      -2.623  -7.405   5.420  0.00  0.00    +0.009 C 
ATOM     42  C   UNL     1      -1.199  -7.962   5.455  0.00  0.00    +0.032 C 
ENDBRANCH  35  42
ENDBRANCH  33  38
ENDBRANCH  29  33
ENDBRANCH   1  30
TORSDOF 7
