REMARK  Name = ZINC39708419
REMARK  11 active torsions:
REMARK  status: ('A' for Active; 'I' for Inactive)
REMARK    1  A    between atoms: C_1  and  C_2
REMARK    2  A    between atoms: C_2  and  C_3
REMARK    3  A    between atoms: C_8  and  C_12
REMARK    4  A    between atoms: C_12  and  C_14
REMARK    5  A    between atoms: C_14  and  S_15
REMARK    6  A    between atoms: S_15  and  C_16
REMARK    7  A    between atoms: C_20  and  C_27
REMARK    8  A    between atoms: N_22  and  C_23
REMARK    9  A    between atoms: C_23  and  C_24
REMARK   10  A    between atoms: C_30  and  O_33
REMARK   11  A    between atoms: O_33  and  C_34
REMARK                            x       y       z     vdW  Elec       q    Type
REMARK                         _______ _______ _______ _____ _____    ______ ____
ROOT
ATOM      1  C   UNL     1      -7.783  -2.274  -6.205  0.00  0.00    +0.078 C 
ATOM      2  N   UNL     1      -7.599  -0.896  -6.715  0.00  0.00    -0.262 NA
ATOM      3  N   UNL     1      -6.220  -0.875  -7.228  0.00  0.00    -0.267 NA
ATOM      4  C   UNL     1      -6.069  -2.222  -7.839  0.00  0.00    +0.050 C 
ATOM      5  N   UNL     1      -6.809  -3.123  -6.923  0.00  0.00    +0.417 N 
ATOM      6  H   UNL     1      -7.720  -0.219  -5.977  0.00  0.00    +0.140 HD
ATOM      7  H   UNL     1      -5.557  -0.742  -6.479  0.00  0.00    +0.139 HD
ATOM      8  H   UNL     1      -6.173  -3.550  -6.267  0.00  0.00    -0.074 HD
ENDROOT
BRANCH   4   9
ATOM      9  C   UNL     1      -4.615  -2.612  -7.904  0.00  0.00    -0.046 A 
ATOM     10  C   UNL     1      -4.251  -3.942  -7.805  0.00  0.00    +0.007 A 
ATOM     11  C   UNL     1      -2.919  -4.301  -7.864  0.00  0.00    +0.046 A 
ATOM     12  C   UNL     1      -1.945  -3.326  -8.024  0.00  0.00    +0.120 A 
ATOM     13  C   UNL     1      -2.312  -1.992  -8.123  0.00  0.00    +0.046 A 
ATOM     14  C   UNL     1      -3.646  -1.638  -8.069  0.00  0.00    +0.007 A 
BRANCH  12  15
ATOM     15  O   UNL     1      -0.633  -3.677  -8.082  0.00  0.00    -0.495 OA
ATOM     16  C   UNL     1       0.315  -2.620  -8.247  0.00  0.00    +0.277 C 
ENDBRANCH  12  15
ENDBRANCH   4   9
BRANCH   1  17
ATOM     17  S   UNL     1      -7.459  -2.326  -4.422  0.00  0.00    -0.152 S 
BRANCH  17  18
ATOM     18  C   UNL     1      -5.758  -1.714  -4.267  0.00  0.00    +0.148 C 
BRANCH  18  19
ATOM     19  C   UNL     1      -5.357  -1.706  -2.814  0.00  0.00    +0.171 C 
ATOM     20  O   UNL     1      -6.142  -2.078  -1.966  0.00  0.00    -0.291 OA
BRANCH  19  26
ATOM     21  C   UNL     1      -1.412  -0.526   0.013  0.00  0.00    -0.024 A 
ATOM     22  C   UNL     1      -2.010  -0.859   1.177  0.00  0.00    +0.005 A 
ATOM     23  C   UNL     1      -3.325  -1.347   1.223  0.00  0.00    +0.001 A 
ATOM     24  C   UNL     1      -4.077  -1.516   0.112  0.00  0.00    +0.010 A 
ATOM     25  C   UNL     1      -3.548  -1.198  -1.161  0.00  0.00    +0.006 A 
ATOM     26  C   UNL     1      -4.069  -1.267  -2.441  0.00  0.00    +0.024 C 
ATOM     27  C   UNL     1      -2.969  -0.774  -3.355  0.00  0.00    +0.152 C 
ATOM     28  N   UNL     1      -1.837  -0.441  -2.485  0.00  0.00    -0.380 N 
ATOM     29  C   UNL     1      -2.162  -0.673  -1.245  0.00  0.00    +0.046 A 
ATOM     30  H   UNL     1      -0.981  -0.097  -2.785  0.00  0.00    +0.160 HD
BRANCH  21  32
ATOM     31  C   UNL     1      -0.019   1.526   0.010  0.00  0.00    +0.009 C 
ATOM     32  C   UNL     1       0.002  -0.004   0.002  0.00  0.00    +0.034 C 
ENDBRANCH  21  32
ENDBRANCH  19  26
ENDBRANCH  18  19
ENDBRANCH  17  18
ENDBRANCH   1  17
BRANCH   5  33
ATOM     33  C   UNL     1      -7.513  -4.158  -7.692  0.00  0.00    +0.055 C 
BRANCH  33  34
ATOM     34  C   UNL     1      -8.194  -5.112  -6.744  0.00  0.00    +0.340 C 
ATOM     35  O   UNL     1      -8.102  -4.944  -5.540  0.00  0.00    -0.249 OA
ATOM     36  O   UNL     1      -8.837  -6.051  -7.182  0.00  0.00    -0.249 OA
ENDBRANCH  33  34
ENDBRANCH   5  33
TORSDOF 9
