REMARK  Name = ZINC15195506
REMARK  9 active torsions:
REMARK  status: ('A' for Active; 'I' for Inactive)
REMARK    1  A    between atoms: C_1  and  C_2
REMARK    2  A    between atoms: C_4  and  C_14
REMARK    3  A    between atoms: N_6  and  C_7
REMARK    4  A    between atoms: N_16  and  C_17
REMARK    5  A    between atoms: C_19  and  S_26
REMARK    6  A    between atoms: C_22  and  N_23
REMARK    7  A    between atoms: N_23  and  C_24
REMARK    8  A    between atoms: N_23  and  C_25
REMARK    9  A    between atoms: S_26  and  N_29
REMARK                            x       y       z     vdW  Elec       q    Type
REMARK                         _______ _______ _______ _____ _____    ______ ____
ROOT
ATOM      1  C   UNL     1       5.300  -0.665  -2.042  0.00  0.00    +0.057 A 
ATOM      2  C   UNL     1       4.853  -0.355  -0.767  0.00  0.00    +0.053 A 
ATOM      3  C   UNL     1       3.947  -1.183  -0.131  0.00  0.00    +0.107 A 
ATOM      4  C   UNL     1       3.489  -2.326  -0.760  0.00  0.00    +0.030 A 
ATOM      5  C   UNL     1       3.925  -2.640  -2.034  0.00  0.00    +0.027 A 
ATOM      6  C   UNL     1       4.834  -1.815  -2.679  0.00  0.00    +0.051 A 
ENDROOT
BRANCH   1   9
ATOM      7  C   UNL     1       7.037   0.961  -1.964  0.00  0.00    +0.287 C 
ATOM      8  O   UNL     1       7.050   0.873  -0.752  0.00  0.00    -0.266 OA
ATOM      9  N   UNL     1       6.218   0.173  -2.688  0.00  0.00    -0.277 N 
ATOM     10  H   UNL     1       6.264   0.186  -3.657  0.00  0.00    +0.155 HD
BRANCH   7  14
ATOM     11  C   UNL     1       9.317   3.627  -5.504  0.00  0.00    +0.088 C 
ATOM     12  C   UNL     1       8.891   3.072  -4.170  0.00  0.00    +0.131 A 
ATOM     13  N   UNL     1       8.005   2.129  -3.973  0.00  0.00    -0.207 NA
ATOM     14  C   UNL     1       7.918   1.934  -2.644  0.00  0.00    +0.237 A 
ATOM     15  N   UNL     1       8.759   2.757  -2.057  0.00  0.00    -0.140 NA
ATOM     16  N   UNL     1       9.356   3.453  -2.963  0.00  0.00    -0.217 N 
BRANCH  16  17
ATOM     17  C   UNL     1      10.325   4.439  -2.732  0.00  0.00    +0.068 A 
ATOM     18  C   UNL     1      11.376   4.604  -3.625  0.00  0.00    +0.030 A 
ATOM     19  C   UNL     1      12.327   5.579  -3.400  0.00  0.00    +0.040 A 
ATOM     20  C   UNL     1      12.239   6.386  -2.277  0.00  0.00    +0.124 A 
ATOM     21  C   UNL     1      11.195   6.221  -1.383  0.00  0.00    +0.040 A 
ATOM     22  C   UNL     1      10.239   5.250  -1.608  0.00  0.00    +0.030 A 
ATOM     23  F   UNL     1      13.173   7.336  -2.055  0.00  0.00    -0.205 F 
ENDBRANCH  16  17
ENDBRANCH   7  14
ENDBRANCH   1   9
BRANCH   6  24
ATOM     24  N   UNL     1       5.281  -2.135  -3.966  0.00  0.00    -0.335 N 
ATOM     25  C   UNL     1       5.954  -3.440  -3.980  0.00  0.00    +0.129 C 
ATOM     26  C   UNL     1       4.174  -2.103  -4.931  0.00  0.00    +0.129 C 
ENDBRANCH   6  24
BRANCH   3  27
ATOM     27  S   UNL     1       3.381  -0.786   1.490  0.00  0.00    +0.061 S 
ATOM     28  O   UNL     1       4.378   0.039   2.078  0.00  0.00    -0.153 OA
ATOM     29  O   UNL     1       2.956  -2.006   2.082  0.00  0.00    -0.153 OA
BRANCH  27  30
ATOM     30  N   UNL     1       2.029   0.154   1.319  0.00  0.00    -0.177 NA
ATOM     31  C   UNL     1       0.696  -0.458   1.244  0.00  0.00    +0.109 C 
ATOM     32  C   UNL     1      -0.008   0.046  -0.019  0.00  0.00    +0.017 C 
ATOM     33  C   UNL     1      -0.019   1.576  -0.016  0.00  0.00    +0.003 C 
ATOM     34  C   UNL     1       1.419   2.098  -0.024  0.00  0.00    +0.017 C 
ATOM     35  C   UNL     1       2.140   1.617   1.240  0.00  0.00    +0.109 C 
ENDBRANCH  27  30
ENDBRANCH   3  27
TORSDOF 6
