REMARK  Name = ZINC57663340
REMARK  12 active torsions:
REMARK  status: ('A' for Active; 'I' for Inactive)
REMARK    1  A    between atoms: C_1  and  C_2
REMARK    2  A    between atoms: C_2  and  C_3
REMARK    3  A    between atoms: C_2  and  O_4
REMARK    4  A    between atoms: O_4  and  C_5
REMARK    5  A    between atoms: C_8  and  C_12
REMARK    6  A    between atoms: C_10  and  N_11
REMARK    7  A    between atoms: C_12  and  C_14
REMARK    8  A    between atoms: C_12  and  O_24
REMARK    9  A    between atoms: C_14  and  C_15
REMARK   10  A    between atoms: C_15  and  N_16
REMARK   11  A    between atoms: N_16  and  C_17
REMARK   12  A    between atoms: N_16  and  C_18
REMARK                            x       y       z     vdW  Elec       q    Type
REMARK                         _______ _______ _______ _____ _____    ______ ____
ROOT
ATOM      1  C   UNL     1      -2.316  -0.981   5.900  0.00  0.00    +0.143 C 
ENDROOT
BRANCH   1   5
ATOM      2  C   UNL     1      -0.032  -0.600   2.304  0.00  0.00    +0.141 A 
ATOM      3  C   UNL     1      -1.399  -0.377   2.287  0.00  0.00    +0.048 A 
ATOM      4  C   UNL     1      -2.134  -0.501   3.451  0.00  0.00    +0.010 A 
ATOM      5  C   UNL     1      -1.509  -0.848   4.635  0.00  0.00    -0.017 A 
ATOM      6  C   UNL     1      -0.145  -1.073   4.660  0.00  0.00    +0.032 A 
ATOM      7  C   UNL     1       0.598  -0.955   3.495  0.00  0.00    +0.067 A 
BRANCH   7   8
ATOM      8  N   UNL     1       1.978  -1.188   3.517  0.00  0.00    -0.355 N 
ATOM      9  H   UNL     1       2.497  -1.102   2.702  0.00  0.00    +0.142 HD
ATOM     10  H   UNL     1       2.415  -1.435   4.346  0.00  0.00    +0.142 HD
ENDBRANCH   7   8
BRANCH   2  11
ATOM     11  O   UNL     1       0.693  -0.477   1.160  0.00  0.00    -0.488 OA
BRANCH  11  13
ATOM     12  C   UNL     1      -0.294   1.265  -0.193  0.00  0.00    +0.051 C 
ATOM     13  C   UNL     1      -0.034  -0.235  -0.046  0.00  0.00    +0.167 C 
ATOM     14  C   UNL     1       0.782  -0.731  -1.242  0.00  0.00    +0.051 C 
ENDBRANCH  11  13
ENDBRANCH   2  11
ENDBRANCH   1   5
BRANCH   1  15
ATOM     15  O   UNL     1      -3.563  -1.614   5.606  0.00  0.00    -0.387 OA
ATOM     16  H   UNL     1      -4.108  -1.132   4.969  0.00  0.00    +0.210 HD
ENDBRANCH   1  15
BRANCH   1  17
ATOM     17  C   UNL     1      -2.576   0.407   6.488  0.00  0.00    +0.017 C 
BRANCH  17  18
ATOM     18  C   UNL     1      -3.287   0.266   7.836  0.00  0.00    -0.076 C 
BRANCH  18  19
ATOM     19  N   UNL     1      -3.536   1.599   8.400  0.00  0.00    +0.380 N 
ATOM     20  C   UNL     1      -4.477   2.328   7.539  0.00  0.00    -0.096 C 
ATOM     21  H   UNL     1      -2.667   2.109   8.455  0.00  0.00    -0.082 HD
BRANCH  19  22
ATOM     22  C   UNL     1      -4.109   1.462   9.746  0.00  0.00    -0.069 C 
ATOM     23  C   UNL     1      -3.129   0.704  10.643  0.00  0.00    -0.015 C 
ATOM     24  C   UNL     1      -3.726   0.561  12.044  0.00  0.00    -0.002 C 
ATOM     25  C   UNL     1      -3.985   1.949  12.632  0.00  0.00    -0.000 C 
ATOM     26  C   UNL     1      -4.965   2.708  11.735  0.00  0.00    -0.002 C 
ATOM     27  C   UNL     1      -4.369   2.851  10.334  0.00  0.00    -0.015 C 
ENDBRANCH  19  22
ENDBRANCH  18  19
ENDBRANCH  17  18
ENDBRANCH   1  17
TORSDOF 9
