REMARK  Name = ZINC02127187
REMARK  7 active torsions:
REMARK  status: ('A' for Active; 'I' for Inactive)
REMARK    1  A    between atoms: C_1  and  C_2
REMARK    2  A    between atoms: C_16  and  C_18
REMARK    3  A    between atoms: C_18  and  C_19
REMARK    4  A    between atoms: N_24  and  C_27
REMARK    5  A    between atoms: C_27  and  C_28
REMARK    6  A    between atoms: C_31  and  O_34
REMARK    7  A    between atoms: O_34  and  C_35
REMARK                            x       y       z     vdW  Elec       q    Type
REMARK                         _______ _______ _______ _____ _____    ______ ____
ROOT
ATOM      1  C   UNL     1      -0.061   5.351   0.036  0.00  0.00    +0.046 C 
ATOM      2  C   UNL     1      -0.048   3.844   0.025  0.00  0.00    -0.028 A 
ATOM      3  C   UNL     1       1.155   3.167   0.009  0.00  0.00    +0.025 A 
ATOM      4  C   UNL     1       1.177   1.784   0.000  0.00  0.00    +0.042 A 
ATOM      5  C   UNL     1      -0.013   1.076   0.008  0.00  0.00    +0.024 A 
ATOM      6  C   UNL     1      -1.214   1.747   0.017  0.00  0.00    -0.026 A 
ATOM      7  C   UNL     1      -1.248   3.139   0.032  0.00  0.00    +0.039 A 
ATOM      8  N   UNL     1      -2.571   3.589   0.045  0.00  0.00    -0.286 N 
ATOM      9  C   UNL     1      -3.454   2.572   0.030  0.00  0.00    +0.211 C 
ATOM     10  O   UNL     1      -4.663   2.663   0.035  0.00  0.00    -0.277 OA
ATOM     11  C   UNL     1      -2.649   1.301   0.019  0.00  0.00    +0.050 C 
ATOM     12  C   UNL     1      -2.973   0.444  -1.210  0.00  0.00    +0.088 C 
ATOM     13  C   UNL     1      -3.982  -0.619  -0.692  0.00  0.00    +0.073 C 
ATOM     14  C   UNL     1      -4.184  -0.277   0.799  0.00  0.00    -0.049 C 
ATOM     15  C   UNL     1      -5.254  -0.312  -1.449  0.00  0.00    +0.224 C 
ATOM     16  O   UNL     1      -6.296  -0.923  -1.345  0.00  0.00    -0.275 OA
ATOM     17  N   UNL     1      -5.051   0.739  -2.252  0.00  0.00    -0.237 N 
ATOM     18  C   UNL     1      -3.815   1.249  -2.198  0.00  0.00    +0.225 C 
ATOM     19  O   UNL     1      -3.422   2.200  -2.838  0.00  0.00    -0.275 OA
ATOM     20 CL   UNL     1       2.693   0.938  -0.021  0.00  0.00    -0.084 Cl
ATOM     21  H   UNL     1      -2.824   4.526   0.053  0.00  0.00    +0.155 HD
ATOM     22  N   UNL     1      -2.973   0.463   1.160  0.00  0.00    +0.394 N 
ATOM     23  H   UNL     1      -3.145   1.043   1.989  0.00  0.00    -0.083 HD
ATOM     24  H   UNL     1      -2.203  -0.188   1.352  0.00  0.00    -0.083 HD
ENDROOT
BRANCH  14  25
ATOM     25  C   UNL     1      -4.323  -1.558   1.625  0.00  0.00    +0.080 C 
BRANCH  25  26
ATOM     26  C   UNL     1      -4.565  -1.201   3.069  0.00  0.00    +0.209 C 
ATOM     27  O   UNL     1      -4.622  -0.037   3.405  0.00  0.00    -0.276 OA
ATOM     28  N   UNL     1      -4.719  -2.175   3.987  0.00  0.00    -0.329 N 
ATOM     29  H   UNL     1      -4.674  -3.106   3.719  0.00  0.00    +0.145 HD
ATOM     30  H   UNL     1      -4.875  -1.946   4.917  0.00  0.00    +0.145 HD
ENDBRANCH  25  26
ENDBRANCH  14  25
BRANCH  17  31
ATOM     31  C   UNL     1      -6.097   1.287  -3.119  0.00  0.00    +0.151 C 
BRANCH  31  32
ATOM     32  C   UNL     1      -6.862   2.349  -2.374  0.00  0.00    -0.029 A 
ATOM     33  C   UNL     1      -7.982   2.006  -1.638  0.00  0.00    +0.009 A 
ATOM     34  C   UNL     1      -8.682   2.977  -0.949  0.00  0.00    +0.046 A 
ATOM     35  C   UNL     1      -8.267   4.300  -1.005  0.00  0.00    +0.120 A 
ATOM     36  C   UNL     1      -7.147   4.643  -1.748  0.00  0.00    +0.046 A 
ATOM     37  C   UNL     1      -6.447   3.667  -2.431  0.00  0.00    +0.009 A 
BRANCH  35  38
ATOM     38  O   UNL     1      -8.957   5.258  -0.332  0.00  0.00    -0.495 OA
ATOM     39  C   UNL     1     -10.100   4.833   0.413  0.00  0.00    +0.277 C 
ENDBRANCH  35  38
ENDBRANCH  31  32
ENDBRANCH  17  31
TORSDOF 5
