REMARK  Name = ZINC39300817
REMARK  5 active torsions:
REMARK  status: ('A' for Active; 'I' for Inactive)
REMARK    1  A    between atoms: C_1  and  C_2
REMARK    2  A    between atoms: C_8  and  C_10
REMARK    3  A    between atoms: C_13  and  N_16
REMARK    4  A    between atoms: C_19  and  N_24
REMARK    5  A    between atoms: N_24  and  C_25
REMARK                            x       y       z     vdW  Elec       q    Type
REMARK                         _______ _______ _______ _____ _____    ______ ____
ROOT
ATOM      1  N   UNL     1       1.336  -5.094   6.581  0.00  0.00    -0.301 N 
ATOM      2  C   UNL     1       0.907  -6.166   7.351  0.00  0.00    +0.106 A 
ATOM      3  C   UNL     1       1.741  -6.719   8.318  0.00  0.00    +0.085 A 
ATOM      4  C   UNL     1       1.268  -7.793   9.065  0.00  0.00    +0.130 A 
ATOM      5  N   UNL     1       0.040  -8.253   8.833  0.00  0.00    -0.201 NA
ATOM      6  C   UNL     1      -0.726  -7.702   7.904  0.00  0.00    +0.193 A 
ATOM      7  N   UNL     1      -0.311  -6.675   7.178  0.00  0.00    -0.316 N 
ATOM      8  N   UNL     1      -1.996  -8.208   7.691  0.00  0.00    -0.329 N 
ATOM      9  H   UNL     1       2.271  -5.018   6.334  0.00  0.00    +0.154 HD
ATOM     10  H   UNL     1      -2.315  -8.957   8.219  0.00  0.00    +0.145 HD
ATOM     11  H   UNL     1      -2.568  -7.814   7.014  0.00  0.00    +0.145 HD
ATOM     12  H   UNL     1      -0.900  -6.292   6.509  0.00  0.00    +0.170 HD
ENDROOT
BRANCH   1  16
ATOM     13  C   UNL     1      -1.389  -2.204   5.333  0.00  0.00    +0.037 A 
ATOM     14  C   UNL     1      -0.132  -2.290   4.727  0.00  0.00    +0.015 A 
ATOM     15  C   UNL     1       0.766  -3.246   5.142  0.00  0.00    +0.024 A 
ATOM     16  C   UNL     1       0.425  -4.128   6.164  0.00  0.00    +0.032 A 
ATOM     17  C   UNL     1      -0.826  -4.045   6.769  0.00  0.00    +0.024 A 
ATOM     18  C   UNL     1      -1.726  -3.086   6.363  0.00  0.00    +0.015 A 
BRANCH  13  26
ATOM     19  C   UNL     1      -4.847  -2.187   0.148  0.00  0.00    +0.007 C 
ATOM     20  C   UNL     1      -3.859  -1.483   1.080  0.00  0.00    -0.011 C 
ATOM     21  C   UNL     1      -2.888  -2.512   1.665  0.00  0.00    +0.022 C 
ATOM     22  C   UNL     1      -1.879  -1.798   2.570  0.00  0.00    +0.108 C 
ATOM     23  N   UNL     1      -2.613  -1.021   3.577  0.00  0.00    -0.298 N 
ATOM     24  C   UNL     1      -3.636  -0.067   3.126  0.00  0.00    +0.108 C 
ATOM     25  C   UNL     1      -4.626  -0.800   2.215  0.00  0.00    +0.022 C 
ATOM     26  C   UNL     1      -2.354  -1.180   4.890  0.00  0.00    +0.247 C 
ATOM     27  O   UNL     1      -2.917  -0.480   5.710  0.00  0.00    -0.270 OA
ENDBRANCH  13  26
ENDBRANCH   1  16
BRANCH   4  28
ATOM     28  N   UNL     1       2.064  -8.377  10.040  0.00  0.00    -0.299 N 
ATOM     29  H   UNL     1       2.922  -7.984  10.263  0.00  0.00    +0.154 HD
BRANCH  28  30
ATOM     30  C   UNL     1       1.629  -9.531  10.699  0.00  0.00    +0.034 A 
ATOM     31  C   UNL     1       0.838 -10.468  10.036  0.00  0.00    +0.025 A 
ATOM     32  C   UNL     1       0.402 -11.597  10.653  0.00  0.00    +0.031 A 
ATOM     33  C   UNL     1       0.739 -11.866  12.001  0.00  0.00    +0.078 A 
ATOM     34  C   UNL     1       1.543 -10.900  12.649  0.00  0.00    +0.041 A 
ATOM     35  C   UNL     1       1.986  -9.762  12.021  0.00  0.00    +0.040 A 
ATOM     36  S   UNL     1       1.731 -11.597  14.273  0.00  0.00    -0.075 S 
ATOM     37  C   UNL     1       0.764 -13.074  13.995  0.00  0.00    +0.157 A 
ATOM     38  N   UNL     1       0.390 -12.932  12.752  0.00  0.00    -0.247 NA
ENDBRANCH  28  30
ENDBRANCH   4  28
TORSDOF 4
