REMARK  Name = ZINC12661768
REMARK  10 active torsions:
REMARK  status: ('A' for Active; 'I' for Inactive)
REMARK    1  A    between atoms: C_1  and  C_2
REMARK    2  A    between atoms: C_13  and  O_30
REMARK    3  A    between atoms: C_17  and  C_29
REMARK    4  A    between atoms: C_22  and  C_28
REMARK    5  A    between atoms: C_23  and  C_25
REMARK    6  A    between atoms: C_25  and  C_27
REMARK    7  A    between atoms: O_30  and  C_31
REMARK    8  A    between atoms: C_31  and  C_33
REMARK    9  A    between atoms: C_33  and  C_34
REMARK   10  A    between atoms: C_34  and  N_81
REMARK                            x       y       z     vdW  Elec       q    Type
REMARK                         _______ _______ _______ _____ _____    ______ ____
ROOT
ATOM      1  C   UNL     1      -0.453   3.927  -2.057  0.00  0.00    +0.008 C 
ATOM      2  C   UNL     1       0.261   2.584  -1.887  0.00  0.00    -0.003 C 
ATOM      3  C   UNL     1      -0.618   1.597  -1.104  0.00  0.00    +0.008 C 
ATOM      4  C   UNL     1       0.174   1.153   0.145  0.00  0.00    -0.000 C 
ATOM      5  C   UNL     1      -0.550   1.620   1.398  0.00  0.00    +0.000 C 
ATOM      6  C   UNL     1      -1.166   3.005   1.243  0.00  0.00    +0.031 C 
ATOM      7  C   UNL     1      -1.789   3.433   2.544  0.00  0.00    -0.027 C 
ATOM      8  C   UNL     1      -1.426   2.971   3.703  0.00  0.00    -0.064 C 
ATOM      9  C   UNL     1      -2.124   3.515   4.938  0.00  0.00    +0.075 C 
ATOM     10  C   UNL     1      -1.050   4.006   5.913  0.00  0.00    +0.180 C 
ATOM     11  C   UNL     1      -0.090   2.857   6.226  0.00  0.00    +0.046 C 
ATOM     12  C   UNL     1       0.639   2.426   4.955  0.00  0.00    +0.015 C 
ATOM     13  C   UNL     1      -0.351   1.942   3.894  0.00  0.00    -0.008 C 
ATOM     14  C   UNL     1       0.379   1.598   2.608  0.00  0.00    +0.003 C 
ATOM     15  C   UNL     1       1.527   2.573   2.341  0.00  0.00    +0.005 C 
ATOM     16  C   UNL     1       2.367   2.011   1.201  0.00  0.00    +0.008 C 
ATOM     17  C   UNL     1       1.596   1.666  -0.044  0.00  0.00    -0.019 C 
ATOM     18  C   UNL     1       1.569   2.769  -1.102  0.00  0.00    +0.064 C 
ATOM     19  C   UNL     1       2.385   0.490  -0.695  0.00  0.00    +0.012 C 
ATOM     20  C   UNL     1      -1.008   0.653   4.405  0.00  0.00    +0.016 C 
ENDROOT
BRANCH  18  21
ATOM     21  C   UNL     1       1.659   4.152  -0.529  0.00  0.00    +0.134 C 
ATOM     22  O   UNL     1       1.160   4.396   0.543  0.00  0.00    -0.297 OA
ATOM     23  C   UNL     1       2.373   5.238  -1.292  0.00  0.00    +0.086 C 
ENDBRANCH  18  21
BRANCH  10  24
ATOM     24  O   UNL     1      -1.679   4.462   7.140  0.00  0.00    -0.461 OA
BRANCH  24  25
ATOM     25  C   UNL     1      -2.030   5.756   7.200  0.00  0.00    +0.306 C 
ATOM     26  O   UNL     1      -1.819   6.483   6.259  0.00  0.00    -0.251 OA
BRANCH  25  27
ATOM     27  C   UNL     1      -2.687   6.301   8.442  0.00  0.00    +0.102 C 
BRANCH  27  28
ATOM     28  C   UNL     1      -2.982   7.790   8.251  0.00  0.00    -0.068 C 
BRANCH  28  34
ATOM     29  C   UNL     1      -4.947   7.720   9.663  0.00  0.00    -0.079 C 
ATOM     30  C   UNL     1      -5.521   8.185  11.003  0.00  0.00    -0.019 C 
ATOM     31  C   UNL     1      -5.628   9.713  11.005  0.00  0.00    -0.004 C 
ATOM     32  C   UNL     1      -4.243  10.313  10.745  0.00  0.00    -0.019 C 
ATOM     33  C   UNL     1      -3.706   9.787   9.412  0.00  0.00    -0.079 C 
ATOM     34  N   UNL     1      -3.605   8.313   9.484  0.00  0.00    +0.380 N 
ATOM     35  H   UNL     1      -3.019   8.058  10.288  0.00  0.00    -0.082 HD
ENDBRANCH  28  34
ENDBRANCH  27  28
ENDBRANCH  25  27
ENDBRANCH  24  25
ENDBRANCH  10  24
TORSDOF 6
