REMARK  Name = ZINC21335509
REMARK  6 active torsions:
REMARK  status: ('A' for Active; 'I' for Inactive)
REMARK    1  A    between atoms: C_1  and  C_2
REMARK    2  A    between atoms: C_2  and  C_3
REMARK    3  A    between atoms: C_3  and  C_25
REMARK    4  A    between atoms: N_6  and  N_10
REMARK    5  A    between atoms: C_11  and  C_13
REMARK    6  A    between atoms: C_13  and  N_14
REMARK                            x       y       z     vdW  Elec       q    Type
REMARK                         _______ _______ _______ _____ _____    ______ ____
ROOT
ATOM      1  N   UNL     1      -1.733   4.091   0.038  0.00  0.00    -0.225 N 
ATOM      2  C   UNL     1      -2.421   4.390  -1.082  0.00  0.00    +0.213 C 
ATOM      3  O   UNL     1      -2.222   3.763  -2.101  0.00  0.00    -0.276 OA
ATOM      4  H   UNL     1      -1.913   4.660   0.962  0.00  0.00    +0.173 HD
ENDROOT
BRANCH   1   8
ATOM      5  C   UNL     1       1.158   1.862   0.001  0.00  0.00    +0.111 C 
ATOM      6  C   UNL     1       0.545   3.248   0.013  0.00  0.00    +0.263 C 
ATOM      7  O   UNL     1       1.132   4.309   0.014  0.00  0.00    -0.271 OA
ATOM      8  N   UNL     1      -0.789   3.056   0.025  0.00  0.00    -0.137 N 
ATOM      9  C   UNL     1      -1.101   1.755   0.016  0.00  0.00    +0.326 C 
ATOM     10  O   UNL     1      -2.240   1.333   0.019  0.00  0.00    -0.251 OA
ATOM     11  N   UNL     1      -0.011   0.966   0.007  0.00  0.00    -0.284 N 
ATOM     12  C   UNL     1       1.990   1.653  -1.266  0.00  0.00    +0.041 C 
ATOM     13  H   UNL     1       0.132  -0.125   0.005  0.00  0.00    +0.151 HD
BRANCH   5  15
ATOM     14  C   UNL     1       2.532   0.198   1.260  0.00  0.00    +0.006 C 
ATOM     15  C   UNL     1       2.015   1.638   1.249  0.00  0.00    +0.032 C 
ENDBRANCH   5  15
ENDBRANCH   1   8
BRANCH   2  16
ATOM     16  C   UNL     1      -3.436   5.503  -1.069  0.00  0.00    +0.020 C 
BRANCH  16  17
ATOM     17  N   UNL     1      -4.043   5.629  -2.400  0.00  0.00    +0.387 N 
ATOM     18  C   UNL     1      -3.053   6.076  -3.390  0.00  0.00    -0.059 C 
ATOM     19  C   UNL     1      -3.703   6.118  -4.775  0.00  0.00    +0.088 C 
ATOM     20  N   UNL     1      -4.859   7.025  -4.744  0.00  0.00    -0.313 N 
ATOM     21  C   UNL     1      -5.849   6.579  -3.754  0.00  0.00    +0.088 C 
ATOM     22  C   UNL     1      -5.199   6.537  -2.369  0.00  0.00    -0.059 C 
ATOM     23  C   UNL     1      -5.431   7.144  -6.000  0.00  0.00    +0.160 A 
ATOM     24  N   UNL     1      -6.676   6.909  -6.370  0.00  0.00    -0.233 NA
ATOM     25  C   UNL     1      -7.060   7.078  -7.621  0.00  0.00    +0.120 A 
ATOM     26  C   UNL     1      -6.143   7.490  -8.528  0.00  0.00    +0.068 A 
ATOM     27  S   UNL     1      -4.693   7.633  -7.494  0.00  0.00    -0.061 S 
ATOM     28  H   UNL     1      -4.401   4.634  -2.703  0.00  0.00    -0.081 HD
ENDBRANCH  16  17
ENDBRANCH   2  16
TORSDOF 4
