REMARK  Name = ZINC63744042
REMARK  8 active torsions:
REMARK  status: ('A' for Active; 'I' for Inactive)
REMARK    1  A    between atoms: C_1  and  C_2
REMARK    2  A    between atoms: C_4  and  C_33
REMARK    3  A    between atoms: N_10  and  C_11
REMARK    4  A    between atoms: C_11  and  N_13
REMARK    5  A    between atoms: N_13  and  C_14
REMARK    6  A    between atoms: N_21  and  C_22
REMARK    7  A    between atoms: C_22  and  C_23
REMARK    8  A    between atoms: C_23  and  C_24
REMARK                            x       y       z     vdW  Elec       q    Type
REMARK                         _______ _______ _______ _____ _____    ______ ____
ROOT
ATOM      1  C   UNL     1       0.497  -7.112   6.030  0.00  0.00    +0.066 C 
ATOM      2  C   UNL     1       0.021  -6.663   4.672  0.00  0.00    +0.044 A 
ATOM      3  C   UNL     1      -0.040  -7.561   3.618  0.00  0.00    +0.046 A 
ATOM      4  C   UNL     1      -0.483  -7.107   2.386  0.00  0.00    +0.044 A 
ATOM      5  N   UNL     1      -0.833  -5.838   2.254  0.00  0.00    -0.217 NA
ATOM      6  C   UNL     1      -0.763  -5.006   3.282  0.00  0.00    +0.231 A 
ATOM      7  N   UNL     1      -0.349  -5.409   4.473  0.00  0.00    -0.217 NA
ATOM      8  N   UNL     1      -1.137  -3.681   3.107  0.00  0.00    -0.297 N 
ATOM      9  C   UNL     1      -0.962  -2.780   4.123  0.00  0.00    +0.195 C 
ATOM     10  N   UNL     1      -0.338  -3.146   5.229  0.00  0.00    -0.159 NA
ATOM     11  N   UNL     1      -1.432  -1.505   3.994  0.00  0.00    -0.357 N 
ATOM     12  C   UNL     1      -0.566  -8.048   1.211  0.00  0.00    +0.066 C 
ATOM     13  H   UNL     1      -1.523  -3.393   2.265  0.00  0.00    +0.171 HD
ATOM     14  H   UNL     1      -1.237  -0.845   4.677  0.00  0.00    +0.162 HD
ENDROOT
BRANCH  10  15
ATOM     15  C   UNL     1      -0.158  -2.261   6.221  0.00  0.00    +0.161 C 
ATOM     16  S   UNL     1      -1.510  -1.623   7.055  0.00  0.00    -0.016 S 
BRANCH  15  17
ATOM     17  N   UNL     1       1.087  -1.874   6.561  0.00  0.00    -0.295 N 
ATOM     18  H   UNL     1       1.848  -2.174   6.039  0.00  0.00    +0.154 HD
BRANCH  17  19
ATOM     19  C   UNL     1       1.283  -1.040   7.668  0.00  0.00    +0.033 A 
ATOM     20  C   UNL     1       0.556  -1.248   8.832  0.00  0.00    +0.026 A 
ATOM     21  C   UNL     1       0.751  -0.423   9.923  0.00  0.00    +0.040 A 
ATOM     22  C   UNL     1       1.671   0.610   9.856  0.00  0.00    +0.124 A 
ATOM     23  C   UNL     1       2.396   0.819   8.695  0.00  0.00    +0.040 A 
ATOM     24  C   UNL     1       2.209  -0.006   7.604  0.00  0.00    +0.026 A 
ATOM     25  F   UNL     1       1.860   1.415  10.924  0.00  0.00    -0.205 F 
ENDBRANCH  17  19
ENDBRANCH  15  17
ENDBRANCH  10  15
BRANCH  11  26
ATOM     26  C   UNL     1      -2.229  -1.134   2.822  0.00  0.00    +0.120 C 
BRANCH  26  27
ATOM     27  C   UNL     1      -2.534   0.365   2.867  0.00  0.00    +0.054 C 
BRANCH  27  28
ATOM     28  C   UNL     1      -3.453   0.725   1.728  0.00  0.00    -0.040 C 
ATOM     29  C   UNL     1      -4.805   0.725   1.744  0.00  0.00    -0.001 A 
ATOM     30  C   UNL     1      -5.788   0.400   2.785  0.00  0.00    +0.010 A 
ATOM     31  C   UNL     1      -7.106   0.494   2.495  0.00  0.00    +0.001 A 
ATOM     32  C   UNL     1      -7.556   0.893   1.229  0.00  0.00    +0.002 A 
ATOM     33  C   UNL     1      -6.714   1.207   0.222  0.00  0.00    +0.026 A 
ATOM     34  C   UNL     1      -5.306   1.143   0.415  0.00  0.00    +0.043 A 
ATOM     35  N   UNL     1      -4.302   1.393  -0.391  0.00  0.00    -0.380 N 
ATOM     36  C   UNL     1      -3.050   1.166   0.339  0.00  0.00    +0.144 C 
ATOM     37  H   UNL     1      -4.376   1.683  -1.313  0.00  0.00    +0.160 HD
ENDBRANCH  27  28
ENDBRANCH  26  27
ENDBRANCH  11  26
TORSDOF 6
