REMARK  Name = ZINC12432586
REMARK  13 active torsions:
REMARK  status: ('A' for Active; 'I' for Inactive)
REMARK    1  A    between atoms: C_1  and  C_2
REMARK    2  A    between atoms: C_5  and  C_7
REMARK    3  A    between atoms: C_7  and  N_64
REMARK    4  A    between atoms: C_8  and  C_9
REMARK    5  A    between atoms: C_8  and  N_64
REMARK    6  A    between atoms: C_12  and  O_28
REMARK    7  A    between atoms: C_14  and  O_15
REMARK    8  A    between atoms: O_15  and  C_16
REMARK    9  A    between atoms: C_16  and  C_17
REMARK   10  A    between atoms: C_17  and  C_19
REMARK   11  A    between atoms: C_17  and  O_27
REMARK   12  A    between atoms: C_19  and  N_67
REMARK   13  A    between atoms: O_28  and  C_29
REMARK                            x       y       z     vdW  Elec       q    Type
REMARK                         _______ _______ _______ _____ _____    ______ ____
ROOT
ATOM      1  C   UNL     1       1.419   1.768   4.785  0.00  0.00    -0.022 A 
ATOM      2  C   UNL     1       1.996   1.454   6.001  0.00  0.00    +0.009 A 
ATOM      3  C   UNL     1       3.141   0.683   6.046  0.00  0.00    +0.046 A 
ATOM      4  C   UNL     1       3.716   0.222   4.870  0.00  0.00    +0.124 A 
ATOM      5  C   UNL     1       3.137   0.532   3.649  0.00  0.00    +0.091 A 
ATOM      6  C   UNL     1       1.990   1.310   3.606  0.00  0.00    +0.125 A 
ENDROOT
BRANCH   4   7
ATOM      7  O   UNL     1       4.842  -0.537   4.915  0.00  0.00    -0.495 OA
ATOM      8  C   UNL     1       5.381  -0.822   6.207  0.00  0.00    +0.277 C 
ENDBRANCH   4   7
BRANCH   1   9
ATOM      9  C   UNL     1       0.170   2.610   4.739  0.00  0.00    -0.043 C 
BRANCH   9  10
ATOM     10  N   UNL     1      -0.999   1.730   4.552  0.00  0.00    +0.385 N 
ATOM     11  H   UNL     1      -0.896   1.211   3.672  0.00  0.00    -0.085 HD
ATOM     12  H   UNL     1      -1.053   1.068   5.335  0.00  0.00    -0.085 HD
BRANCH  10  13
ATOM     13  C   UNL     1      -2.239   2.528   4.504  0.00  0.00    -0.039 C 
BRANCH  13  18
ATOM     14  C   UNL     1      -6.498  -0.806   2.819  0.00  0.00    +0.051 C 
ATOM     15  C   UNL     1      -5.442   0.017   3.511  0.00  0.00    -0.013 A 
ATOM     16  C   UNL     1      -5.218   0.178   4.838  0.00  0.00    +0.011 A 
ATOM     17  C   UNL     1      -4.179   0.991   5.249  0.00  0.00    +0.009 A 
ATOM     18  C   UNL     1      -3.414   1.604   4.313  0.00  0.00    -0.027 A 
ATOM     19  S   UNL     1      -4.165   1.040   2.795  0.00  0.00    -0.100 S 
ENDBRANCH  13  18
ENDBRANCH  10  13
ENDBRANCH   9  10
ENDBRANCH   1   9
BRANCH   6  20
ATOM     20  O   UNL     1       1.422   1.619   2.410  0.00  0.00    -0.489 OA
BRANCH  20  21
ATOM     21  C   UNL     1       2.064   1.114   1.238  0.00  0.00    +0.258 C 
BRANCH  21  22
ATOM     22  C   UNL     1       1.286   1.562  -0.002  0.00  0.00    +0.135 C 
BRANCH  22  23
ATOM     23  O   UNL     1      -0.011   0.963   0.007  0.00  0.00    -0.390 OA
ATOM     24  H   UNL     1       0.002  -0.004   0.002  0.00  0.00    +0.210 HD
ENDBRANCH  22  23
BRANCH  22  25
ATOM     25  C   UNL     1       2.040   1.127  -1.261  0.00  0.00    -0.044 C 
BRANCH  25  33
ATOM     26  C   UNL     1       1.007   3.073  -2.264  0.00  0.00    -0.079 C 
ATOM     27  C   UNL     1       0.564   3.682  -3.594  0.00  0.00    -0.019 C 
ATOM     28  C   UNL     1      -0.867   3.233  -3.907  0.00  0.00    -0.002 C 
ATOM     29  C   UNL     1      -0.839   1.769  -4.356  0.00  0.00    -0.000 C 
ATOM     30  C   UNL     1       0.323   1.561  -5.328  0.00  0.00    -0.002 C 
ATOM     31  C   UNL     1       1.376   0.660  -4.684  0.00  0.00    -0.019 C 
ATOM     32  C   UNL     1       2.174   1.468  -3.655  0.00  0.00    -0.079 C 
ATOM     33  N   UNL     1       1.332   1.644  -2.451  0.00  0.00    +0.381 N 
ATOM     34  H   UNL     1       0.460   1.117  -2.575  0.00  0.00    -0.082 HD
ENDBRANCH  25  33
ENDBRANCH  22  25
ENDBRANCH  21  22
ENDBRANCH  20  21
ENDBRANCH   6  20
TORSDOF 11
