REMARK  Name = ZINC50009598
REMARK  5 active torsions:
REMARK  status: ('A' for Active; 'I' for Inactive)
REMARK    1  A    between atoms: C_3  and  C_20
REMARK    2  A    between atoms: C_5  and  N_7
REMARK    3  A    between atoms: C_8  and  C_10
REMARK    4  A    between atoms: C_20  and  N_21
REMARK    5  A    between atoms: C_25  and  C_26
REMARK                            x       y       z     vdW  Elec       q    Type
REMARK                         _______ _______ _______ _____ _____    ______ ____
ROOT
ATOM      1  C   UNL     1      -0.028   1.373  -0.013  0.00  0.00    +0.002 A 
ATOM      2  C   UNL     1       1.157   2.086  -0.017  0.00  0.00    +0.002 A 
ATOM      3  C   UNL     1       2.368   1.419  -0.024  0.00  0.00    -0.062 A 
ATOM      4  C   UNL     1       2.399   0.038  -0.025  0.00  0.00    +0.025 A 
ATOM      5  C   UNL     1       1.211  -0.681  -0.020  0.00  0.00    +0.034 A 
ATOM      6  C   UNL     1      -0.005  -0.008  -0.014  0.00  0.00    +0.023 A 
ENDROOT
BRANCH   5   7
ATOM      7  N   UNL     1       1.238  -2.079  -0.021  0.00  0.00    -0.279 N 
ATOM      8  C   UNL     1       0.299  -2.772   0.654  0.00  0.00    +0.284 C 
ATOM      9  O   UNL     1      -0.619  -2.185   1.194  0.00  0.00    -0.266 OA
ATOM     10  H   UNL     1       1.932  -2.550  -0.508  0.00  0.00    +0.155 HD
BRANCH   8  11
ATOM     11  C   UNL     1       0.386  -4.236   0.737  0.00  0.00    +0.191 A 
ATOM     12  C   UNL     1      -0.502  -5.036   1.383  0.00  0.00    +0.063 A 
ATOM     13  C   UNL     1      -0.020  -6.405   1.202  0.00  0.00    +0.022 A 
ATOM     14  C   UNL     1      -0.475  -7.660   1.613  0.00  0.00    +0.031 A 
ATOM     15  C   UNL     1       0.226  -8.782   1.269  0.00  0.00    +0.042 A 
ATOM     16  C   UNL     1       1.387  -8.681   0.513  0.00  0.00    +0.023 A 
ATOM     17  C   UNL     1       1.853  -7.452   0.098  0.00  0.00    +0.048 A 
ATOM     18  C   UNL     1       1.156  -6.297   0.436  0.00  0.00    +0.136 A 
ATOM     19  O   UNL     1       1.355  -4.990   0.178  0.00  0.00    -0.450 OA
ATOM     20 CL   UNL     1      -0.338 -10.342   1.779  0.00  0.00    -0.084 Cl
ENDBRANCH   8  11
ENDBRANCH   5   7
BRANCH   3  21
ATOM     21  C   UNL     1       3.657   2.201  -0.030  0.00  0.00    -0.042 C 
BRANCH  21  22
ATOM     22  N   UNL     1       4.083   2.454   1.353  0.00  0.00    +0.390 N 
ATOM     23  C   UNL     1       3.110   3.348   2.017  0.00  0.00    -0.077 C 
ATOM     24  C   UNL     1       3.968   4.249   2.940  0.00  0.00    -0.020 C 
ATOM     25  C   UNL     1       5.237   4.466   2.074  0.00  0.00    -0.008 C 
ATOM     26  C   UNL     1       5.402   3.112   1.353  0.00  0.00    +0.019 C 
ATOM     27  H   UNL     1       4.138   1.582   1.857  0.00  0.00    -0.080 HD
BRANCH  26  28
ATOM     28  C   UNL     1       6.401   2.258   2.090  0.00  0.00    +0.197 C 
ATOM     29  O   UNL     1       6.056   1.200   2.572  0.00  0.00    -0.278 OA
ATOM     30  N   UNL     1       7.679   2.669   2.213  0.00  0.00    -0.331 N 
ATOM     31  H   UNL     1       7.955   3.515   1.828  0.00  0.00    +0.145 HD
ATOM     32  H   UNL     1       8.322   2.119   2.687  0.00  0.00    +0.145 HD
ENDBRANCH  26  28
ENDBRANCH  21  22
ENDBRANCH   3  21
TORSDOF 5
