REMARK  Name = ZINC23374807
REMARK  7 active torsions:
REMARK  status: ('A' for Active; 'I' for Inactive)
REMARK    1  A    between atoms: C_6  and  C_11
REMARK    2  A    between atoms: C_11  and  N_12
REMARK    3  A    between atoms: N_15  and  C_22
REMARK    4  A    between atoms: C_16  and  C_19
REMARK    5  A    between atoms: C_19  and  C_20
REMARK    6  A    between atoms: C_20  and  O_21
REMARK    7  A    between atoms: C_22  and  C_23
REMARK                            x       y       z     vdW  Elec       q    Type
REMARK                         _______ _______ _______ _____ _____    ______ ____
ROOT
ATOM      1  N   UNL     1      -6.451   0.266   1.468  0.00  0.00    -0.300 NA
ATOM      2  C   UNL     1      -6.129  -1.048   2.042  0.00  0.00    +0.066 C 
ATOM      3  C   UNL     1      -6.567  -1.082   3.508  0.00  0.00    -0.063 C 
ATOM      4  N   UNL     1      -8.012  -0.831   3.593  0.00  0.00    +0.383 N 
ATOM      5  C   UNL     1      -8.315   0.495   3.038  0.00  0.00    -0.052 C 
ATOM      6  C   UNL     1      -7.891   0.541   1.568  0.00  0.00    +0.069 C 
ATOM      7  H   UNL     1      -8.507  -1.536   3.068  0.00  0.00    -0.081 HD
ENDROOT
BRANCH   1   8
ATOM      8  C   UNL     1      -5.993   0.357   0.075  0.00  0.00    +0.137 C 
BRANCH   8  14
ATOM      9  C   UNL     1       0.077   0.753  -0.085  0.00  0.00    +0.001 A 
ATOM     10  C   UNL     1      -0.005  -0.632  -0.068  0.00  0.00    +0.002 A 
ATOM     11  C   UNL     1      -1.229  -1.263  -0.029  0.00  0.00    +0.026 A 
ATOM     12  C   UNL     1      -2.396  -0.506  -0.007  0.00  0.00    +0.047 A 
ATOM     13  N   UNL     1      -3.734  -0.828   0.030  0.00  0.00    -0.357 N 
ATOM     14  C   UNL     1      -4.487   0.314   0.037  0.00  0.00    +0.031 A 
ATOM     15  H   UNL     1      -4.090  -1.730   0.049  0.00  0.00    +0.166 HD
ATOM     16  C   UNL     1      -3.686   1.391   0.005  0.00  0.00    +0.032 A 
ATOM     17  C   UNL     1      -2.307   0.898  -0.025  0.00  0.00    -0.000 A 
ATOM     18  C   UNL     1      -1.056   1.516  -0.059  0.00  0.00    +0.010 A 
ENDBRANCH   8  14
ENDBRANCH   1   8
BRANCH   5  19
ATOM     19  C   UNL     1      -9.818   0.761   3.144  0.00  0.00    +0.014 C 
BRANCH  19  20
ATOM     20  C   UNL     1     -10.123   2.169   2.628  0.00  0.00    +0.154 C 
BRANCH  20  21
ATOM     21  O   UNL     1     -11.505   2.465   2.842  0.00  0.00    -0.395 OA
ATOM     22  H   UNL     1     -11.771   3.344   2.539  0.00  0.00    +0.209 HD
ENDBRANCH  20  21
ENDBRANCH  19  20
ENDBRANCH   5  19
BRANCH   4  23
ATOM     23  C   UNL     1      -8.436  -0.881   4.999  0.00  0.00    -0.075 C 
BRANCH  23  24
ATOM     24  C   UNL     1      -8.244  -2.300   5.539  0.00  0.00    -0.028 C 
ATOM     25  C   UNL     1      -9.180  -3.258   4.800  0.00  0.00    +0.002 C 
ATOM     26  C   UNL     1      -8.988  -4.677   5.340  0.00  0.00    +0.000 C 
ATOM     27  C   UNL     1      -9.310  -4.701   6.836  0.00  0.00    +0.000 C 
ATOM     28  C   UNL     1      -8.374  -3.743   7.575  0.00  0.00    +0.000 C 
ATOM     29  C   UNL     1      -8.566  -2.324   7.035  0.00  0.00    +0.002 C 
ENDBRANCH  23  24
ENDBRANCH   4  23
TORSDOF 7
