REMARK  Name = ZINC34699279
REMARK  12 active torsions:
REMARK  status: ('A' for Active; 'I' for Inactive)
REMARK    1  A    between atoms: C_1  and  C_2
REMARK    2  A    between atoms: C_5  and  C_8
REMARK    3  A    between atoms: N_11  and  C_28
REMARK    4  A    between atoms: C_13  and  C_15
REMARK    5  A    between atoms: C_15  and  N_16
REMARK    6  A    between atoms: N_16  and  C_17
REMARK    7  A    between atoms: C_17  and  C_18
REMARK    8  A    between atoms: C_25  and  C_27
REMARK    9  A    between atoms: C_28  and  C_29
REMARK   10  A    between atoms: C_32  and  O_36
REMARK   11  A    between atoms: C_34  and  O_35
REMARK   12  A    between atoms: O_36  and  C_37
REMARK                            x       y       z     vdW  Elec       q    Type
REMARK                         _______ _______ _______ _____ _____    ______ ____
ROOT
ATOM      1  C   UNL     1      -0.191  -3.862  -0.113  0.00  0.00    +0.005 C 
ATOM      2  C   UNL     1       1.032  -4.034   0.823  0.00  0.00    -0.070 C 
ATOM      3  N   UNL     1       0.812  -5.373   1.426  0.00  0.00    +0.383 N 
ATOM      4  C   UNL     1      -0.641  -5.466   1.684  0.00  0.00    -0.073 C 
ATOM      5  C   UNL     1      -1.339  -4.516   0.689  0.00  0.00    -0.005 C 
ATOM      6  H   UNL     1       1.098  -6.096   0.783  0.00  0.00    -0.081 HD
ENDROOT
BRANCH   1  11
ATOM      7  C   UNL     1      -1.283   1.736  -1.046  0.00  0.00    +0.044 C 
ATOM      8  C   UNL     1      -0.998   0.276  -0.802  0.00  0.00    -0.050 A 
ATOM      9  C   UNL     1      -0.779  -0.573  -1.871  0.00  0.00    +0.003 A 
ATOM     10  C   UNL     1      -0.517  -1.912  -1.648  0.00  0.00    +0.004 A 
ATOM     11  C   UNL     1      -0.475  -2.402  -0.356  0.00  0.00    -0.046 A 
ATOM     12  C   UNL     1      -0.693  -1.553   0.713  0.00  0.00    +0.004 A 
ATOM     13  C   UNL     1      -0.950  -0.213   0.490  0.00  0.00    +0.003 A 
ENDBRANCH   1  11
BRANCH   5  14
ATOM     14  C   UNL     1      -2.258  -5.304  -0.247  0.00  0.00    +0.110 C 
BRANCH  14  15
ATOM     15  N   UNL     1      -3.393  -5.833   0.513  0.00  0.00    -0.297 N 
ATOM     16  C   UNL     1      -3.381  -7.112   0.938  0.00  0.00    +0.213 C 
ATOM     17  O   UNL     1      -4.346  -7.569   1.513  0.00  0.00    -0.276 OA
ATOM     18  C   UNL     1      -2.168  -7.975   0.699  0.00  0.00    +0.109 C 
BRANCH  15  19
ATOM     19  C   UNL     1      -4.540  -4.973   0.813  0.00  0.00    +0.142 C 
BRANCH  19  20
ATOM     20  C   UNL     1      -5.555  -5.085  -0.295  0.00  0.00    -0.030 A 
ATOM     21  C   UNL     1      -5.488  -4.235  -1.383  0.00  0.00    +0.008 A 
ATOM     22  C   UNL     1      -6.418  -4.337  -2.400  0.00  0.00    +0.038 A 
ATOM     23  C   UNL     1      -7.417  -5.293  -2.329  0.00  0.00    +0.123 A 
ATOM     24  C   UNL     1      -7.484  -6.144  -1.240  0.00  0.00    +0.038 A 
ATOM     25  C   UNL     1      -6.550  -6.043  -0.226  0.00  0.00    +0.008 A 
ATOM     26  F   UNL     1      -8.327  -5.394  -3.323  0.00  0.00    -0.205 F 
ENDBRANCH  19  20
ENDBRANCH  15  19
ENDBRANCH  14  15
ENDBRANCH   5  14
BRANCH   3  27
ATOM     27  C   UNL     1       1.559  -5.490   2.686  0.00  0.00    -0.039 C 
BRANCH  27  28
ATOM     28  C   UNL     1       3.038  -5.463   2.398  0.00  0.00    -0.022 A 
ATOM     29  C   UNL     1       3.755  -6.644   2.355  0.00  0.00    +0.009 A 
ATOM     30  C   UNL     1       5.111  -6.622   2.091  0.00  0.00    +0.046 A 
ATOM     31  C   UNL     1       5.756  -5.413   1.869  0.00  0.00    +0.124 A 
ATOM     32  C   UNL     1       5.039  -4.228   1.912  0.00  0.00    +0.091 A 
ATOM     33  C   UNL     1       3.678  -4.253   2.171  0.00  0.00    +0.122 A 
BRANCH  33  34
ATOM     34  O   UNL     1       2.971  -3.092   2.208  0.00  0.00    -0.506 OA
ATOM     35  H   UNL     1       2.933  -2.683   3.083  0.00  0.00    +0.292 HD
ENDBRANCH  33  34
BRANCH  31  36
ATOM     36  O   UNL     1       7.090  -5.393   1.610  0.00  0.00    -0.495 OA
ATOM     37  C   UNL     1       7.765  -6.652   1.581  0.00  0.00    +0.277 C 
ENDBRANCH  31  36
ENDBRANCH  27  28
ENDBRANCH   3  27
TORSDOF 9
