REMARK  Name = ZINC32060554
REMARK  7 active torsions:
REMARK  status: ('A' for Active; 'I' for Inactive)
REMARK    1  A    between atoms: C_4  and  N_7
REMARK    2  A    between atoms: N_7  and  C_8
REMARK    3  A    between atoms: C_8  and  C_9
REMARK    4  A    between atoms: C_9  and  C_10
REMARK    5  A    between atoms: N_12  and  C_13
REMARK    6  A    between atoms: C_17  and  S_19
REMARK    7  A    between atoms: S_19  and  N_22
REMARK                            x       y       z     vdW  Elec       q    Type
REMARK                         _______ _______ _______ _____ _____    ______ ____
ROOT
ATOM      1  C   UNL     1      -0.046   3.842   0.015  0.00  0.00    +0.035 A 
ATOM      2  C   UNL     1       1.168   3.167  -0.008  0.00  0.00    +0.023 A 
ATOM      3  C   UNL     1       1.188   1.786  -0.021  0.00  0.00    +0.004 A 
ATOM      4  C   UNL     1       0.001   1.076  -0.011  0.00  0.00    +0.029 A 
ATOM      5  C   UNL     1      -1.209   1.746   0.007  0.00  0.00    +0.110 A 
ATOM      6  C   UNL     1      -1.235   3.127   0.026  0.00  0.00    +0.052 A 
ENDROOT
BRANCH   1   9
ATOM      7  C   UNL     1       0.884   5.925   0.693  0.00  0.00    +0.219 C 
ATOM      8  O   UNL     1       1.808   5.332   1.208  0.00  0.00    -0.275 OA
ATOM      9  N   UNL     1      -0.069   5.242   0.029  0.00  0.00    -0.285 N 
ATOM     10  H   UNL     1      -0.865   5.784  -0.502  0.00  0.00    +0.155 HD
BRANCH   7  11
ATOM     11  C   UNL     1       0.801   7.426   0.796  0.00  0.00    +0.114 C 
BRANCH  11  12
ATOM     12  C   UNL     1       1.997   7.949   1.595  0.00  0.00    +0.111 C 
BRANCH  12  13
ATOM     13  N   UNL     1       1.917   9.409   1.695  0.00  0.00    -0.343 N 
ATOM     14  H   UNL     1       1.078   9.947   1.228  0.00  0.00    +0.146 HD
BRANCH  13  18
ATOM     15  C   UNL     1       4.861  11.520   3.747  0.00  0.00    +0.000 A 
ATOM     16  C   UNL     1       3.808  12.198   3.160  0.00  0.00    +0.002 A 
ATOM     17  C   UNL     1       2.830  11.501   2.479  0.00  0.00    +0.023 A 
ATOM     18  C   UNL     1       2.904  10.117   2.383  0.00  0.00    +0.027 A 
ATOM     19  C   UNL     1       3.961   9.439   2.978  0.00  0.00    +0.023 A 
ATOM     20  C   UNL     1       4.938  10.142   3.654  0.00  0.00    +0.002 A 
ENDBRANCH  13  18
ENDBRANCH  12  13
ENDBRANCH  11  12
ENDBRANCH   7  11
ENDBRANCH   1   9
BRANCH   5  21
ATOM     21  S   UNL     1      -2.718   0.836   0.013  0.00  0.00    +0.073 S 
ATOM     22  O   UNL     1      -3.714   1.699  -0.520  0.00  0.00    -0.150 OA
ATOM     23  O   UNL     1      -2.429  -0.435  -0.553  0.00  0.00    -0.150 OA
BRANCH  21  24
ATOM     24  N   UNL     1      -3.122   0.568   1.596  0.00  0.00    -0.205 N 
ATOM     25  C   UNL     1      -3.432   1.624   2.412  0.00  0.00    +0.088 C 
ATOM     26  N   UNL     1      -3.438   2.856   2.039  0.00  0.00    -0.375 N 
ATOM     27  C   UNL     1      -3.812   3.766   3.128  0.00  0.00    +0.114 C 
ATOM     28  C   UNL     1      -3.655   2.934   4.422  0.00  0.00    +0.028 C 
ATOM     29  C   UNL     1      -3.820   1.496   3.868  0.00  0.00    +0.072 C 
ATOM     30  H   UNL     1      -3.141  -0.458   1.993  0.00  0.00    +0.175 HD
ATOM     31  H   UNL     1      -3.179   3.119   1.003  0.00  0.00    +0.161 HD
ENDBRANCH  21  24
ENDBRANCH   5  21
TORSDOF 7
