REMARK  Name = ZINC54726728
REMARK  11 active torsions:
REMARK  status: ('A' for Active; 'I' for Inactive)
REMARK    1  A    between atoms: C_1  and  C_2
REMARK    2  A    between atoms: C_5  and  C_27
REMARK    3  A    between atoms: N_8  and  C_10
REMARK    4  A    between atoms: C_10  and  C_11
REMARK    5  A    between atoms: C_10  and  C_12
REMARK    6  A    between atoms: C_10  and  C_13
REMARK    7  A    between atoms: C_13  and  N_14
REMARK    8  A    between atoms: N_17  and  N_18
REMARK    9  A    between atoms: N_18  and  C_19
REMARK   10  A    between atoms: C_19  and  N_21
REMARK   11  A    between atoms: N_21  and  C_22
REMARK                            x       y       z     vdW  Elec       q    Type
REMARK                         _______ _______ _______ _____ _____    ______ ____
ROOT
ATOM      1  N   UNL     1       3.474  -2.390   0.904  0.00  0.00    -0.300 N 
ATOM      2  C   UNL     1       4.768  -2.196   0.578  0.00  0.00    +0.316 C 
ATOM      3  O   UNL     1       5.535  -1.721   1.393  0.00  0.00    -0.251 OA
ATOM      4  N   UNL     1       5.210  -2.529  -0.651  0.00  0.00    -0.219 N 
ATOM      5  H   UNL     1       2.862  -2.769   0.254  0.00  0.00    +0.150 HD
ATOM      6  H   UNL     1       6.141  -2.389  -0.885  0.00  0.00    +0.174 HD
ENDROOT
BRANCH   4   7
ATOM      7  N   UNL     1       4.326  -3.076  -1.589  0.00  0.00    -0.245 N 
ATOM      8  H   UNL     1       3.395  -3.216  -1.355  0.00  0.00    +0.172 HD
BRANCH   7   9
ATOM      9  C   UNL     1       4.769  -3.409  -2.818  0.00  0.00    +0.147 C 
ATOM     10  S   UNL     1       3.688  -4.078  -3.965  0.00  0.00    -0.017 S 
BRANCH   9  11
ATOM     11  N   UNL     1       6.062  -3.215  -3.144  0.00  0.00    -0.323 N 
ATOM     12  H   UNL     1       6.675  -2.836  -2.494  0.00  0.00    +0.148 HD
BRANCH  11  13
ATOM     13  C   UNL     1       6.543  -3.576  -4.479  0.00  0.00    +0.072 C 
ATOM     14  C   UNL     1       6.986  -5.054  -4.500  0.00  0.00    +0.022 C 
ATOM     15  C   UNL     1       8.227  -5.067  -5.426  0.00  0.00    +0.002 C 
ATOM     16  C   UNL     1       8.939  -3.740  -5.061  0.00  0.00    +0.002 C 
ATOM     17  C   UNL     1       7.785  -2.741  -4.836  0.00  0.00    +0.022 C 
ENDBRANCH  11  13
ENDBRANCH   9  11
ENDBRANCH   7   9
ENDBRANCH   4   7
BRANCH   1  18
ATOM     18  C   UNL     1       2.993  -2.028   2.239  0.00  0.00    +0.093 C 
BRANCH  18  19
ATOM     19  C   UNL     1       1.478  -2.227   2.306  0.00  0.00    -0.055 C 
ATOM     20  C   UNL     1       0.963  -1.768   3.672  0.00  0.00    -0.008 C 
ATOM     21  C   UNL     1       1.148  -3.707   2.108  0.00  0.00    -0.008 C 
BRANCH  19  27
ATOM     22  C   UNL     1       0.932   2.275   0.461  0.00  0.00    +0.005 C 
ATOM     23  C   UNL     1       0.574   0.799   0.278  0.00  0.00    -0.031 C 
ATOM     24  C   UNL     1      -0.949   0.636   0.288  0.00  0.00    +0.003 C 
ATOM     25  C   UNL     1      -1.294  -0.852   0.182  0.00  0.00    -0.031 C 
ATOM     26  C   UNL     1      -0.623  -1.608   1.330  0.00  0.00    -0.075 C 
ATOM     27  N   UNL     1       0.833  -1.436   1.250  0.00  0.00    +0.384 N 
ATOM     28  C   UNL     1       1.177  -0.019   1.421  0.00  0.00    -0.075 C 
ATOM     29  C   UNL     1      -0.791  -1.399  -1.155  0.00  0.00    +0.005 C 
ATOM     30  H   UNL     1       1.159  -1.752   0.349  0.00  0.00    -0.081 HD
ENDBRANCH  19  27
ENDBRANCH  18  19
ENDBRANCH   1  18
TORSDOF 7
