REMARK  Name = ZINC08453900
REMARK  13 active torsions:
REMARK  status: ('A' for Active; 'I' for Inactive)
REMARK    1  A    between atoms: C_1  and  C_2
REMARK    2  A    between atoms: C_2  and  O_3
REMARK    3  A    between atoms: O_3  and  C_4
REMARK    4  A    between atoms: C_4  and  C_6
REMARK    5  A    between atoms: C_9  and  O_29
REMARK    6  A    between atoms: N_13  and  C_20
REMARK    7  A    between atoms: C_14  and  C_15
REMARK    8  A    between atoms: C_15  and  S_16
REMARK    9  A    between atoms: S_16  and  C_17
REMARK   10  A    between atoms: C_23  and  O_26
REMARK   11  A    between atoms: O_26  and  C_27
REMARK   12  A    between atoms: O_29  and  C_30
REMARK   13  A    between atoms: C_30  and  C_32
REMARK                            x       y       z     vdW  Elec       q    Type
REMARK                         _______ _______ _______ _____ _____    ______ ____
ROOT
ATOM      1  C   UNL     1       0.030   0.033   0.085  0.00  0.00    +0.089 A 
ATOM      2  C   UNL     1       1.445  -0.380   0.028  0.00  0.00    +0.018 A 
ATOM      3  C   UNL     1       2.092  -1.613   0.019  0.00  0.00    +0.058 A 
ATOM      4  C   UNL     1       3.472  -1.660  -0.041  0.00  0.00    +0.146 A 
ATOM      5  C   UNL     1       4.211  -0.481  -0.091  0.00  0.00    +0.062 A 
ATOM      6  C   UNL     1       3.579   0.744  -0.082  0.00  0.00    +0.045 A 
ATOM      7  C   UNL     1       2.191   0.809  -0.022  0.00  0.00    +0.056 A 
ATOM      8  N   UNL     1       1.295   1.862   0.002  0.00  0.00    -0.311 N 
ATOM      9  C   UNL     1       0.023   1.398   0.065  0.00  0.00    +0.049 A 
ATOM     10 BR   UNL     1       6.099  -0.560  -0.172  0.00  0.00    -0.046 Br
ENDROOT
BRANCH   8  11
ATOM     11  C   UNL     1       1.652   3.217  -0.034  0.00  0.00    +0.047 A 
ATOM     12  C   UNL     1       1.294   4.001  -1.123  0.00  0.00    +0.030 A 
ATOM     13  C   UNL     1       1.642   5.337  -1.155  0.00  0.00    +0.047 A 
ATOM     14  C   UNL     1       2.357   5.893  -0.105  0.00  0.00    +0.120 A 
ATOM     15  C   UNL     1       2.719   5.109   0.981  0.00  0.00    +0.047 A 
ATOM     16  C   UNL     1       2.367   3.775   1.017  0.00  0.00    +0.030 A 
BRANCH  14  17
ATOM     17  O   UNL     1       2.703   7.208  -0.139  0.00  0.00    -0.495 OA
ATOM     18  C   UNL     1       2.297   7.955  -1.288  0.00  0.00    +0.277 C 
ENDBRANCH  14  17
ENDBRANCH   8  11
BRANCH   1  19
ATOM     19  C   UNL     1      -1.140  -0.850   0.150  0.00  0.00    +0.342 C 
ATOM     20  O   UNL     1      -1.671  -1.232  -0.875  0.00  0.00    -0.245 OA
BRANCH  19  21
ATOM     21  O   UNL     1      -1.625  -1.239   1.346  0.00  0.00    -0.461 OA
BRANCH  21  23
ATOM     22  C   UNL     1      -3.188  -2.444   2.773  0.00  0.00    +0.048 C 
ATOM     23  C   UNL     1      -2.785  -2.113   1.335  0.00  0.00    +0.229 C 
ENDBRANCH  21  23
ENDBRANCH  19  21
ENDBRANCH   1  19
BRANCH   9  24
ATOM     24  C   UNL     1      -1.213   2.259   0.101  0.00  0.00    +0.131 C 
BRANCH  24  25
ATOM     25  S   UNL     1      -1.776   2.578  -1.590  0.00  0.00    -0.087 S 
BRANCH  25  26
ATOM     26  C   UNL     1      -3.190   3.576  -1.258  0.00  0.00    +0.123 C 
ATOM     27  N   UNL     1      -3.517   3.856  -0.027  0.00  0.00    -0.382 N 
ATOM     28  N   UNL     1      -3.950   4.060  -2.298  0.00  0.00    -0.340 N 
ATOM     29  H   UNL     1      -4.399   4.478   0.180  0.00  0.00    +0.158 HD
ATOM     30  H   UNL     1      -4.832   4.682  -2.091  0.00  0.00    +0.144 HD
ATOM     31  H   UNL     1      -3.674   3.824  -3.337  0.00  0.00    +0.144 HD
ATOM     32  H   UNL     1      -2.909   3.469   0.805  0.00  0.00    +0.158 HD
ENDBRANCH  25  26
ENDBRANCH  24  25
ENDBRANCH   9  24
BRANCH   4  33
ATOM     33  O   UNL     1       4.110  -2.861  -0.051  0.00  0.00    -0.425 OA
BRANCH  33  34
ATOM     34  C   UNL     1       4.593  -3.304   1.121  0.00  0.00    +0.309 C 
ATOM     35  O   UNL     1       4.366  -2.692   2.138  0.00  0.00    -0.251 OA
ATOM     36  C   UNL     1       5.420  -4.563   1.167  0.00  0.00    +0.136 C 
ENDBRANCH  33  34
ENDBRANCH   4  33
TORSDOF 10
