REMARK  Name = ZINC24767373
REMARK  6 active torsions:
REMARK  status: ('A' for Active; 'I' for Inactive)
REMARK    1  A    between atoms: C_1  and  C_2
REMARK    2  A    between atoms: C_2  and  C_4
REMARK    3  A    between atoms: C_2  and  N_14
REMARK    4  A    between atoms: N_14  and  C_15
REMARK    5  A    between atoms: C_15  and  C_16
REMARK    6  A    between atoms: N_18  and  N_19
REMARK                            x       y       z     vdW  Elec       q    Type
REMARK                         _______ _______ _______ _____ _____    ______ ____
ROOT
ATOM      1  C   UNL     1       7.746   3.659  -2.349  0.00  0.00    +0.213 C 
ATOM      2  O   UNL     1       7.622   2.473  -2.566  0.00  0.00    -0.276 OA
ATOM      3  N   UNL     1       8.746   4.350  -2.931  0.00  0.00    -0.225 N 
ATOM      4  H   UNL     1       8.859   5.426  -2.734  0.00  0.00    +0.173 HD
ENDROOT
BRANCH   3   5
ATOM      5  N   UNL     1       9.643   3.696  -3.787  0.00  0.00    -0.137 N 
ATOM      6  C   UNL     1       9.629   3.812  -5.131  0.00  0.00    +0.263 C 
ATOM      7  O   UNL     1       8.868   4.475  -5.802  0.00  0.00    -0.271 OA
ATOM      8  C   UNL     1      10.762   2.941  -5.623  0.00  0.00    +0.114 C 
ATOM      9  C   UNL     1      11.794   3.781  -6.366  0.00  0.00    +0.035 C 
ATOM     10  C   UNL     1      12.946   2.887  -6.831  0.00  0.00    +0.003 C 
ATOM     11  C   UNL     1      12.400   1.791  -7.749  0.00  0.00    +0.000 C 
ATOM     12  C   UNL     1      11.384   0.941  -6.982  0.00  0.00    +0.003 C 
ATOM     13  C   UNL     1      10.226   1.828  -6.518  0.00  0.00    +0.035 C 
ATOM     14  N   UNL     1      11.340   2.381  -4.395  0.00  0.00    -0.284 N 
ATOM     15  C   UNL     1      10.623   2.885  -3.372  0.00  0.00    +0.326 C 
ATOM     16  O   UNL     1      10.840   2.629  -2.204  0.00  0.00    -0.251 OA
ATOM     17  H   UNL     1      12.196   1.693  -4.454  0.00  0.00    +0.151 HD
ENDBRANCH   3   5
BRANCH   1  18
ATOM     18  C   UNL     1       6.782   4.362  -1.428  0.00  0.00    +0.017 C 
BRANCH  18  19
ATOM     19  N   UNL     1       5.793   3.398  -0.926  0.00  0.00    +0.389 N 
ATOM     20  H   UNL     1       6.322   2.599  -0.386  0.00  0.00    -0.084 HD
ATOM     21  H   UNL     1       5.255   2.967  -1.784  0.00  0.00    -0.084 HD
BRANCH  19  23
ATOM     22  C   UNL     1       5.414   4.091   1.392  0.00  0.00    -0.009 C 
ATOM     23  C   UNL     1       4.834   4.049  -0.024  0.00  0.00    -0.043 C 
BRANCH  23  24
ATOM     24  C   UNL     1       3.544   3.270  -0.015  0.00  0.00    -0.061 A 
ATOM     25  C   UNL     1       3.583   1.877  -0.022  0.00  0.00    +0.002 A 
ATOM     26  C   UNL     1       2.436   1.144  -0.015  0.00  0.00    +0.009 A 
ATOM     27  C   UNL     1       1.193   1.799   0.000  0.00  0.00    -0.018 A 
ATOM     28  C   UNL     1      -0.013   1.076   0.008  0.00  0.00    +0.008 A 
ATOM     29  C   UNL     1      -1.198   1.744   0.017  0.00  0.00    +0.001 A 
ATOM     30  C   UNL     1      -1.237   3.137   0.031  0.00  0.00    +0.001 A 
ATOM     31  C   UNL     1      -0.090   3.870   0.023  0.00  0.00    +0.008 A 
ATOM     32  C   UNL     1       1.153   3.215   0.008  0.00  0.00    -0.018 A 
ATOM     33  C   UNL     1       2.358   3.938  -0.001  0.00  0.00    +0.010 A 
ENDBRANCH  23  24
ENDBRANCH  19  23
ENDBRANCH  18  19
ENDBRANCH   1  18
TORSDOF 5
