REMARK  Name = ZINC63490346
REMARK  9 active torsions:
REMARK  status: ('A' for Active; 'I' for Inactive)
REMARK    1  A    between atoms: C_1  and  O_2
REMARK    2  A    between atoms: O_2  and  C_3
REMARK    3  A    between atoms: C_9  and  C_12
REMARK    4  A    between atoms: C_12  and  C_13
REMARK    5  A    between atoms: C_13  and  N_14
REMARK    6  A    between atoms: C_15  and  C_17
REMARK    7  A    between atoms: C_17  and  C_18
REMARK    8  A    between atoms: C_18  and  C_19
REMARK    9  A    between atoms: N_28  and  C_29
REMARK                            x       y       z     vdW  Elec       q    Type
REMARK                         _______ _______ _______ _____ _____    ______ ____
ROOT
ATOM      1  C   UNL     1       2.520  -7.991  -2.029  0.00  0.00    +0.099 C 
ENDROOT
BRANCH   1   3
ATOM      2  N   UNL     1       2.364  -5.942  -0.651  0.00  0.00    -0.315 N 
ATOM      3  C   UNL     1       3.102  -6.717  -1.471  0.00  0.00    +0.213 C 
ATOM      4  O   UNL     1       4.233  -6.390  -1.760  0.00  0.00    -0.276 OA
ATOM      5  H   UNL     1       1.459  -6.205  -0.420  0.00  0.00    +0.149 HD
BRANCH   2   6
ATOM      6  C   UNL     1       2.929  -4.704  -0.109  0.00  0.00    +0.108 C 
BRANCH   6   7
ATOM      7  C   UNL     1       1.893  -4.020   0.785  0.00  0.00    +0.052 C 
BRANCH   7  14
ATOM      8  C   UNL     1       1.659   0.356  -0.593  0.00  0.00    +0.121 A 
ATOM      9  C   UNL     1       2.356   1.262   0.224  0.00  0.00    +0.047 A 
ATOM     10  C   UNL     1       3.038   0.875   1.323  0.00  0.00    +0.029 A 
ATOM     11  C   UNL     1       3.067  -0.542   1.699  0.00  0.00    +0.043 A 
ATOM     12  N   UNL     1       3.641  -1.173   2.694  0.00  0.00    -0.380 N 
ATOM     13  C   UNL     1       3.335  -2.604   2.578  0.00  0.00    +0.144 C 
ATOM     14  C   UNL     1       2.475  -2.746   1.343  0.00  0.00    -0.040 C 
ATOM     15  C   UNL     1       2.332  -1.499   0.840  0.00  0.00    +0.002 A 
ATOM     16  C   UNL     1       1.619  -0.973  -0.329  0.00  0.00    +0.055 A 
ATOM     17  H   UNL     1       4.178  -0.763   3.389  0.00  0.00    +0.160 HD
BRANCH   8  19
ATOM     18  C   UNL     1       1.065   2.236  -1.922  0.00  0.00    +0.277 C 
ATOM     19  O   UNL     1       0.997   0.829  -1.682  0.00  0.00    -0.495 OA
ENDBRANCH   8  19
ENDBRANCH   7  14
ENDBRANCH   6   7
ENDBRANCH   2   6
ENDBRANCH   1   3
BRANCH   1  20
ATOM     20  C   UNL     1       3.556  -8.676  -2.922  0.00  0.00    +0.052 C 
BRANCH  20  21
ATOM     21  C   UNL     1       2.966  -9.969  -3.489  0.00  0.00    +0.165 C 
ATOM     22  N   UNL     1       1.877  -9.662  -4.424  0.00  0.00    -0.323 N 
ATOM     23  C   UNL     1       2.248 -10.175  -5.672  0.00  0.00    +0.067 A 
ATOM     24  C   UNL     1       1.586 -10.160  -6.895  0.00  0.00    +0.028 A 
ATOM     25  C   UNL     1       2.200 -10.756  -7.988  0.00  0.00    +0.019 A 
ATOM     26  C   UNL     1       3.440 -11.341  -7.828  0.00  0.00    +0.084 A 
ATOM     27  N   UNL     1       4.046 -11.341  -6.656  0.00  0.00    -0.348 N 
ATOM     28  C   UNL     1       3.499 -10.784  -5.583  0.00  0.00    +0.126 A 
ATOM     29  N   UNL     1       3.978 -10.686  -4.274  0.00  0.00    -0.266 N 
ATOM     30  H   UNL     1       1.054  -9.192  -4.216  0.00  0.00    +0.148 HD
ATOM     31  H   UNL     1       4.917 -11.761  -6.577  0.00  0.00    +0.167 HD
BRANCH  29  32
ATOM     32  C   UNL     1       5.195 -11.180  -3.798  0.00  0.00    +0.037 A 
ATOM     33  C   UNL     1       5.213 -12.220  -2.877  0.00  0.00    +0.023 A 
ATOM     34  C   UNL     1       6.418 -12.705  -2.409  0.00  0.00    +0.002 A 
ATOM     35  C   UNL     1       7.607 -12.157  -2.857  0.00  0.00    +0.000 A 
ATOM     36  C   UNL     1       7.593 -11.122  -3.774  0.00  0.00    +0.002 A 
ATOM     37  C   UNL     1       6.391 -10.636  -4.250  0.00  0.00    +0.023 A 
ENDBRANCH  29  32
ENDBRANCH  20  21
ENDBRANCH   1  20
TORSDOF 8
