REMARK  Name = ZINC51046292
REMARK  7 active torsions:
REMARK  status: ('A' for Active; 'I' for Inactive)
REMARK    1  A    between atoms: C_1  and  C_2
REMARK    2  A    between atoms: C_2  and  C_4
REMARK    3  A    between atoms: C_2  and  N_17
REMARK    4  A    between atoms: N_6  and  C_7
REMARK    5  A    between atoms: C_12  and  C_13
REMARK    6  A    between atoms: C_21  and  C_24
REMARK    7  A    between atoms: N_26  and  C_27
REMARK                            x       y       z     vdW  Elec       q    Type
REMARK                         _______ _______ _______ _____ _____    ______ ____
ROOT
ATOM      1  C   UNL     1      -0.795   1.120  -0.291  0.00  0.00    -0.004 C 
ATOM      2  C   UNL     1       0.044  -0.120   0.023  0.00  0.00    +0.016 C 
ENDROOT
BRANCH   2   3
ATOM      3  N   UNL     1      -0.811  -1.151   0.625  0.00  0.00    +0.388 N 
ATOM      4  C   UNL     1      -1.458  -0.607   1.826  0.00  0.00    -0.078 C 
ATOM      5  C   UNL     1      -2.413  -1.649   2.412  0.00  0.00    -0.018 C 
ATOM      6  C   UNL     1      -1.622  -2.907   2.782  0.00  0.00    +0.009 C 
ATOM      7  C   UNL     1      -0.892  -3.423   1.539  0.00  0.00    +0.058 C 
ATOM      8  C   UNL     1       0.007  -2.315   0.985  0.00  0.00    -0.065 C 
ATOM      9  H   UNL     1      -1.518  -1.430  -0.038  0.00  0.00    -0.081 HD
BRANCH   7  10
ATOM     10  C   UNL     1      -0.050  -4.617   1.909  0.00  0.00    +0.215 C 
ATOM     11  O   UNL     1       1.151  -4.587   1.743  0.00  0.00    -0.276 OA
ATOM     12  N   UNL     1      -0.632  -5.718   2.425  0.00  0.00    -0.312 N 
ATOM     13  H   UNL     1      -1.593  -5.742   2.557  0.00  0.00    +0.149 HD
BRANCH  12  14
ATOM     14  C   UNL     1       0.186  -6.879   2.785  0.00  0.00    +0.073 C 
ATOM     15  C   UNL     1      -0.336  -8.261   2.390  0.00  0.00    +0.024 C 
ATOM     16  C   UNL     1      -0.361  -7.824   3.856  0.00  0.00    +0.024 C 
ENDBRANCH  12  14
ENDBRANCH   7  10
ENDBRANCH   2   3
BRANCH   2  17
ATOM     17  C   UNL     1       0.651  -0.652  -1.250  0.00  0.00    +0.203 C 
ATOM     18  O   UNL     1       0.068  -1.500  -1.892  0.00  0.00    -0.277 OA
ATOM     19  N   UNL     1       1.842  -0.186  -1.676  0.00  0.00    -0.286 N 
ATOM     20  H   UNL     1       2.338   0.444  -1.131  0.00  0.00    +0.155 HD
BRANCH  19  21
ATOM     21  C   UNL     1       2.361  -0.611  -2.903  0.00  0.00    +0.045 A 
ATOM     22  C   UNL     1       2.058  -1.877  -3.386  0.00  0.00    +0.024 A 
ATOM     23  C   UNL     1       2.572  -2.294  -4.598  0.00  0.00    +0.002 A 
ATOM     24  C   UNL     1       3.389  -1.452  -5.331  0.00  0.00    +0.001 A 
ATOM     25  C   UNL     1       3.694  -0.191  -4.852  0.00  0.00    +0.014 A 
ATOM     26  C   UNL     1       3.177   0.234  -3.644  0.00  0.00    +0.076 A 
BRANCH  26  27
ATOM     27  C   UNL     1       3.503   1.612  -3.126  0.00  0.00    +0.419 C 
ATOM     28  F   UNL     1       4.334   2.269  -4.040  0.00  0.00    -0.166 F 
ATOM     29  F   UNL     1       2.321   2.341  -2.963  0.00  0.00    -0.166 F 
ATOM     30  F   UNL     1       4.158   1.504  -1.895  0.00  0.00    -0.166 F 
ENDBRANCH  26  27
ENDBRANCH  19  21
ENDBRANCH   2  17
TORSDOF 6
