REMARK  Name = ZINC54601161
REMARK  2 active torsions:
REMARK  status: ('A' for Active; 'I' for Inactive)
REMARK    1  A    between atoms: C_1  and  C_2
REMARK    2  A    between atoms: C_2  and  N_9
REMARK                            x       y       z     vdW  Elec       q    Type
REMARK                         _______ _______ _______ _____ _____    ______ ____
ROOT
ATOM      1  N   UNL     1      -1.346  -0.588   0.010  0.00  0.00    -0.289 NA
ATOM      2  C   UNL     1      -1.288  -2.041   0.193  0.00  0.00    +0.065 C 
ATOM      3  C   UNL     1      -0.657  -2.705  -1.030  0.00  0.00    +0.019 C 
ATOM      4  C   UNL     1      -1.466  -2.345  -2.279  0.00  0.00    +0.003 C 
ATOM      5  C   UNL     1      -1.492  -0.821  -2.432  0.00  0.00    +0.019 C 
ATOM      6  C   UNL     1      -2.095  -0.197  -1.187  0.00  0.00    +0.065 C 
ATOM      7  C   UNL     1      -3.554  -0.642  -1.062  0.00  0.00    +0.093 C 
ATOM      8  C   UNL     1      -3.575  -2.120  -0.734  0.00  0.00    +0.136 C 
ATOM      9  O   UNL     1      -4.266  -2.890  -1.358  0.00  0.00    -0.297 OA
ATOM     10  C   UNL     1      -2.697  -2.600   0.403  0.00  0.00    +0.093 C 
ENDROOT
BRANCH   1  12
ATOM     11  C   UNL     1       0.698  -0.362   1.317  0.00  0.00    +0.029 C 
ATOM     12  C   UNL     1       0.002  -0.004   0.002  0.00  0.00    +0.040 C 
ATOM     13  C   UNL     1      -0.127   1.516  -0.086  0.00  0.00    +0.046 C 
ATOM     14  C   UNL     1       1.120   2.123  -0.788  0.00  0.00    +0.168 C 
ATOM     15  S   UNL     1       1.382   0.852  -2.102  0.00  0.00    -0.029 S 
ATOM     16  O   UNL     1       0.490   1.102  -3.179  0.00  0.00    -0.174 OA
ATOM     17  O   UNL     1       2.774   0.725  -2.357  0.00  0.00    -0.174 OA
ATOM     18  C   UNL     1       0.801  -0.621  -1.163  0.00  0.00    +0.188 C 
ENDBRANCH   1  12
TORSDOF 1
