REMARK  Name = ZINC36629959
REMARK  9 active torsions:
REMARK  status: ('A' for Active; 'I' for Inactive)
REMARK    1  A    between atoms: C_1  and  O_2
REMARK    2  A    between atoms: O_2  and  C_3
REMARK    3  A    between atoms: C_7  and  N_9
REMARK    4  A    between atoms: C_10  and  C_12
REMARK    5  A    between atoms: C_13  and  N_29
REMARK    6  A    between atoms: C_18  and  O_27
REMARK    7  A    between atoms: C_19  and  O_25
REMARK    8  A    between atoms: O_25  and  C_26
REMARK    9  A    between atoms: O_27  and  C_28
REMARK                            x       y       z     vdW  Elec       q    Type
REMARK                         _______ _______ _______ _____ _____    ______ ____
ROOT
ATOM      1  C   UNL     1      -3.784  -6.099   0.233  0.00  0.00    +0.097 A 
ATOM      2  C   UNL     1      -4.894  -6.904   0.347  0.00  0.00    +0.053 A 
ATOM      3  C   UNL     1      -4.698  -8.346   0.443  0.00  0.00    +0.028 A 
ATOM      4  C   UNL     1      -5.686  -9.342   0.564  0.00  0.00    +0.022 A 
ATOM      5  C   UNL     1      -5.290 -10.678   0.642  0.00  0.00    +0.003 A 
ATOM      6  C   UNL     1      -6.228 -11.723   0.764  0.00  0.00    +0.059 A 
ATOM      7  C   UNL     1      -5.792 -13.011   0.836  0.00  0.00    +0.162 A 
ATOM      8  C   UNL     1      -4.426 -13.325   0.792  0.00  0.00    +0.163 A 
ATOM      9  C   UNL     1      -3.474 -12.354   0.675  0.00  0.00    +0.075 A 
ATOM     10  C   UNL     1      -3.864 -11.008   0.596  0.00  0.00    +0.051 A 
ATOM     11  N   UNL     1      -2.969 -10.024   0.481  0.00  0.00    -0.349 N 
ATOM     12  C   UNL     1      -3.343  -8.769   0.407  0.00  0.00    +0.088 A 
ATOM     13  S   UNL     1      -2.428  -7.253   0.243  0.00  0.00    -0.064 S 
ATOM     14  H   UNL     1      -2.025 -10.241   0.450  0.00  0.00    +0.166 HD
ENDROOT
BRANCH   1  16
ATOM     15  N   UNL     1      -2.543  -4.063   0.017  0.00  0.00    -0.281 N 
ATOM     16  C   UNL     1      -3.732  -4.688   0.127  0.00  0.00    +0.257 C 
ATOM     17  O   UNL     1      -4.763  -4.038   0.136  0.00  0.00    -0.269 OA
ATOM     18  H   UNL     1      -1.728  -4.583  -0.067  0.00  0.00    +0.155 HD
BRANCH  15  23
ATOM     19  C   UNL     1      -3.328  -0.551   0.783  0.00  0.00    +0.122 A 
ATOM     20  C   UNL     1      -2.361   0.102   0.031  0.00  0.00    +0.046 A 
ATOM     21  C   UNL     1      -1.460  -0.627  -0.721  0.00  0.00    +0.005 A 
ATOM     22  C   UNL     1      -1.518  -2.007  -0.727  0.00  0.00    +0.023 A 
ATOM     23  C   UNL     1      -2.484  -2.666   0.024  0.00  0.00    +0.037 A 
ATOM     24  C   UNL     1      -3.386  -1.935   0.784  0.00  0.00    +0.069 A 
BRANCH  19  26
ATOM     25  C   UNL     1      -4.095   1.591   1.474  0.00  0.00    +0.277 C 
ATOM     26  O   UNL     1      -4.214   0.167   1.522  0.00  0.00    -0.495 OA
ENDBRANCH  19  26
ENDBRANCH  15  23
ENDBRANCH   1  16
BRANCH   2  27
ATOM     27  N   UNL     1      -6.168  -6.357   0.370  0.00  0.00    -0.356 N 
ATOM     28  H   UNL     1      -6.285  -5.396   0.305  0.00  0.00    +0.142 HD
ATOM     29  H   UNL     1      -6.942  -6.935   0.451  0.00  0.00    +0.142 HD
ENDBRANCH   2  27
BRANCH   8  30
ATOM     30  O   UNL     1      -4.041 -14.626   0.868  0.00  0.00    -0.491 OA
ATOM     31  C   UNL     1      -2.638 -14.892   0.819  0.00  0.00    +0.277 C 
ENDBRANCH   8  30
BRANCH   7  32
ATOM     32  O   UNL     1      -6.702 -14.015   0.954  0.00  0.00    -0.491 OA
ATOM     33  C   UNL     1      -8.080 -13.640   0.994  0.00  0.00    +0.277 C 
ENDBRANCH   7  32
TORSDOF 6
