REMARK  Name = ZINC27039418
REMARK  8 active torsions:
REMARK  status: ('A' for Active; 'I' for Inactive)
REMARK    1  A    between atoms: C_1  and  C_2
REMARK    2  A    between atoms: C_4  and  N_9
REMARK    3  A    between atoms: C_10  and  C_12
REMARK    4  A    between atoms: C_12  and  C_14
REMARK    5  A    between atoms: C_12  and  N_15
REMARK    6  A    between atoms: N_18  and  C_21
REMARK    7  A    between atoms: C_21  and  C_22
REMARK    8  A    between atoms: N_24  and  C_25
REMARK                            x       y       z     vdW  Elec       q    Type
REMARK                         _______ _______ _______ _____ _____    ______ ____
ROOT
ATOM      1  N   UNL     1       8.374   2.927  -1.865  0.00  0.00    -0.295 NA
ATOM      2  C   UNL     1       9.312   2.176  -1.018  0.00  0.00    +0.066 C 
ATOM      3  C   UNL     1       8.581   0.993  -0.379  0.00  0.00    -0.063 C 
ATOM      4  N   UNL     1       7.444   1.489   0.409  0.00  0.00    +0.387 N 
ATOM      5  C   UNL     1       6.508   2.239  -0.439  0.00  0.00    -0.063 C 
ATOM      6  C   UNL     1       7.238   3.423  -1.077  0.00  0.00    +0.066 C 
ATOM      7  H   UNL     1       7.835   2.176   1.174  0.00  0.00    -0.081 HD
ENDROOT
BRANCH   1   8
ATOM      8  C   UNL     1       9.057   4.029  -2.557  0.00  0.00    +0.140 C 
ATOM      9  C   UNL     1       8.023   4.897  -3.277  0.00  0.00    +0.034 C 
BRANCH   8  11
ATOM     10  N   UNL     1      10.886   5.573  -1.934  0.00  0.00    -0.284 N 
ATOM     11  C   UNL     1       9.804   4.867  -1.551  0.00  0.00    +0.234 C 
ATOM     12  O   UNL     1       9.431   4.906  -0.398  0.00  0.00    -0.274 OA
ATOM     13  H   UNL     1      11.179   5.600  -2.994  0.00  0.00    +0.155 HD
BRANCH  10  17
ATOM     14  C   UNL     1      15.241   7.234  -0.369  0.00  0.00    +0.045 C 
ATOM     15  C   UNL     1      13.750   7.093  -0.199  0.00  0.00    -0.035 A 
ATOM     16  C   UNL     1      13.011   6.402  -1.139  0.00  0.00    +0.027 A 
ATOM     17  C   UNL     1      11.638   6.272  -0.982  0.00  0.00    +0.034 A 
ATOM     18  C   UNL     1      11.010   6.842   0.118  0.00  0.00    +0.024 A 
ATOM     19  C   UNL     1      11.755   7.527   1.058  0.00  0.00    +0.017 A 
ATOM     20  C   UNL     1      13.123   7.655   0.899  0.00  0.00    +0.021 A 
ATOM     21 BR   UNL     1      14.139   8.599   2.185  0.00  0.00    -0.050 Br
ENDBRANCH  10  17
ENDBRANCH   8  11
ENDBRANCH   1   8
BRANCH   4  22
ATOM     22  C   UNL     1       6.762   0.387   1.100  0.00  0.00    +0.019 C 
BRANCH  22  23
ATOM     23  C   UNL     1       5.767   0.950   2.082  0.00  0.00    +0.201 C 
ATOM     24  O   UNL     1       5.639   2.150   2.195  0.00  0.00    -0.278 OA
ATOM     25  N   UNL     1       5.019   0.118   2.835  0.00  0.00    -0.287 N 
ATOM     26  H   UNL     1       5.082  -0.969   2.681  0.00  0.00    +0.155 HD
BRANCH  25  27
ATOM     27  C   UNL     1       4.164   0.639   3.813  0.00  0.00    +0.033 A 
ATOM     28  C   UNL     1       4.548   1.749   4.554  0.00  0.00    +0.026 A 
ATOM     29  C   UNL     1       3.700   2.264   5.516  0.00  0.00    +0.040 A 
ATOM     30  C   UNL     1       2.472   1.668   5.748  0.00  0.00    +0.124 A 
ATOM     31  C   UNL     1       2.089   0.558   5.014  0.00  0.00    +0.040 A 
ATOM     32  C   UNL     1       2.932   0.043   4.048  0.00  0.00    +0.026 A 
ATOM     33  F   UNL     1       1.646   2.170   6.692  0.00  0.00    -0.205 F 
ENDBRANCH  25  27
ENDBRANCH  22  23
ENDBRANCH   4  22
TORSDOF 6
