REMARK  Name = ZINC01572629
REMARK  9 active torsions:
REMARK  status: ('A' for Active; 'I' for Inactive)
REMARK    1  A    between atoms: C_1  and  O_2
REMARK    2  A    between atoms: O_2  and  C_3
REMARK    3  A    between atoms: C_11  and  C_28
REMARK    4  A    between atoms: C_13  and  C_15
REMARK    5  A    between atoms: C_18  and  O_21
REMARK    6  A    between atoms: O_21  and  C_22
REMARK    7  A    between atoms: C_22  and  C_23
REMARK    8  A    between atoms: C_23  and  N_68
REMARK    9  A    between atoms: C_28  and  C_29
REMARK                            x       y       z     vdW  Elec       q    Type
REMARK                         _______ _______ _______ _____ _____    ______ ____
ROOT
ATOM      1  C   UNL     1      -2.424   1.341   0.022  0.00  0.00    +0.120 A 
ATOM      2  C   UNL     1      -2.402  -0.046   0.010  0.00  0.00    +0.046 A 
ATOM      3  C   UNL     1      -1.195  -0.710   0.001  0.00  0.00    +0.008 A 
ATOM      4  C   UNL     1       0.002  -0.004   0.002  0.00  0.00    -0.036 A 
ATOM      5  C   UNL     1      -0.017   1.373   0.010  0.00  0.00    -0.040 A 
ATOM      6  C   UNL     1      -1.231   2.045   0.019  0.00  0.00    +0.049 A 
ATOM      7  C   UNL     1       1.242   2.201   0.002  0.00  0.00    +0.036 C 
ATOM      8  C   UNL     1       2.444   1.356   0.417  0.00  0.00    +0.009 C 
ATOM      9  C   UNL     1       2.456   0.081  -0.434  0.00  0.00    +0.005 C 
ATOM     10  C   UNL     1       1.283  -0.797  -0.003  0.00  0.00    +0.053 C 
ENDROOT
BRANCH  10  11
ATOM     11  C   UNL     1       1.148  -1.952  -0.962  0.00  0.00    -0.039 A 
ATOM     12  C   UNL     1       0.888  -1.714  -2.298  0.00  0.00    +0.008 A 
ATOM     13  C   UNL     1       0.769  -2.771  -3.180  0.00  0.00    +0.046 A 
ATOM     14  C   UNL     1       0.901  -4.073  -2.720  0.00  0.00    +0.120 A 
ATOM     15  C   UNL     1       1.157  -4.310  -1.378  0.00  0.00    +0.046 A 
ATOM     16  C   UNL     1       1.280  -3.250  -0.501  0.00  0.00    +0.008 A 
BRANCH  14  17
ATOM     17  O   UNL     1       0.780  -5.115  -3.585  0.00  0.00    -0.494 OA
BRANCH  17  18
ATOM     18  C   UNL     1       0.516  -4.796  -4.952  0.00  0.00    +0.210 C 
BRANCH  18  19
ATOM     19  C   UNL     1       0.413  -6.087  -5.767  0.00  0.00    -0.037 C 
BRANCH  19  24
ATOM     20  C   UNL     1      -1.980  -6.023  -5.328  0.00  0.00    -0.079 C 
ATOM     21  C   UNL     1      -3.122  -7.071  -5.354  0.00  0.00    -0.020 C 
ATOM     22  C   UNL     1      -2.553  -8.178  -6.271  0.00  0.00    -0.020 C 
ATOM     23  C   UNL     1      -1.025  -7.989  -6.230  0.00  0.00    -0.079 C 
ATOM     24  N   UNL     1      -0.777  -6.870  -5.319  0.00  0.00    +0.382 N 
ATOM     25  H   UNL     1      -0.610  -7.226  -4.371  0.00  0.00    -0.082 HD
ENDBRANCH  19  24
ENDBRANCH  18  19
ENDBRANCH  17  18
ENDBRANCH  14  17
ENDBRANCH  10  11
BRANCH   1  27
ATOM     26  C   UNL     1      -4.798   1.213   0.034  0.00  0.00    +0.277 C 
ATOM     27  O   UNL     1      -3.609   2.006   0.034  0.00  0.00    -0.495 OA
ENDBRANCH   1  27
BRANCH   9  28
ATOM     28  C   UNL     1       3.770  -0.672  -0.217  0.00  0.00    +0.039 C 
BRANCH  28  29
ATOM     29  C   UNL     1       4.914   0.148  -0.756  0.00  0.00    -0.047 A 
ATOM     30  C   UNL     1       5.316  -0.008  -2.070  0.00  0.00    +0.005 A 
ATOM     31  C   UNL     1       6.362   0.747  -2.567  0.00  0.00    +0.020 A 
ATOM     32  C   UNL     1       7.012   1.652  -1.747  0.00  0.00    +0.041 A 
ATOM     33  C   UNL     1       6.613   1.803  -0.431  0.00  0.00    +0.020 A 
ATOM     34  C   UNL     1       5.564   1.051   0.064  0.00  0.00    +0.005 A 
ATOM     35 CL   UNL     1       8.329   2.596  -2.368  0.00  0.00    -0.084 Cl
ENDBRANCH  28  29
ENDBRANCH   9  28
TORSDOF 8
