REMARK  Name = ZINC66402528
REMARK  7 active torsions:
REMARK  status: ('A' for Active; 'I' for Inactive)
REMARK    1  A    between atoms: C_1  and  C_2
REMARK    2  A    between atoms: N_7  and  C_9
REMARK    3  A    between atoms: C_9  and  C_10
REMARK    4  A    between atoms: C_10  and  C_11
REMARK    5  A    between atoms: C_11  and  N_12
REMARK    6  A    between atoms: N_15  and  C_16
REMARK    7  A    between atoms: C_18  and  C_24
REMARK                            x       y       z     vdW  Elec       q    Type
REMARK                         _______ _______ _______ _____ _____    ______ ____
ROOT
ATOM      1  N   UNL     1       1.763  -5.939   3.950  0.00  0.00    -0.299 N 
ATOM      2  C   UNL     1       2.285  -6.621   4.990  0.00  0.00    +0.304 C 
ATOM      3  O   UNL     1       2.700  -6.021   5.963  0.00  0.00    -0.253 OA
ATOM      4  N   UNL     1       2.347  -7.966   4.950  0.00  0.00    -0.265 N 
ATOM      5  H   UNL     1       1.431  -6.418   3.174  0.00  0.00    +0.150 HD
ATOM      6  H   UNL     1       1.950  -8.449   4.208  0.00  0.00    +0.157 HD
ENDROOT
BRANCH   4   7
ATOM      7  C   UNL     1       2.986  -8.669   5.982  0.00  0.00    +0.100 A 
ATOM      8  C   UNL     1       2.302  -9.605   6.709  0.00  0.00    +0.042 A 
ATOM      9  C   UNL     1       2.965 -10.293   7.734  0.00  0.00    +0.073 A 
ATOM     10  C   UNL     1       4.266 -10.030   7.996  0.00  0.00    +0.098 A 
ATOM     11  N   UNL     1       4.947  -9.100   7.275  0.00  0.00    -0.327 N 
ATOM     12  H   UNL     1       5.879  -8.925   7.478  0.00  0.00    +0.168 HD
ATOM     13  C   UNL     1       4.344  -8.424   6.279  0.00  0.00    +0.270 A 
ATOM     14  O   UNL     1       4.970  -7.596   5.636  0.00  0.00    -0.266 OA
BRANCH   9  15
ATOM     15  C   UNL     1       2.228 -11.327   8.546  0.00  0.00    +0.419 C 
ATOM     16  F   UNL     1       3.092 -11.873   9.501  0.00  0.00    -0.166 F 
ATOM     17  F   UNL     1       1.141 -10.727   9.190  0.00  0.00    -0.166 F 
ATOM     18  F   UNL     1       1.767 -12.342   7.700  0.00  0.00    -0.166 F 
ENDBRANCH   9  15
ENDBRANCH   4   7
BRANCH   1  19
ATOM     19  C   UNL     1       1.695  -4.477   3.993  0.00  0.00    +0.104 C 
BRANCH  19  20
ATOM     20  C   UNL     1       1.064  -3.957   2.700  0.00  0.00    +0.000 C 
BRANCH  20  21
ATOM     21  C   UNL     1       0.994  -2.429   2.744  0.00  0.00    -0.077 C 
BRANCH  21  27
ATOM     22  C   UNL     1      -0.690   1.550   0.443  0.00  0.00    +0.005 C 
ATOM     23  C   UNL     1      -0.501   0.035   0.341  0.00  0.00    -0.031 C 
ATOM     24  C   UNL     1       0.356  -0.291  -0.886  0.00  0.00    -0.001 C 
ATOM     25  C   UNL     1       0.604  -1.802  -0.935  0.00  0.00    -0.018 C 
ATOM     26  C   UNL     1       1.268  -2.247   0.370  0.00  0.00    -0.079 C 
ATOM     27  N   UNL     1       0.389  -1.931   1.502  0.00  0.00    +0.380 N 
ATOM     28  C   UNL     1       0.202  -0.478   1.599  0.00  0.00    -0.076 C 
ATOM     29  H   UNL     1      -0.507  -2.375   1.365  0.00  0.00    -0.082 HD
ENDBRANCH  21  27
ENDBRANCH  20  21
ENDBRANCH  19  20
ENDBRANCH   1  19
TORSDOF 6
