REMARK  Name = ZINC43289163
REMARK  8 active torsions:
REMARK  status: ('A' for Active; 'I' for Inactive)
REMARK    1  A    between atoms: C_1  and  C_2
REMARK    2  A    between atoms: C_2  and  C_3
REMARK    3  A    between atoms: C_3  and  C_5
REMARK    4  A    between atoms: C_3  and  N_22
REMARK    5  A    between atoms: C_5  and  C_7
REMARK    6  A    between atoms: C_5  and  O_13
REMARK    7  A    between atoms: O_13  and  C_14
REMARK    8  A    between atoms: C_14  and  C_15
REMARK                            x       y       z     vdW  Elec       q    Type
REMARK                         _______ _______ _______ _____ _____    ______ ____
ROOT
ATOM      1  C   UNL     1      -1.451  -2.034  -0.117  0.00  0.00    +0.141 C 
ENDROOT
BRANCH   1   2
ATOM      2  C   UNL     1      -0.943  -2.401  -1.487  0.00  0.00    +0.018 A 
ATOM      3  C   UNL     1      -1.646  -2.676  -2.613  0.00  0.00    +0.029 A 
ATOM      4  C   UNL     1      -0.961  -2.992  -3.771  0.00  0.00    +0.025 A 
ATOM      5  C   UNL     1       0.395  -3.017  -3.747  0.00  0.00    +0.060 A 
ATOM      6  S   UNL     1       0.742  -2.578  -2.051  0.00  0.00    -0.098 S 
ATOM      7 BR   UNL     1      -1.899  -3.383  -5.366  0.00  0.00    -0.050 Br
ENDBRANCH   1   2
BRANCH   1   8
ATOM      8  C   UNL     1      -1.479  -0.511   0.026  0.00  0.00    -0.041 C 
BRANCH   8   9
ATOM      9  N   UNL     1      -2.101  -0.151   1.307  0.00  0.00    +0.382 N 
ATOM     10  H   UNL     1      -2.213   0.851   1.357  0.00  0.00    -0.090 HD
ATOM     11  H   UNL     1      -3.005  -0.594   1.379  0.00  0.00    -0.090 HD
ATOM     12  H   UNL     1      -1.514  -0.462   2.066  0.00  0.00    -0.090 HD
ENDBRANCH   8   9
BRANCH   8  14
ATOM     13  C   UNL     1      -0.084   1.562   0.001  0.00  0.00    +0.002 C 
ATOM     14  C   UNL     1      -0.049   0.032  -0.017  0.00  0.00    -0.017 C 
ENDBRANCH   8  14
ENDBRANCH   1   8
BRANCH   1  15
ATOM     15  O   UNL     1      -0.586  -2.590   0.876  0.00  0.00    -0.371 OA
BRANCH  15  16
ATOM     16  C   UNL     1      -0.912  -3.931   1.246  0.00  0.00    +0.192 C 
BRANCH  16  17
ATOM     17  C   UNL     1       0.143  -4.463   2.218  0.00  0.00    +0.144 C 
ATOM     18  C   UNL     1      -0.135  -5.938   2.517  0.00  0.00    +0.034 C 
ATOM     19  C   UNL     1       0.889  -6.447   3.537  0.00  0.00    +0.005 C 
ATOM     20  C   UNL     1       0.817  -5.575   4.794  0.00  0.00    +0.028 C 
ATOM     21  C   UNL     1       1.058  -4.114   4.407  0.00  0.00    +0.160 C 
ATOM     22  O   UNL     1       0.092  -3.713   3.434  0.00  0.00    -0.374 OA
ENDBRANCH  16  17
ENDBRANCH  15  16
ENDBRANCH   1  15
TORSDOF 7
