REMARK  Name = ZINC07085199
REMARK  4 active torsions:
REMARK  status: ('A' for Active; 'I' for Inactive)
REMARK    1  A    between atoms: C_1  and  C_2
REMARK    2  A    between atoms: C_3  and  C_19
REMARK    3  A    between atoms: N_9  and  C_12
REMARK    4  A    between atoms: C_12  and  C_13
REMARK                            x       y       z     vdW  Elec       q    Type
REMARK                         _______ _______ _______ _____ _____    ______ ____
ROOT
ATOM      1  C   UNL     1      -1.038   6.191   0.047  0.00  0.00    +0.045 C 
ATOM      2  C   UNL     1       0.147   5.261   0.030  0.00  0.00    -0.026 A 
ATOM      3  C   UNL     1       1.397   5.753   0.021  0.00  0.00    -0.008 A 
ATOM      4  S   UNL     1       2.416   4.290   0.003  0.00  0.00    -0.073 S 
ATOM      5  C   UNL     1       1.135   3.062   0.008  0.00  0.00    +0.116 A 
ATOM      6  C   UNL     1      -0.048   3.823   0.023  0.00  0.00    +0.075 A 
ATOM      7  C   UNL     1      -1.268   3.071   0.030  0.00  0.00    +0.262 A 
ATOM      8  O   UNL     1      -2.346   3.640   0.044  0.00  0.00    -0.267 OA
ATOM      9  N   UNL     1      -1.204   1.727   0.017  0.00  0.00    -0.296 N 
ATOM     10  C   UNL     1      -0.013   1.076   0.008  0.00  0.00    +0.203 A 
ATOM     11  N   UNL     1       1.116   1.733   0.001  0.00  0.00    -0.230 NA
ATOM     12  C   UNL     1       1.833   7.195   0.025  0.00  0.00    +0.052 C 
ENDROOT
BRANCH   9  13
ATOM     13  C   UNL     1      -2.446   0.950   0.019  0.00  0.00    +0.157 C 
BRANCH  13  14
ATOM     14  C   UNL     1      -2.872   0.671   1.462  0.00  0.00    +0.138 C 
ATOM     15  C   UNL     1      -4.146  -0.211   1.487  0.00  0.00    +0.035 C 
ATOM     16  C   UNL     1      -4.015  -0.878   2.883  0.00  0.00    +0.031 C 
ATOM     17  C   UNL     1      -2.486  -1.037   3.029  0.00  0.00    +0.160 C 
ATOM     18  O   UNL     1      -1.867  -0.102   2.138  0.00  0.00    -0.375 OA
ENDBRANCH  13  14
ENDBRANCH   9  13
TORSDOF 2
