REMARK  Name = ZINC57526933
REMARK  2 active torsions:
REMARK  status: ('A' for Active; 'I' for Inactive)
REMARK    1  A    between atoms: C_1  and  C_2
REMARK    2  A    between atoms: C_2  and  C_7
REMARK                            x       y       z     vdW  Elec       q    Type
REMARK                         _______ _______ _______ _____ _____    ______ ____
ROOT
ATOM      1  C   UNL     1      -1.410  -0.530   0.020  0.00  0.00    +0.014 A 
ATOM      2  C   UNL     1      -2.040  -0.771   1.227  0.00  0.00    +0.012 A 
ATOM      3  C   UNL     1      -3.337  -1.253   1.252  0.00  0.00    +0.050 A 
ATOM      4  C   UNL     1      -4.002  -1.493   0.062  0.00  0.00    +0.162 A 
ATOM      5  C   UNL     1      -3.370  -1.250  -1.149  0.00  0.00    +0.162 A 
ATOM      6  C   UNL     1      -2.074  -0.764  -1.171  0.00  0.00    +0.058 A 
ATOM      7  O   UNL     1      -4.036  -1.489  -2.317  0.00  0.00    -0.488 OA
ATOM      8  C   UNL     1      -4.306  -2.861  -2.612  0.00  0.00    +0.232 C 
ATOM      9  C   UNL     1      -5.581  -3.320  -1.922  0.00  0.00    +0.082 C 
ATOM     10  C   UNL     1      -5.457  -3.302  -0.406  0.00  0.00    +0.232 C 
ATOM     11  O   UNL     1      -5.282  -1.967   0.072  0.00  0.00    -0.488 OA
ENDROOT
BRANCH   1  13
ATOM     12  C   UNL     1      -0.019   1.526   0.010  0.00  0.00    +0.080 C 
ATOM     13  C   UNL     1       0.002  -0.004   0.002  0.00  0.00    +0.194 C 
ATOM     14  O   UNL     1       0.673  -0.471  -1.180  0.00  0.00    -0.343 OA
ATOM     15  C   UNL     1       2.039  -0.708  -0.762  0.00  0.00    +0.191 C 
ATOM     16  C   UNL     1       1.839  -1.242   0.678  0.00  0.00    +0.191 C 
ATOM     17  O   UNL     1       0.709  -0.482   1.154  0.00  0.00    -0.343 OA
ENDBRANCH   1  13
TORSDOF 1
