REMARK  Name = ZINC02244549
REMARK  6 active torsions:
REMARK  status: ('A' for Active; 'I' for Inactive)
REMARK    1  A    between atoms: C_1  and  O_2
REMARK    2  A    between atoms: O_2  and  C_3
REMARK    3  A    between atoms: C_6  and  C_9
REMARK    4  A    between atoms: C_9  and  C_11
REMARK    5  A    between atoms: N_29  and  C_32
REMARK    6  A    between atoms: C_36  and  N_38
REMARK                            x       y       z     vdW  Elec       q    Type
REMARK                         _______ _______ _______ _____ _____    ______ ____
ROOT
ATOM      1  C   UNL     1       0.707   2.117  -1.988  0.00  0.00    +0.141 C 
ATOM      2  C   UNL     1      -0.594   1.813  -1.232  0.00  0.00    +0.116 C 
ATOM      3  C   UNL     1      -0.134   0.989   0.009  0.00  0.00    +0.113 C 
ATOM      4  C   UNL     1       1.313   1.445   0.232  0.00  0.00    +0.100 C 
ATOM      5  C   UNL     1       3.155   2.267  -1.257  0.00  0.00    +0.054 C 
ATOM      6  C   UNL     1       4.034   1.432  -0.667  0.00  0.00    +0.022 C 
ATOM      7  C   UNL     1       3.530   0.295   0.131  0.00  0.00    -0.019 A 
ATOM      8  C   UNL     1       2.206   0.284   0.587  0.00  0.00    -0.021 A 
ATOM      9  C   UNL     1       1.742  -0.770   1.338  0.00  0.00    +0.006 A 
ATOM     10  C   UNL     1       2.584  -1.826   1.644  0.00  0.00    +0.000 A 
ATOM     11  C   UNL     1       3.893  -1.826   1.196  0.00  0.00    +0.001 A 
ATOM     12  C   UNL     1       4.372  -0.774   0.442  0.00  0.00    +0.008 A 
ATOM     13  C   UNL     1      -0.995   1.572   1.120  0.00  0.00    +0.232 C 
ATOM     14  O   UNL     1      -1.240   1.041   2.181  0.00  0.00    -0.274 OA
ATOM     15  N   UNL     1      -1.449   2.780   0.692  0.00  0.00    -0.210 N 
ATOM     16  C   UNL     1      -1.159   3.061  -0.589  0.00  0.00    +0.232 C 
ATOM     17  O   UNL     1      -1.323   4.131  -1.135  0.00  0.00    -0.274 OA
ATOM     18  N   UNL     1       1.685   2.285  -0.880  0.00  0.00    -0.384 NA
ATOM     19  H   UNL     1       1.532   3.242  -0.541  0.00  0.00    +0.127 HD
ENDROOT
BRANCH  15  20
ATOM     20  C   UNL     1      -2.143   3.665   1.529  0.00  0.00    +0.046 A 
ATOM     21  C   UNL     1      -2.300   3.369   2.877  0.00  0.00    +0.024 A 
ATOM     22  C   UNL     1      -2.979   4.245   3.700  0.00  0.00    +0.004 A 
ATOM     23  C   UNL     1      -3.511   5.412   3.182  0.00  0.00    +0.033 A 
ATOM     24  C   UNL     1      -3.361   5.707   1.839  0.00  0.00    +0.128 A 
ATOM     25  C   UNL     1      -2.678   4.836   1.012  0.00  0.00    +0.056 A 
BRANCH  24  26
ATOM     26  N   UNL     1      -3.932   6.956   1.288  0.00  0.00    +0.056 N 
ATOM     27  O   UNL     1      -3.800   7.216   0.105  0.00  0.00    -0.126 OA
ATOM     28  O   UNL     1      -4.534   7.724   2.017  0.00  0.00    -0.126 OA
ENDBRANCH  24  26
ENDBRANCH  15  20
BRANCH   1  29
ATOM     29  C   UNL     1       0.887   1.130  -3.112  0.00  0.00    +0.183 C 
ATOM     30  O   UNL     1       1.629   0.181  -2.974  0.00  0.00    -0.290 OA
BRANCH  29  34
ATOM     31  C   UNL     1      -1.200   1.671  -6.758  0.00  0.00    +0.120 A 
ATOM     32  C   UNL     1      -0.350   0.581  -6.601  0.00  0.00    +0.046 A 
ATOM     33  C   UNL     1       0.328   0.402  -5.423  0.00  0.00    +0.015 A 
ATOM     34  C   UNL     1       0.163   1.318  -4.377  0.00  0.00    +0.019 A 
ATOM     35  C   UNL     1      -0.699   2.409  -4.537  0.00  0.00    +0.015 A 
ATOM     36  C   UNL     1      -1.368   2.583  -5.722  0.00  0.00    +0.046 A 
BRANCH  31  38
ATOM     37  C   UNL     1      -2.726   2.983  -8.020  0.00  0.00    +0.277 C 
ATOM     38  O   UNL     1      -1.869   1.844  -7.926  0.00  0.00    -0.495 OA
ENDBRANCH  31  38
ENDBRANCH  29  34
ENDBRANCH   1  29
TORSDOF 5
