REMARK  Name = ZINC59383328
REMARK  4 active torsions:
REMARK  status: ('A' for Active; 'I' for Inactive)
REMARK    1  A    between atoms: C_3  and  N_19
REMARK    2  A    between atoms: C_6  and  N_7
REMARK    3  A    between atoms: C_13  and  N_18
REMARK    4  A    between atoms: C_25  and  N_30
REMARK                            x       y       z     vdW  Elec       q    Type
REMARK                         _______ _______ _______ _____ _____    ______ ____
ROOT
ATOM      1  C   UNL     1      -0.017   1.384   0.010  0.00  0.00    +0.026 A 
ATOM      2  C   UNL     1       1.169   2.091   0.002  0.00  0.00    +0.026 A 
ATOM      3  C   UNL     1       2.381   1.413  -0.013  0.00  0.00    +0.045 A 
ATOM      4  C   UNL     1       2.400   0.025  -0.020  0.00  0.00    +0.026 A 
ATOM      5  C   UNL     1       1.214  -0.682  -0.012  0.00  0.00    +0.026 A 
ATOM      6  C   UNL     1       0.002  -0.004   0.002  0.00  0.00    +0.045 A 
ENDROOT
BRANCH   6   7
ATOM      7  N   UNL     1      -1.203  -0.722   0.010  0.00  0.00    -0.202 N 
ATOM      8  C   UNL     1      -2.424  -0.158   0.019  0.00  0.00    +0.258 C 
ATOM      9  O   UNL     1      -2.654   1.035   0.022  0.00  0.00    -0.269 OA
ATOM     10  C   UNL     1      -3.438  -1.229   0.025  0.00  0.00    +0.050 A 
ATOM     11  C   UNL     1      -4.827  -1.247   0.035  0.00  0.00    +0.015 A 
ATOM     12  C   UNL     1      -5.499  -2.454   0.039  0.00  0.00    +0.023 A 
ATOM     13  C   UNL     1      -4.793  -3.652   0.033  0.00  0.00    +0.025 A 
ATOM     14  C   UNL     1      -3.398  -3.647   0.023  0.00  0.00    +0.036 A 
ATOM     15  C   UNL     1      -2.718  -2.443   0.019  0.00  0.00    +0.051 A 
ATOM     16  C   UNL     1      -1.289  -2.064   0.004  0.00  0.00    +0.258 C 
ATOM     17  O   UNL     1      -0.351  -2.836  -0.010  0.00  0.00    -0.269 OA
BRANCH  13  18
ATOM     18  N   UNL     1      -5.481  -4.861   0.037  0.00  0.00    -0.358 N 
ATOM     19  H   UNL     1      -6.451  -4.867   0.044  0.00  0.00    +0.142 HD
ATOM     20  H   UNL     1      -4.991  -5.698   0.033  0.00  0.00    +0.142 HD
ENDBRANCH  13  18
ENDBRANCH   6   7
BRANCH   3  21
ATOM     21  N   UNL     1       3.586   2.131  -0.022  0.00  0.00    -0.202 N 
ATOM     22  C   UNL     1       3.672   3.473  -0.010  0.00  0.00    +0.258 C 
ATOM     23  O   UNL     1       2.732   4.243   0.008  0.00  0.00    -0.269 OA
ATOM     24  C   UNL     1       5.096   3.855  -0.024  0.00  0.00    +0.050 A 
ATOM     25  C   UNL     1       5.773   5.067  -0.022  0.00  0.00    +0.015 A 
ATOM     26  C   UNL     1       7.155   5.083  -0.039  0.00  0.00    +0.023 A 
ATOM     27  C   UNL     1       7.873   3.892  -0.059  0.00  0.00    +0.025 A 
ATOM     28  C   UNL     1       7.203   2.667  -0.062  0.00  0.00    +0.036 A 
ATOM     29  C   UNL     1       5.821   2.643  -0.044  0.00  0.00    +0.051 A 
ATOM     30  C   UNL     1       4.807   1.567  -0.036  0.00  0.00    +0.258 C 
ATOM     31  O   UNL     1       5.038   0.375  -0.044  0.00  0.00    -0.269 OA
BRANCH  27  32
ATOM     32  N   UNL     1       9.263   3.921  -0.077  0.00  0.00    -0.358 N 
ATOM     33  H   UNL     1       9.730   4.771  -0.075  0.00  0.00    +0.142 HD
ATOM     34  H   UNL     1       9.765   3.091  -0.091  0.00  0.00    +0.142 HD
ENDBRANCH  27  32
ENDBRANCH   3  21
TORSDOF 4
