REMARK  Name = ZINC64237713
REMARK  9 active torsions:
REMARK  status: ('A' for Active; 'I' for Inactive)
REMARK    1  A    between atoms: C_1  and  C_2
REMARK    2  A    between atoms: C_5  and  C_8
REMARK    3  A    between atoms: C_8  and  C_9
REMARK    4  A    between atoms: C_8  and  N_25
REMARK    5  A    between atoms: C_9  and  N_10
REMARK    6  A    between atoms: N_13  and  C_14
REMARK    7  A    between atoms: C_14  and  C_15
REMARK    8  A    between atoms: C_16  and  C_24
REMARK    9  A    between atoms: C_18  and  C_23
REMARK                            x       y       z     vdW  Elec       q    Type
REMARK                         _______ _______ _______ _____ _____    ______ ____
ROOT
ATOM      1  N   UNL     1       2.335  -4.280  -0.895  0.00  0.00    -0.301 N 
ATOM      2  C   UNL     1       3.651  -4.571  -0.890  0.00  0.00    +0.300 C 
ATOM      3  O   UNL     1       4.157  -5.084   0.089  0.00  0.00    -0.253 OA
ATOM      4  N   UNL     1       4.407  -4.293  -1.971  0.00  0.00    -0.295 N 
ATOM      5  H   UNL     1       1.932  -3.871  -1.677  0.00  0.00    +0.150 HD
ATOM      6  H   UNL     1       4.003  -3.884  -2.753  0.00  0.00    +0.151 HD
ENDROOT
BRANCH   1   7
ATOM      7  C   UNL     1       1.514  -4.583   0.280  0.00  0.00    +0.095 C 
BRANCH   7   8
ATOM      8  C   UNL     1       0.100  -4.040   0.067  0.00  0.00    -0.020 C 
BRANCH   8  13
ATOM      9  C   UNL     1       0.268   1.731  -0.192  0.00  0.00    +0.044 C 
ATOM     10  C   UNL     1       0.224   0.226  -0.125  0.00  0.00    -0.050 A 
ATOM     11  C   UNL     1       0.152  -0.516  -1.289  0.00  0.00    +0.003 A 
ATOM     12  C   UNL     1       0.112  -1.897  -1.227  0.00  0.00    +0.002 A 
ATOM     13  C   UNL     1       0.144  -2.535  -0.001  0.00  0.00    -0.059 A 
ATOM     14  C   UNL     1       0.216  -1.792   1.163  0.00  0.00    +0.002 A 
ATOM     15  C   UNL     1       0.261  -0.412   1.101  0.00  0.00    +0.003 A 
ENDBRANCH   8  13
BRANCH   8  16
ATOM     16  N   UNL     1      -0.758  -4.454   1.185  0.00  0.00    +0.385 N 
ATOM     17  C   UNL     1      -2.139  -3.946   0.987  0.00  0.00    -0.078 C 
ATOM     18  C   UNL     1      -2.994  -4.890   1.871  0.00  0.00    -0.020 C 
ATOM     19  C   UNL     1      -2.303  -6.260   1.682  0.00  0.00    -0.020 C 
ATOM     20  C   UNL     1      -0.871  -5.928   1.222  0.00  0.00    -0.078 C 
ATOM     21  H   UNL     1      -0.382  -4.113   2.057  0.00  0.00    -0.081 HD
ENDBRANCH   8  16
ENDBRANCH   7   8
ENDBRANCH   1   7
BRANCH   4  22
ATOM     22  C   UNL     1       5.837  -4.609  -1.966  0.00  0.00    +0.146 C 
BRANCH  22  23
ATOM     23  C   UNL     1       6.446  -4.202  -3.283  0.00  0.00    +0.037 A 
ATOM     24  C   UNL     1       7.054  -2.988  -3.415  0.00  0.00    -0.039 A 
ATOM     25  C   UNL     1       7.614  -2.632  -4.651  0.00  0.00    +0.024 A 
ATOM     26  C   UNL     1       7.546  -3.491  -5.695  0.00  0.00    +0.016 A 
ATOM     27  N   UNL     1       6.941  -4.698  -5.562  0.00  0.00    -0.326 N 
ATOM     28  H   UNL     1       6.901  -5.301  -6.320  0.00  0.00    +0.169 HD
ATOM     29  C   UNL     1       6.399  -5.071  -4.386  0.00  0.00    +0.254 A 
ATOM     30  O   UNL     1       5.862  -6.162  -4.281  0.00  0.00    -0.268 OA
ATOM     31  C   UNL     1       8.150  -3.102  -7.020  0.00  0.00    +0.063 C 
ATOM     32  C   UNL     1       7.124  -2.039  -2.246  0.00  0.00    +0.044 C 
ENDBRANCH  22  23
ENDBRANCH   4  22
TORSDOF 6
