REMARK  Name = ZINC37934056
REMARK  6 active torsions:
REMARK  status: ('A' for Active; 'I' for Inactive)
REMARK    1  A    between atoms: C_1  and  C_2
REMARK    2  A    between atoms: C_8  and  N_10
REMARK    3  A    between atoms: N_10  and  C_11
REMARK    4  A    between atoms: C_13  and  N_21
REMARK    5  A    between atoms: C_15  and  S_17
REMARK    6  A    between atoms: S_17  and  N_20
REMARK                            x       y       z     vdW  Elec       q    Type
REMARK                         _______ _______ _______ _____ _____    ______ ____
ROOT
ATOM      1  C   UNL     1       2.820   0.133   2.430  0.00  0.00    +0.031 A 
ATOM      2  C   UNL     1       2.219  -0.217   3.631  0.00  0.00    +0.045 A 
ATOM      3  C   UNL     1       2.921  -0.081   4.820  0.00  0.00    +0.028 A 
ATOM      4  C   UNL     1       4.223   0.407   4.805  0.00  0.00    +0.051 A 
ATOM      5  C   UNL     1       4.817   0.754   3.608  0.00  0.00    +0.108 A 
ATOM      6  C   UNL     1       4.123   0.613   2.421  0.00  0.00    +0.051 A 
ENDROOT
BRANCH   5   7
ATOM      7  S   UNL     1       6.468   1.371   3.592  0.00  0.00    +0.056 S 
ATOM      8  O   UNL     1       6.604   2.137   2.404  0.00  0.00    -0.153 OA
ATOM      9  O   UNL     1       6.709   1.917   4.882  0.00  0.00    -0.153 OA
BRANCH   7  10
ATOM     10  N   UNL     1       7.477   0.067   3.433  0.00  0.00    -0.204 NA
ATOM     11  H   UNL     1       7.107  -0.827   3.369  0.00  0.00    +0.144 HD
ATOM     12  H   UNL     1       8.437   0.198   3.404  0.00  0.00    +0.144 HD
ENDBRANCH   7  10
ENDBRANCH   5   7
BRANCH   3  13
ATOM     13  N   UNL     1       2.320  -0.431   6.032  0.00  0.00    -0.358 N 
ATOM     14  H   UNL     1       1.412  -0.771   6.042  0.00  0.00    +0.142 HD
ATOM     15  H   UNL     1       2.811  -0.335   6.862  0.00  0.00    +0.142 HD
ENDBRANCH   3  13
BRANCH   1  16
ATOM     16  N   UNL     1       2.116  -0.004   1.231  0.00  0.00    -0.341 N 
ATOM     17  H   UNL     1       2.538   0.237   0.392  0.00  0.00    +0.146 HD
BRANCH  16  24
ATOM     18  C   UNL     1      -0.019   1.526   0.010  0.00  0.00    +0.009 C 
ATOM     19  C   UNL     1       0.002  -0.004   0.002  0.00  0.00    +0.006 C 
ATOM     20  C   UNL     1      -1.433  -0.534   0.013  0.00  0.00    +0.005 C 
ATOM     21  C   UNL     1      -1.413  -2.063   0.004  0.00  0.00    +0.000 C 
ATOM     22  C   UNL     1      -0.673  -2.570   1.244  0.00  0.00    +0.002 C 
ATOM     23  C   UNL     1       0.763  -2.041   1.233  0.00  0.00    +0.022 C 
ATOM     24  C   UNL     1       0.742  -0.511   1.242  0.00  0.00    +0.073 C 
ENDBRANCH  16  24
ENDBRANCH   1  16
TORSDOF 5
