REMARK  Name = ZINC46569526
REMARK  11 active torsions:
REMARK  status: ('A' for Active; 'I' for Inactive)
REMARK    1  A    between atoms: C_1  and  C_2
REMARK    2  A    between atoms: C_2  and  C_3
REMARK    3  A    between atoms: C_6  and  C_9
REMARK    4  A    between atoms: C_9  and  C_11
REMARK    5  A    between atoms: C_9  and  N_12
REMARK    6  A    between atoms: C_13  and  C_15
REMARK    7  A    between atoms: C_15  and  N_16
REMARK    8  A    between atoms: N_16  and  C_17
REMARK    9  A    between atoms: N_16  and  C_27
REMARK   10  A    between atoms: C_17  and  C_18
REMARK   11  A    between atoms: C_21  and  C_24
REMARK                            x       y       z     vdW  Elec       q    Type
REMARK                         _______ _______ _______ _____ _____    ______ ____
ROOT
ATOM      1  N   UNL     1       3.441  -0.561   9.304  0.00  0.00    +0.390 N 
ATOM      2  H   UNL     1       3.740  -1.521   9.395  0.00  0.00    -0.080 HD
ENDROOT
BRANCH   1   3
ATOM      3  C   UNL     1       2.814  -0.122  10.558  0.00  0.00    -0.068 C 
ATOM      4  C   UNL     1       3.022  -0.997  11.796  0.00  0.00    -0.017 C 
ATOM      5  C   UNL     1       1.658  -0.963  11.102  0.00  0.00    -0.017 C 
ENDBRANCH   1   3
BRANCH   1   6
ATOM      6  C   UNL     1       2.470  -0.453   8.207  0.00  0.00    +0.019 C 
BRANCH   6   8
ATOM      7  N   UNL     1       2.395  -0.952   5.785  0.00  0.00    -0.310 N 
ATOM      8  C   UNL     1       3.057  -1.052   6.955  0.00  0.00    +0.197 C 
ATOM      9  O   UNL     1       4.126  -1.623   7.000  0.00  0.00    -0.278 OA
ATOM     10  H   UNL     1       1.540  -0.495   5.749  0.00  0.00    +0.149 HD
BRANCH   7  11
ATOM     11  C   UNL     1       2.966  -1.534   4.568  0.00  0.00    +0.100 C 
ATOM     12  C   UNL     1       2.590  -3.015   4.486  0.00  0.00    +0.033 C 
BRANCH  11  16
ATOM     13  C   UNL     1       1.426   0.514   1.151  0.00  0.00    -0.048 A 
ATOM     14  C   UNL     1       2.756   0.140   1.191  0.00  0.00    +0.004 A 
ATOM     15  C   UNL     1       3.255  -0.522   2.297  0.00  0.00    +0.006 A 
ATOM     16  C   UNL     1       2.423  -0.811   3.363  0.00  0.00    -0.027 A 
ATOM     17  C   UNL     1       1.093  -0.436   3.323  0.00  0.00    +0.006 A 
ATOM     18  C   UNL     1       0.595   0.230   2.218  0.00  0.00    +0.004 A 
BRANCH  13  20
ATOM     19  C   UNL     1       1.042   2.746   0.140  0.00  0.00    +0.009 C 
ATOM     20  C   UNL     1       0.883   1.236  -0.055  0.00  0.00    +0.032 C 
ENDBRANCH  13  20
ENDBRANCH  11  16
ENDBRANCH   7  11
ENDBRANCH   6   8
ENDBRANCH   1   6
BRANCH   1  21
ATOM     21  C   UNL     1       4.604   0.288   9.013  0.00  0.00    -0.042 C 
BRANCH  21  22
ATOM     22  C   UNL     1       5.652   0.084  10.076  0.00  0.00    -0.064 A 
ATOM     23  C   UNL     1       5.644   0.873  11.213  0.00  0.00    +0.002 A 
ATOM     24  C   UNL     1       6.601   0.691  12.190  0.00  0.00    +0.013 A 
ATOM     25  C   UNL     1       7.580  -0.290  12.029  0.00  0.00    +0.037 A 
ATOM     26  C   UNL     1       7.583  -1.082  10.879  0.00  0.00    +0.013 A 
ATOM     27  C   UNL     1       6.617  -0.894   9.913  0.00  0.00    +0.002 A 
BRANCH  25  28
ATOM     28  C   UNL     1       8.609  -0.490  13.071  0.00  0.00    +0.242 C 
ATOM     29  O   UNL     1       8.604   0.201  14.071  0.00  0.00    -0.270 OA
ATOM     30  N   UNL     1       9.553  -1.439  12.913  0.00  0.00    -0.325 N 
ATOM     31  H   UNL     1       9.557  -1.991  12.115  0.00  0.00    +0.145 HD
ATOM     32  H   UNL     1      10.229  -1.570  13.597  0.00  0.00    +0.145 HD
ENDBRANCH  25  28
ENDBRANCH  21  22
ENDBRANCH   1  21
TORSDOF 9
