REMARK  Name = ZINC36648075
REMARK  10 active torsions:
REMARK  status: ('A' for Active; 'I' for Inactive)
REMARK    1  A    between atoms: C_1  and  C_2
REMARK    2  A    between atoms: C_2  and  N_3
REMARK    3  A    between atoms: N_3  and  C_4
REMARK    4  A    between atoms: N_3  and  C_6
REMARK    5  A    between atoms: C_4  and  C_5
REMARK    6  A    between atoms: C_6  and  C_7
REMARK    7  A    between atoms: C_7  and  N_8
REMARK    8  A    between atoms: C_19  and  C_21
REMARK    9  A    between atoms: N_27  and  S_28
REMARK   10  A    between atoms: S_28  and  C_31
REMARK                            x       y       z     vdW  Elec       q    Type
REMARK                         _______ _______ _______ _____ _____    ______ ____
ROOT
ATOM      1  N   UNL     1       1.500  -3.373  -1.452  0.00  0.00    -0.251 N 
ATOM      2  C   UNL     1       0.344  -3.611  -2.178  0.00  0.00    +0.168 A 
ATOM      3  N   UNL     1      -0.431  -2.752  -2.797  0.00  0.00    -0.221 NA
ATOM      4  C   UNL     1      -1.538  -3.128  -3.473  0.00  0.00    +0.115 A 
ATOM      5  C   UNL     1      -2.453  -2.310  -4.178  0.00  0.00    +0.150 A 
ATOM      6  C   UNL     1      -3.537  -2.859  -4.817  0.00  0.00    +0.040 A 
ATOM      7  C   UNL     1      -3.775  -4.226  -4.795  0.00  0.00    +0.004 A 
ATOM      8  C   UNL     1      -2.901  -5.054  -4.115  0.00  0.00    +0.017 A 
ATOM      9  C   UNL     1      -1.813  -4.514  -3.474  0.00  0.00    +0.044 A 
ATOM     10  S   UNL     1      -0.467  -5.167  -2.516  0.00  0.00    -0.052 S 
ATOM     11  F   UNL     1      -2.257  -0.974  -4.223  0.00  0.00    -0.203 F 
ATOM     12  C   UNL     1       2.081  -4.374  -0.763  0.00  0.00    +0.240 C 
ATOM     13  O   UNL     1       3.054  -4.152  -0.073  0.00  0.00    -0.273 OA
ENDROOT
BRANCH  12  14
ATOM     14  C   UNL     1       1.524  -5.772  -0.850  0.00  0.00    +0.166 C 
ATOM     15  C   UNL     1       1.951  -6.573   0.383  0.00  0.00    +0.030 C 
ATOM     16  C   UNL     1       1.501  -8.027   0.223  0.00  0.00    +0.003 C 
ATOM     17  C   UNL     1       2.174  -8.639  -1.007  0.00  0.00    +0.017 C 
ATOM     18  C   UNL     1       1.749  -7.861  -2.257  0.00  0.00    +0.110 C 
ATOM     19  N   UNL     1       2.045  -6.436  -2.053  0.00  0.00    -0.164 NA
BRANCH  19  20
ATOM     20  S   UNL     1       2.951  -5.595  -3.155  0.00  0.00    +0.068 S 
ATOM     21  O   UNL     1       2.984  -6.382  -4.338  0.00  0.00    -0.152 OA
ATOM     22  O   UNL     1       2.469  -4.259  -3.143  0.00  0.00    -0.152 OA
BRANCH  20  23
ATOM     23  C   UNL     1       4.601  -5.541  -2.540  0.00  0.00    +0.143 A 
ATOM     24  C   UNL     1       5.620  -6.410  -2.752  0.00  0.00    +0.036 A 
ATOM     25  C   UNL     1       6.845  -6.163  -2.161  0.00  0.00    +0.010 A 
ATOM     26  C   UNL     1       6.991  -5.060  -1.387  0.00  0.00    +0.047 A 
ATOM     27  S   UNL     1       5.367  -4.324  -1.482  0.00  0.00    -0.077 S 
ENDBRANCH  20  23
ENDBRANCH  19  20
ENDBRANCH  12  14
BRANCH   1  28
ATOM     28  C   UNL     1       2.089  -2.032  -1.433  0.00  0.00    +0.097 C 
BRANCH  28  29
ATOM     29  C   UNL     1       1.500  -1.232  -0.269  0.00  0.00    -0.059 C 
BRANCH  29  30
ATOM     30  N   UNL     1       2.184   0.064  -0.169  0.00  0.00    +0.380 N 
ATOM     31  H   UNL     1       3.173  -0.087  -0.038  0.00  0.00    -0.082 HD
BRANCH  30  33
ATOM     32  C   UNL     1       2.780   2.124  -1.352  0.00  0.00    -0.017 C 
ATOM     33  C   UNL     1       1.966   0.830  -1.404  0.00  0.00    -0.082 C 
ENDBRANCH  30  33
BRANCH  30  34
ATOM     34  C   UNL     1       1.648   0.815   0.974  0.00  0.00    -0.082 C 
ATOM     35  C   UNL     1       2.062   0.126   2.276  0.00  0.00    -0.017 C 
ENDBRANCH  30  34
ENDBRANCH  29  30
ENDBRANCH  28  29
ENDBRANCH   1  28
TORSDOF 8
