REMARK  Name = ZINC33494403
REMARK  2 active torsions:
REMARK  status: ('A' for Active; 'I' for Inactive)
REMARK    1  A    between atoms: C_1  and  C_2
REMARK    2  A    between atoms: C_2  and  N_3
REMARK                            x       y       z     vdW  Elec       q    Type
REMARK                         _______ _______ _______ _____ _____    ______ ____
ROOT
ATOM      1  N   UNL     1      -1.064   1.760   0.054  0.00  0.00    -0.276 N 
ATOM      2  C   UNL     1      -0.103   0.756   0.072  0.00  0.00    +0.076 A 
ATOM      3  C   UNL     1       1.252   1.138   0.086  0.00  0.00    +0.085 A 
ATOM      4  C   UNL     1       2.252   0.174   0.117  0.00  0.00    +0.032 A 
ATOM      5  C   UNL     1       1.902  -1.163   0.129  0.00  0.00    +0.020 A 
ATOM      6  C   UNL     1       0.568  -1.539   0.110  0.00  0.00    +0.032 A 
ATOM      7  C   UNL     1      -0.435  -0.588   0.082  0.00  0.00    +0.043 A 
ATOM      8 BR   UNL     1      -2.250  -1.119   0.055  0.00  0.00    -0.048 Br
ATOM      9 BR   UNL     1       3.252  -2.487   0.172  0.00  0.00    -0.050 Br
ATOM     10  C   UNL     1       1.543   2.586   0.060  0.00  0.00    +0.350 A 
ATOM     11  O   UNL     1       2.591   3.039   0.476  0.00  0.00    -0.244 OA
ATOM     12  O   UNL     1       0.569   3.382  -0.454  0.00  0.00    -0.373 OA
ATOM     13  C   UNL     1      -0.703   3.038  -0.174  0.00  0.00    +0.423 A 
ATOM     14  O   UNL     1      -1.551   3.907  -0.125  0.00  0.00    -0.223 OA
ENDROOT
BRANCH   1  16
ATOM     15  C   UNL     1      -3.138   1.078  -1.049  0.00  0.00    +0.027 C 
ATOM     16  C   UNL     1      -2.473   1.427   0.284  0.00  0.00    +0.125 C 
ENDBRANCH   1  16
TORSDOF 1
