REMARK  Name = ZINC28789789
REMARK  9 active torsions:
REMARK  status: ('A' for Active; 'I' for Inactive)
REMARK    1  A    between atoms: C_1  and  C_2
REMARK    2  A    between atoms: C_9  and  C_11
REMARK    3  A    between atoms: C_11  and  S_12
REMARK    4  A    between atoms: S_12  and  C_13
REMARK    5  A    between atoms: C_16  and  C_19
REMARK    6  A    between atoms: N_17  and  N_18
REMARK    7  A    between atoms: C_19  and  C_20
REMARK    8  A    between atoms: C_19  and  C_21
REMARK    9  A    between atoms: C_19  and  C_22
REMARK                            x       y       z     vdW  Elec       q    Type
REMARK                         _______ _______ _______ _____ _____    ______ ____
ROOT
ATOM      1  C   UNL     1       4.159   0.486   5.111  0.00  0.00    +0.209 A 
ATOM      2  N   UNL     1       4.456  -0.792   5.120  0.00  0.00    -0.121 NA
ATOM      3  N   UNL     1       5.301  -1.038   6.057  0.00  0.00    -0.131 NA
ATOM      4  C   UNL     1       5.592   0.060   6.696  0.00  0.00    +0.156 A 
ATOM      5  N   UNL     1       4.880   1.071   6.112  0.00  0.00    -0.227 N 
ENDROOT
BRANCH   4   6
ATOM      6  C   UNL     1       6.543   0.192   7.858  0.00  0.00    +0.024 C 
ATOM      7  C   UNL     1       7.020  -1.197   8.286  0.00  0.00    +0.019 C 
ATOM      8  C   UNL     1       7.746   1.038   7.439  0.00  0.00    +0.019 C 
ATOM      9  C   UNL     1       5.826   0.868   9.028  0.00  0.00    +0.019 C 
ENDBRANCH   4   6
BRANCH   5  10
ATOM     10  N   UNL     1       4.886   2.392   6.461  0.00  0.00    -0.295 N 
ATOM     11  H   UNL     1       4.140   2.599   7.108  0.00  0.00    +0.163 HD
ATOM     12  H   UNL     1       5.780   2.661   6.844  0.00  0.00    +0.163 HD
ENDBRANCH   5  10
BRANCH   1  13
ATOM     13  S   UNL     1       3.048   1.296   4.010  0.00  0.00    -0.075 S 
BRANCH  13  14
ATOM     14  C   UNL     1       2.437  -0.038   2.943  0.00  0.00    +0.173 C 
BRANCH  14  22
ATOM     15  C   UNL     1      -0.215   1.756   0.240  0.00  0.00    +0.028 C 
ATOM     16  C   UNL     1       0.002   0.262  -0.005  0.00  0.00    +0.073 C 
ATOM     17  C   UNL     1      -1.344  -0.468   0.041  0.00  0.00    +0.022 C 
ATOM     18  C   UNL     1      -1.107  -1.976  -0.066  0.00  0.00    +0.003 C 
ATOM     19  C   UNL     1      -0.261  -2.446   1.120  0.00  0.00    +0.019 C 
ATOM     20  C   UNL     1       1.097  -1.739   1.086  0.00  0.00    +0.108 C 
ATOM     21  N   UNL     1       0.877  -0.287   1.040  0.00  0.00    -0.298 N 
ATOM     22  C   UNL     1       1.463   0.526   1.941  0.00  0.00    +0.226 C 
ATOM     23  O   UNL     1       1.207   1.712   1.945  0.00  0.00    -0.275 OA
ENDBRANCH  14  22
ENDBRANCH  13  14
ENDBRANCH   1  13
TORSDOF 5
