REMARK  Name = ZINC64604159
REMARK  9 active torsions:
REMARK  status: ('A' for Active; 'I' for Inactive)
REMARK    1  A    between atoms: C_1  and  C_2
REMARK    2  A    between atoms: C_7  and  S_12
REMARK    3  A    between atoms: S_12  and  C_13
REMARK    4  A    between atoms: C_13  and  C_14
REMARK    5  A    between atoms: C_16  and  C_19
REMARK    6  A    between atoms: C_19  and  C_20
REMARK    7  A    between atoms: C_20  and  C_21
REMARK    8  A    between atoms: N_23  and  C_24
REMARK    9  A    between atoms: C_29  and  C_30
REMARK                            x       y       z     vdW  Elec       q    Type
REMARK                         _______ _______ _______ _____ _____    ______ ____
ROOT
ATOM      1  C   UNL     1       4.261  -4.832   1.776  0.00  0.00    +0.182 A 
ATOM      2  N   UNL     1       4.930  -4.643   2.918  0.00  0.00    -0.195 NA
ATOM      3  C   UNL     1       6.037  -5.332   2.909  0.00  0.00    +0.228 A 
ATOM      4  O   UNL     1       6.110  -5.992   1.746  0.00  0.00    -0.338 OA
ATOM      5  N   UNL     1       4.935  -5.654   1.024  0.00  0.00    -0.060 NA
ENDROOT
BRANCH   1   6
ATOM      6  C   UNL     1       2.938  -4.203   1.420  0.00  0.00    +0.152 C 
BRANCH   6   7
ATOM      7  S   UNL     1       1.587  -5.273   1.986  0.00  0.00    -0.107 S 
BRANCH   7  14
ATOM      8  C   UNL     1      -0.017   1.448  -0.060  0.00  0.00    +0.044 C 
ATOM      9  C   UNL     1       0.010  -0.059  -0.064  0.00  0.00    -0.048 A 
ATOM     10  C   UNL     1       0.024  -0.730  -1.299  0.00  0.00    +0.005 A 
ATOM     11  C   UNL     1       0.048  -2.075  -1.396  0.00  0.00    +0.028 A 
ATOM     12  C   UNL     1       0.061  -2.889  -0.172  0.00  0.00    +0.061 A 
ATOM     13  N   UNL     1       0.084  -4.174   0.035  0.00  0.00    -0.355 N 
ATOM     14  C   UNL     1       0.086  -4.385   1.488  0.00  0.00    +0.236 C 
ATOM     15  N   UNL     1       0.062  -3.051   2.101  0.00  0.00    -0.355 N 
ATOM     16  C   UNL     1       0.047  -2.178   1.135  0.00  0.00    +0.061 A 
ATOM     17  C   UNL     1       0.026  -0.709   1.117  0.00  0.00    +0.030 A 
ATOM     18  H   UNL     1       0.097  -4.865  -0.645  0.00  0.00    +0.162 HD
ATOM     19  H   UNL     1       0.057  -2.856   3.051  0.00  0.00    +0.162 HD
ENDBRANCH   7  14
ENDBRANCH   6   7
ENDBRANCH   1   6
BRANCH   3  20
ATOM     20  C   UNL     1       7.058  -5.378   4.016  0.00  0.00    +0.108 C 
BRANCH  20  21
ATOM     21  C   UNL     1       6.712  -6.513   4.981  0.00  0.00    +0.105 C 
BRANCH  21  22
ATOM     22  C   UNL     1       7.734  -6.560   6.088  0.00  0.00    +0.218 C 
ATOM     23  O   UNL     1       8.649  -5.764   6.103  0.00  0.00    -0.275 OA
ATOM     24  N   UNL     1       7.631  -7.486   7.062  0.00  0.00    -0.285 N 
ATOM     25  H   UNL     1       6.857  -8.071   7.096  0.00  0.00    +0.155 HD
BRANCH  24  26
ATOM     26  C   UNL     1       8.639  -7.605   8.024  0.00  0.00    +0.038 A 
ATOM     27  C   UNL     1       9.931  -7.186   7.734  0.00  0.00    +0.023 A 
ATOM     28  C   UNL     1      10.925  -7.304   8.685  0.00  0.00    +0.003 A 
ATOM     29  C   UNL     1      10.636  -7.839   9.927  0.00  0.00    +0.020 A 
ATOM     30  C   UNL     1       9.350  -8.257  10.221  0.00  0.00    +0.046 A 
ATOM     31  C   UNL     1       8.350  -8.136   9.274  0.00  0.00    -0.011 A 
ATOM     32  C   UNL     1       6.948  -8.587   9.595  0.00  0.00    +0.047 C 
ATOM     33 CL   UNL     1       8.991  -8.929  11.781  0.00  0.00    -0.083 Cl
ENDBRANCH  24  26
ENDBRANCH  21  22
ENDBRANCH  20  21
ENDBRANCH   3  20
TORSDOF 7
