REMARK  Name = ZINC20759548
REMARK  5 active torsions:
REMARK  status: ('A' for Active; 'I' for Inactive)
REMARK    1  A    between atoms: C_4  and  C_7
REMARK    2  A    between atoms: C_7  and  C_8
REMARK    3  A    between atoms: C_8  and  C_10
REMARK    4  A    between atoms: C_8  and  N_27
REMARK    5  A    between atoms: C_28  and  C_30
REMARK                            x       y       z     vdW  Elec       q    Type
REMARK                         _______ _______ _______ _____ _____    ______ ____
ROOT
ATOM      1  C   UNL     1       5.351  -1.899   1.346  0.00  0.00    +0.236 C 
ATOM      2  O   UNL     1       6.398  -1.585   1.871  0.00  0.00    -0.274 OA
ATOM      3  N   UNL     1       5.243  -3.085   0.714  0.00  0.00    -0.300 N 
ATOM      4  C   UNL     1       4.022  -3.429  -0.027  0.00  0.00    +0.110 C 
ATOM      5  C   UNL     1       3.502  -4.779   0.480  0.00  0.00    +0.047 C 
ATOM      6  C   UNL     1       4.617  -5.821   0.379  0.00  0.00    +0.064 C 
ATOM      7  C   UNL     1       5.801  -5.399   1.250  0.00  0.00    +0.047 C 
ATOM      8  C   UNL     1       6.347  -4.054   0.747  0.00  0.00    +0.110 C 
ATOM      9  C   UNL     1       4.102  -7.161   0.833  0.00  0.00    +0.057 A 
ATOM     10  C   UNL     1       3.771  -8.162  -0.014  0.00  0.00    +0.039 A 
ATOM     11  N   UNL     1       3.357  -9.199   0.714  0.00  0.00    -0.349 N 
ATOM     12  C   UNL     1       3.416  -8.882   1.982  0.00  0.00    +0.171 A 
ATOM     13  N   UNL     1       3.877  -7.614   2.094  0.00  0.00    -0.348 N 
ATOM     14  H   UNL     1       4.020  -7.123   2.918  0.00  0.00    +0.166 HD
ATOM     15  C   UNL     1       3.879  -8.040  -1.514  0.00  0.00    +0.070 C 
ATOM     16  C   UNL     1       4.012  -6.550  -1.859  0.00  0.00    +0.088 C 
ATOM     17  N   UNL     1       5.053  -5.939  -1.022  0.00  0.00    -0.305 NA
ATOM     18  H   UNL     1       5.333  -5.042  -1.390  0.00  0.00    +0.123 HD
ATOM     19  H   UNL     1       3.060 -10.052   0.361  0.00  0.00    +0.166 HD
ENDROOT
BRANCH   1  20
ATOM     20  C   UNL     1       4.170  -0.964   1.401  0.00  0.00    +0.164 C 
BRANCH  20  21
ATOM     21  N   UNL     1       4.316  -0.061   2.546  0.00  0.00    -0.297 N 
ATOM     22  C   UNL     1       3.225   0.498   3.105  0.00  0.00    +0.280 C 
ATOM     23  O   UNL     1       2.119   0.252   2.660  0.00  0.00    -0.267 OA
ATOM     24  H   UNL     1       5.197   0.135   2.900  0.00  0.00    +0.150 HD
BRANCH  22  25
ATOM     25  C   UNL     1       3.370   1.402   4.251  0.00  0.00    +0.189 A 
ATOM     26  C   UNL     1       2.353   2.029   4.913  0.00  0.00    +0.054 A 
ATOM     27  C   UNL     1       2.944   2.789   5.933  0.00  0.00    +0.042 A 
ATOM     28  C   UNL     1       4.279   2.597   5.851  0.00  0.00    +0.196 A 
ATOM     29  O   UNL     1       4.532   1.756   4.839  0.00  0.00    -0.458 OA
ENDBRANCH  22  25
ENDBRANCH  20  21
BRANCH  20  30
ATOM     30  C   UNL     1       4.108  -0.146   0.110  0.00  0.00    +0.067 C 
BRANCH  30  34
ATOM     31  C   UNL     1       0.552   2.221   0.093  0.00  0.00    +0.000 A 
ATOM     32  C   UNL     1       1.718   2.730   0.634  0.00  0.00    +0.000 A 
ATOM     33  C   UNL     1       2.869   1.964   0.639  0.00  0.00    +0.004 A 
ATOM     34  C   UNL     1       2.853   0.689   0.105  0.00  0.00    -0.045 A 
ATOM     35  C   UNL     1       1.687   0.180  -0.435  0.00  0.00    +0.004 A 
ATOM     36  C   UNL     1       0.536   0.946  -0.441  0.00  0.00    +0.000 A 
ENDBRANCH  30  34
ENDBRANCH  20  30
ENDBRANCH   1  20
TORSDOF 5
