REMARK  Name = ZINC38905131
REMARK  4 active torsions:
REMARK  status: ('A' for Active; 'I' for Inactive)
REMARK    1  A    between atoms: C_1  and  C_2
REMARK    2  A    between atoms: N_8  and  C_13
REMARK    3  A    between atoms: C_15  and  C_17
REMARK    4  A    between atoms: C_17  and  C_18
REMARK                            x       y       z     vdW  Elec       q    Type
REMARK                         _______ _______ _______ _____ _____    ______ ____
ROOT
ATOM      1  C   UNL     1      -0.019   1.526   0.010  0.00  0.00    +0.017 C 
ATOM      2  C   UNL     1       0.002  -0.004   0.002  0.00  0.00    +0.077 C 
ATOM      3  C   UNL     1       0.702  -0.489  -1.272  0.00  0.00    +0.054 C 
ATOM      4  C   UNL     1       1.062  -1.942  -1.091  0.00  0.00    +0.035 A 
ATOM      5  C   UNL     1       1.198  -2.949  -2.042  0.00  0.00    +0.152 A 
ATOM      6  N   UNL     1       1.536  -4.058  -1.419  0.00  0.00    -0.154 NA
ATOM      7  N   UNL     1       1.621  -3.786  -0.043  0.00  0.00    -0.251 N 
ATOM      8  C   UNL     1       1.321  -2.485   0.139  0.00  0.00    +0.128 A 
ATOM      9  N   UNL     1       1.245  -1.731   1.309  0.00  0.00    -0.270 N 
ATOM     10  C   UNL     1       0.712  -0.493   1.233  0.00  0.00    +0.221 C 
ATOM     11  O   UNL     1       0.808   0.247   2.189  0.00  0.00    -0.275 OA
ATOM     12  C   UNL     1       1.975  -4.745   1.006  0.00  0.00    +0.174 C 
ATOM     13  N   UNL     1       1.010  -2.807  -3.424  0.00  0.00    -0.269 N 
ATOM     14  C   UNL     1       1.174  -3.867  -4.239  0.00  0.00    +0.219 C 
ATOM     15  O   UNL     1       1.486  -4.944  -3.777  0.00  0.00    -0.275 OA
ATOM     16  H   UNL     1       1.566  -2.085   2.153  0.00  0.00    +0.156 HD
ATOM     17  H   UNL     1       0.760  -1.945  -3.793  0.00  0.00    +0.156 HD
ENDROOT
BRANCH  14  18
ATOM     18  C   UNL     1       0.971  -3.714  -5.724  0.00  0.00    +0.099 C 
BRANCH  18  19
ATOM     19  C   UNL     1       1.218  -5.057  -6.414  0.00  0.00    -0.002 C 
ATOM     20  C   UNL     1       2.686  -5.455  -6.245  0.00  0.00    +0.004 C 
ATOM     21  C   UNL     1       2.933  -6.798  -6.935  0.00  0.00    +0.000 C 
ATOM     22  C   UNL     1       2.606  -6.675  -8.424  0.00  0.00    +0.000 C 
ATOM     23  C   UNL     1       1.138  -6.277  -8.593  0.00  0.00    +0.000 C 
ATOM     24  C   UNL     1       0.891  -4.934  -7.904  0.00  0.00    +0.004 C 
ENDBRANCH  18  19
ENDBRANCH  14  18
TORSDOF 2
