REMARK  Name = ZINC39711115
REMARK  10 active torsions:
REMARK  status: ('A' for Active; 'I' for Inactive)
REMARK    1  A    between atoms: C_1  and  C_2
REMARK    2  A    between atoms: C_5  and  C_41
REMARK    3  A    between atoms: C_10  and  C_14
REMARK    4  A    between atoms: C_14  and  C_16
REMARK    5  A    between atoms: C_14  and  N_28
REMARK    6  A    between atoms: N_21  and  C_22
REMARK    7  A    between atoms: N_28  and  C_29
REMARK    8  A    between atoms: N_28  and  C_35
REMARK    9  A    between atoms: C_29  and  C_30
REMARK   10  A    between atoms: C_35  and  C_36
REMARK                            x       y       z     vdW  Elec       q    Type
REMARK                         _______ _______ _______ _____ _____    ______ ____
ROOT
ATOM      1  C   UNL     1      -0.724   0.030   5.727  0.00  0.00    -0.010 C 
ENDROOT
BRANCH   1  11
ATOM      2  C   UNL     1       3.066   0.218   9.189  0.00  0.00    +0.044 C 
ATOM      3  C   UNL     1       3.301   1.087   7.980  0.00  0.00    -0.042 A 
ATOM      4  C   UNL     1       4.257   2.051   7.997  0.00  0.00    +0.004 A 
ATOM      5  C   UNL     1       4.489   2.864   6.887  0.00  0.00    +0.005 A 
ATOM      6  C   UNL     1       3.784   2.745   5.732  0.00  0.00    -0.029 A 
ATOM      7  C   UNL     1       2.771   1.777   5.609  0.00  0.00    +0.043 A 
ATOM      8  N   UNL     1       2.086   1.669   4.471  0.00  0.00    -0.284 N 
ATOM      9  C   UNL     1       1.123   0.782   4.289  0.00  0.00    +0.223 C 
ATOM     10  O   UNL     1       0.533   0.731   3.226  0.00  0.00    -0.275 OA
ATOM     11  C   UNL     1       0.758  -0.169   5.406  0.00  0.00    +0.088 C 
ATOM     12  C   UNL     1       1.534  -0.051   6.703  0.00  0.00    -0.006 C 
ATOM     13  C   UNL     1       2.509   0.900   6.764  0.00  0.00    -0.004 A 
ATOM     14  C   UNL     1       4.089   3.659   4.572  0.00  0.00    +0.045 C 
ATOM     15  H   UNL     1       2.305   2.271   3.741  0.00  0.00    +0.155 HD
ENDBRANCH   1  11
BRANCH   1  16
ATOM     16  C   UNL     1      -1.574  -0.526   4.583  0.00  0.00    +0.183 C 
ATOM     17  N   UNL     1      -0.838  -1.573   3.848  0.00  0.00    -0.229 N 
ATOM     18  N   UNL     1      -0.705  -1.100   2.538  0.00  0.00    -0.064 NA
ATOM     19  N   UNL     1      -1.216   0.005   2.379  0.00  0.00    -0.061 NA
ATOM     20  N   UNL     1      -1.803   0.505   3.553  0.00  0.00    -0.213 N 
ATOM     21  H   UNL     1      -0.513  -2.417   4.201  0.00  0.00    +0.172 HD
BRANCH  20  22
ATOM     22  C   UNL     1      -2.498   1.783   3.723  0.00  0.00    +0.096 C 
ATOM     23  C   UNL     1      -1.582   2.925   3.278  0.00  0.00    +0.024 C 
ATOM     24  C   UNL     1      -2.308   4.260   3.455  0.00  0.00    +0.002 C 
ATOM     25  C   UNL     1      -3.580   4.265   2.605  0.00  0.00    +0.000 C 
ATOM     26  C   UNL     1      -4.496   3.123   3.050  0.00  0.00    +0.002 C 
ATOM     27  C   UNL     1      -3.770   1.788   2.872  0.00  0.00    +0.024 C 
ENDBRANCH  20  22
ENDBRANCH   1  16
BRANCH   1  28
ATOM     28  N   UNL     1      -1.055  -0.677   6.971  0.00  0.00    +0.392 N 
ATOM     29  H   UNL     1      -0.311  -0.548   7.640  0.00  0.00    -0.080 HD
BRANCH  28  30
ATOM     30  C   UNL     1      -2.306  -0.139   7.522  0.00  0.00    -0.002 C 
BRANCH  30  31
ATOM     31  C   UNL     1      -2.074   1.266   8.017  0.00  0.00    +0.089 A 
ATOM     32  C   UNL     1      -2.336   2.394   7.333  0.00  0.00    +0.042 A 
ATOM     33  C   UNL     1      -1.969   3.474   8.169  0.00  0.00    +0.041 A 
ATOM     34  C   UNL     1      -1.505   2.941   9.314  0.00  0.00    +0.195 A 
ATOM     35  O   UNL     1      -1.577   1.603   9.218  0.00  0.00    -0.470 OA
ENDBRANCH  30  31
ENDBRANCH  28  30
BRANCH  28  36
ATOM     36  C   UNL     1      -1.220  -2.110   6.692  0.00  0.00    -0.034 C 
BRANCH  36  37
ATOM     37  C   UNL     1       0.133  -2.773   6.654  0.00  0.00    -0.027 A 
ATOM     38  C   UNL     1       1.146  -2.696   7.552  0.00  0.00    +0.009 A 
ATOM     39  C   UNL     1       2.311  -3.399   7.309  0.00  0.00    +0.008 A 
ATOM     40  C   UNL     1       2.407  -4.144   6.181  0.00  0.00    +0.045 A 
ATOM     41  S   UNL     1       0.814  -3.869   5.421  0.00  0.00    -0.103 S 
ENDBRANCH  36  37
ENDBRANCH  28  36
ENDBRANCH   1  28
TORSDOF 8
