REMARK  Name = ZINC09610269
REMARK  12 active torsions:
REMARK  status: ('A' for Active; 'I' for Inactive)
REMARK    1  A    between atoms: C_1  and  C_2
REMARK    2  A    between atoms: C_5  and  N_9
REMARK    3  A    between atoms: C_7  and  C_8
REMARK    4  A    between atoms: C_12  and  C_33
REMARK    5  A    between atoms: C_13  and  C_17
REMARK    6  A    between atoms: C_14  and  C_16
REMARK    7  A    between atoms: C_17  and  C_18
REMARK    8  A    between atoms: C_18  and  C_19
REMARK    9  A    between atoms: N_21  and  C_22
REMARK   10  A    between atoms: C_22  and  C_23
REMARK   11  A    between atoms: C_28  and  N_77
REMARK   12  A    between atoms: C_34  and  C_36
REMARK                            x       y       z     vdW  Elec       q    Type
REMARK                         _______ _______ _______ _____ _____    ______ ____
ROOT
ATOM      1  N   UNL     1       0.117  -3.905  -0.379  0.00  0.00    -0.214 N 
ATOM      2  C   UNL     1       0.368  -2.565  -0.232  0.00  0.00    +0.164 A 
ATOM      3  C   UNL     1      -0.661  -1.887  -0.916  0.00  0.00    +0.045 A 
ATOM      4  C   UNL     1      -0.664  -0.488  -0.936  0.00  0.00    -0.033 A 
ATOM      5  C   UNL     1       0.346   0.170  -0.282  0.00  0.00    -0.022 A 
ATOM      6  C   UNL     1       1.332  -0.559   0.367  0.00  0.00    +0.044 A 
ATOM      7  N   UNL     1       1.319  -1.874   0.384  0.00  0.00    -0.232 NA
ATOM      8  C   UNL     1       2.441   0.174   1.078  0.00  0.00    +0.066 C 
ATOM      9  C   UNL     1      -1.746   0.275  -1.656  0.00  0.00    +0.045 C 
ATOM     10  C   UNL     1      -1.534  -2.915  -1.474  0.00  0.00    +0.070 A 
ATOM     11  N   UNL     1      -1.045  -4.075  -1.138  0.00  0.00    -0.169 NA
ATOM     12  C   UNL     1      -2.776  -2.677  -2.293  0.00  0.00    +0.068 C 
ENDROOT
BRANCH   1  17
ATOM     13  C   UNL     1       3.287  -8.096   1.762  0.00  0.00    +0.044 C 
ATOM     14  C   UNL     1       2.445  -6.983   1.194  0.00  0.00    -0.047 A 
ATOM     15  C   UNL     1       3.047  -5.820   0.750  0.00  0.00    +0.006 A 
ATOM     16  C   UNL     1       2.279  -4.798   0.229  0.00  0.00    +0.028 A 
ATOM     17  C   UNL     1       0.899  -4.940   0.150  0.00  0.00    +0.068 A 
ATOM     18  C   UNL     1       0.297  -6.107   0.601  0.00  0.00    +0.031 A 
ATOM     19  C   UNL     1       1.072  -7.127   1.116  0.00  0.00    -0.046 A 
ATOM     20  C   UNL     1       0.420  -8.396   1.601  0.00  0.00    +0.044 C 
ENDBRANCH   1  17
BRANCH   5  21
ATOM     21  C   UNL     1       0.388   1.676  -0.275  0.00  0.00    +0.046 C 
BRANCH  21  22
ATOM     22  C   UNL     1      -0.389   2.202   0.934  0.00  0.00    +0.100 C 
BRANCH  22  23
ATOM     23  C   UNL     1      -0.347   3.708   0.942  0.00  0.00    +0.213 C 
ATOM     24  O   UNL     1       0.246   4.303   0.067  0.00  0.00    -0.276 OA
ATOM     25  N   UNL     1      -0.968   4.395   1.921  0.00  0.00    -0.315 N 
ATOM     26  H   UNL     1      -1.443   3.919   2.621  0.00  0.00    +0.149 HD
BRANCH  25  27
ATOM     27  C   UNL     1      -0.927   5.859   1.929  0.00  0.00    +0.105 C 
BRANCH  27  28
ATOM     28  C   UNL     1      -1.704   6.385   3.137  0.00  0.00    -0.012 C 
ATOM     29  C   UNL     1      -3.211   6.065   3.001  0.00  0.00    -0.015 C 
ATOM     30  C   UNL     1      -3.937   7.319   3.523  0.00  0.00    -0.078 C 
ATOM     31  C   UNL     1      -1.681   7.934   3.173  0.00  0.00    -0.074 C 
ATOM     32  N   UNL     1      -2.885   8.249   3.949  0.00  0.00    +0.382 N 
ATOM     33  H   UNL     1      -2.695   8.123   4.950  0.00  0.00    -0.081 HD
BRANCH  32  34
ATOM     34  C   UNL     1      -3.313   9.660   3.706  0.00  0.00    -0.069 C 
ATOM     35  C   UNL     1      -2.244  10.639   4.234  0.00  0.00    -0.015 C 
ATOM     36  C   UNL     1      -3.063  11.825   4.800  0.00  0.00    -0.002 C 
ATOM     37  C   UNL     1      -4.283  11.122   5.444  0.00  0.00    -0.002 C 
ATOM     38  C   UNL     1      -4.610   9.967   4.475  0.00  0.00    -0.015 C 
ENDBRANCH  32  34
ENDBRANCH  27  28
ENDBRANCH  25  27
ENDBRANCH  22  23
ENDBRANCH  21  22
ENDBRANCH   5  21
TORSDOF 7
