REMARK  Name = ZINC02843167
REMARK  7 active torsions:
REMARK  status: ('A' for Active; 'I' for Inactive)
REMARK    1  A    between atoms: C_1  and  C_2
REMARK    2  A    between atoms: C_8  and  C_26
REMARK    3  A    between atoms: N_14  and  C_15
REMARK    4  A    between atoms: C_15  and  N_17
REMARK    5  A    between atoms: N_17  and  C_18
REMARK    6  A    between atoms: C_21  and  C_25
REMARK    7  A    between atoms: C_22  and  C_24
REMARK                            x       y       z     vdW  Elec       q    Type
REMARK                         _______ _______ _______ _____ _____    ______ ____
ROOT
ATOM      1  C   UNL     1      -0.936  -4.698   0.547  0.00  0.00    +0.044 C 
ATOM      2  C   UNL     1      -0.695  -3.212   0.611  0.00  0.00    -0.050 A 
ATOM      3  C   UNL     1      -1.745  -2.334   0.347  0.00  0.00    +0.005 A 
ATOM      4  C   UNL     1      -1.562  -0.985   0.396  0.00  0.00    +0.029 A 
ATOM      5  C   UNL     1      -0.299  -0.468   0.716  0.00  0.00    +0.077 A 
ATOM      6  C   UNL     1       0.770  -1.362   0.985  0.00  0.00    +0.022 A 
ATOM      7  C   UNL     1       0.546  -2.745   0.926  0.00  0.00    +0.015 A 
ATOM      8  C   UNL     1       2.029  -0.823   1.304  0.00  0.00    +0.051 A 
ATOM      9  N   UNL     1       2.160   0.487   1.339  0.00  0.00    -0.217 NA
ATOM     10  C   UNL     1       1.136   1.297   1.082  0.00  0.00    +0.231 A 
ATOM     11  N   UNL     1      -0.066   0.849   0.777  0.00  0.00    -0.212 NA
ATOM     12  N   UNL     1       1.341   2.668   1.135  0.00  0.00    -0.298 N 
ATOM     13  C   UNL     1       0.300   3.531   0.873  0.00  0.00    +0.172 C 
ATOM     14  N   UNL     1       0.504   4.895   0.926  0.00  0.00    -0.269 N 
ATOM     15  C   UNL     1       3.201  -1.723   1.600  0.00  0.00    +0.066 C 
ATOM     16  H   UNL     1       2.218   3.018   1.357  0.00  0.00    +0.171 HD
ATOM     17  H   UNL     1      -1.643   3.581   0.270  0.00  0.00    +0.158 HD
ATOM     18  H   UNL     1       1.376   5.263   0.712  0.00  0.00    +0.157 HD
ATOM     19  N   UNL     1      -0.873   2.991   0.585  0.00  0.00    -0.373 N 
ATOM     20  H   UNL     1      -1.008   1.977   0.678  0.00  0.00    +0.158 HD
ENDROOT
BRANCH  14  21
ATOM     21  C   UNL     1      -0.507   5.715   1.274  0.00  0.00    +0.141 C 
ATOM     22  S   UNL     1      -1.997   5.059   1.805  0.00  0.00    -0.018 S 
BRANCH  21  23
ATOM     23  N   UNL     1      -0.346   7.051   1.205  0.00  0.00    -0.297 N 
ATOM     24  H   UNL     1       0.517   7.424   0.963  0.00  0.00    +0.154 HD
BRANCH  23  25
ATOM     25  C   UNL     1      -1.422   7.901   1.482  0.00  0.00    +0.033 A 
ATOM     26  C   UNL     1      -1.686   8.982   0.651  0.00  0.00    +0.023 A 
ATOM     27  C   UNL     1      -2.753   9.816   0.924  0.00  0.00    +0.005 A 
ATOM     28  C   UNL     1      -3.551   9.581   2.029  0.00  0.00    -0.047 A 
ATOM     29  C   UNL     1      -3.287   8.509   2.861  0.00  0.00    -0.046 A 
ATOM     30  C   UNL     1      -2.225   7.668   2.591  0.00  0.00    +0.027 A 
ATOM     31  C   UNL     1      -4.158   8.258   4.064  0.00  0.00    +0.044 C 
ATOM     32  C   UNL     1      -4.711  10.496   2.326  0.00  0.00    +0.044 C 
ENDBRANCH  23  25
ENDBRANCH  21  23
ENDBRANCH  14  21
TORSDOF 3
