REMARK  Name = ZINC08835996
REMARK  4 active torsions:
REMARK  status: ('A' for Active; 'I' for Inactive)
REMARK    1  A    between atoms: C_1  and  C_2
REMARK    2  A    between atoms: C_5  and  N_9
REMARK    3  A    between atoms: C_10  and  C_12
REMARK    4  A    between atoms: C_22  and  C_30
REMARK                            x       y       z     vdW  Elec       q    Type
REMARK                         _______ _______ _______ _____ _____    ______ ____
ROOT
ATOM      1  C   UNL     1       2.386   0.480  -0.883  0.00  0.00    +0.176 C 
ATOM      2  C   UNL     1       1.471  -0.245   0.107  0.00  0.00    +0.130 C 
ATOM      3  C   UNL     1       0.137   0.458   0.149  0.00  0.00    +0.222 C 
ATOM      4  O   UNL     1      -0.882  -0.172   0.342  0.00  0.00    -0.275 OA
ATOM      5  N   UNL     1       0.089   1.794  -0.032  0.00  0.00    -0.260 N 
ATOM      6  C   UNL     1       1.252   2.505  -0.240  0.00  0.00    +0.167 C 
ATOM      7  N   UNL     1       1.258   3.865  -0.024  0.00  0.00    -0.258 N 
ATOM      8  C   UNL     1       2.443   4.578  -0.123  0.00  0.00    +0.222 A 
ATOM      9  N   UNL     1       2.438   5.873   0.188  0.00  0.00    -0.219 NA
ATOM     10  C   UNL     1       3.532   6.602   0.119  0.00  0.00    +0.051 A 
ATOM     11  C   UNL     1       4.724   5.986  -0.306  0.00  0.00    +0.022 A 
ATOM     12  C   UNL     1       5.930   6.693  -0.413  0.00  0.00    +0.012 A 
ATOM     13  C   UNL     1       7.053   6.045  -0.831  0.00  0.00    +0.001 A 
ATOM     14  C   UNL     1       7.021   4.690  -1.153  0.00  0.00    +0.002 A 
ATOM     15  C   UNL     1       5.866   3.973  -1.061  0.00  0.00    +0.028 A 
ATOM     16  C   UNL     1       4.689   4.606  -0.635  0.00  0.00    +0.076 A 
ATOM     17  N   UNL     1       3.528   3.948  -0.527  0.00  0.00    -0.214 NA
ATOM     18  C   UNL     1       3.507   8.065   0.481  0.00  0.00    +0.066 C 
ATOM     19  H   UNL     1      -0.765   2.254  -0.019  0.00  0.00    +0.157 HD
ATOM     20  H   UNL     1       0.433   4.325   0.197  0.00  0.00    +0.158 HD
ATOM     21  N   UNL     1       2.405   1.967  -0.646  0.00  0.00    -0.349 N 
ATOM     22  H   UNL     1       3.252   2.531  -0.786  0.00  0.00    +0.163 HD
ENDROOT
BRANCH   1  24
ATOM     23  N   UNL     1       4.178  -1.181  -1.269  0.00  0.00    -0.284 N 
ATOM     24  C   UNL     1       3.799  -0.013  -0.712  0.00  0.00    +0.240 C 
ATOM     25  O   UNL     1       4.597   0.641  -0.074  0.00  0.00    -0.273 OA
ATOM     26  H   UNL     1       3.563  -1.667  -1.841  0.00  0.00    +0.155 HD
BRANCH  23  31
ATOM     27  C   UNL     1       9.363  -3.253  -0.265  0.00  0.00    +0.045 C 
ATOM     28  C   UNL     1       7.986  -2.703  -0.532  0.00  0.00    -0.032 A 
ATOM     29  C   UNL     1       7.330  -1.980   0.447  0.00  0.00    +0.006 A 
ATOM     30  C   UNL     1       6.068  -1.474   0.206  0.00  0.00    +0.023 A 
ATOM     31  C   UNL     1       5.457  -1.692  -1.022  0.00  0.00    +0.035 A 
ATOM     32  C   UNL     1       6.115  -2.422  -2.002  0.00  0.00    +0.043 A 
ATOM     33  C   UNL     1       7.380  -2.921  -1.757  0.00  0.00    +0.046 A 
ATOM     34 CL   UNL     1       8.207  -3.830  -2.984  0.00  0.00    -0.083 Cl
ENDBRANCH  23  31
ENDBRANCH   1  24
TORSDOF 2
