REMARK  Name = ZINC12866512
REMARK  3 active torsions:
REMARK  status: ('A' for Active; 'I' for Inactive)
REMARK    1  A    between atoms: C_1  and  C_2
REMARK    2  A    between atoms: C_4  and  C_33
REMARK    3  A    between atoms: N_20  and  C_23
REMARK                            x       y       z     vdW  Elec       q    Type
REMARK                         _______ _______ _______ _____ _____    ______ ____
ROOT
ATOM      1  C   UNL     1      -6.570   3.986   1.740  0.00  0.00    +0.044 C 
ATOM      2  C   UNL     1      -5.776   4.198   0.477  0.00  0.00    -0.050 A 
ATOM      3  C   UNL     1      -6.095   5.238  -0.376  0.00  0.00    +0.008 A 
ATOM      4  C   UNL     1      -5.371   5.436  -1.534  0.00  0.00    -0.029 A 
ATOM      5  C   UNL     1      -4.312   4.589  -1.852  0.00  0.00    +0.039 A 
ATOM      6  C   UNL     1      -4.001   3.546  -0.986  0.00  0.00    -0.027 A 
ATOM      7  C   UNL     1      -4.726   3.351   0.169  0.00  0.00    +0.008 A 
ATOM      8  C   UNL     1      -2.832   2.831  -1.605  0.00  0.00    +0.053 C 
ATOM      9  C   UNL     1      -3.163   1.361  -1.886  0.00  0.00    +0.089 C 
ATOM     10  C   UNL     1      -1.838   0.599  -1.606  0.00  0.00    +0.074 C 
ATOM     11  C   UNL     1      -0.830   1.684  -1.185  0.00  0.00    -0.054 C 
ATOM     12  C   UNL     1      -2.081   2.445   0.661  0.00  0.00    -0.076 C 
ATOM     13  C   UNL     1      -0.861   1.720   1.268  0.00  0.00    -0.020 C 
ATOM     14  C   UNL     1      -0.057   1.207   0.057  0.00  0.00    -0.016 C 
ATOM     15  C   UNL     1      -2.178  -0.262  -0.410  0.00  0.00    +0.228 C 
ATOM     16  O   UNL     1      -1.415  -1.023   0.144  0.00  0.00    -0.275 OA
ATOM     17  N   UNL     1      -3.452  -0.053  -0.059  0.00  0.00    -0.210 N 
ATOM     18  C   UNL     1      -4.112   0.842  -0.830  0.00  0.00    +0.229 C 
ATOM     19  O   UNL     1      -5.269   1.179  -0.702  0.00  0.00    -0.275 OA
ATOM     20  C   UNL     1      -2.546   3.583  -2.877  0.00  0.00    +0.212 C 
ATOM     21  O   UNL     1      -1.676   3.334  -3.685  0.00  0.00    -0.277 OA
ATOM     22  N   UNL     1      -3.445   4.584  -2.946  0.00  0.00    -0.286 N 
ATOM     23  C   UNL     1      -5.728   6.573  -2.457  0.00  0.00    +0.045 C 
ATOM     24  H   UNL     1      -3.484   5.227  -3.671  0.00  0.00    +0.155 HD
ATOM     25  N   UNL     1      -1.665   2.768  -0.720  0.00  0.00    +0.395 N 
ATOM     26  H   UNL     1      -1.155   3.659  -0.739  0.00  0.00    -0.079 HD
ENDROOT
BRANCH  17  27
ATOM     27  C   UNL     1      -4.059  -0.712   1.019  0.00  0.00    +0.045 A 
ATOM     28  C   UNL     1      -4.297  -2.078   0.955  0.00  0.00    +0.024 A 
ATOM     29  C   UNL     1      -4.891  -2.726   2.020  0.00  0.00    +0.003 A 
ATOM     30  C   UNL     1      -5.259  -2.013   3.146  0.00  0.00    +0.015 A 
ATOM     31  C   UNL     1      -5.029  -0.650   3.212  0.00  0.00    +0.020 A 
ATOM     32  C   UNL     1      -4.430   0.002   2.150  0.00  0.00    +0.039 A 
ATOM     33 BR   UNL     1      -5.534   0.321   4.754  0.00  0.00    -0.050 Br
ENDBRANCH  17  27
TORSDOF 1
