REMARK  Name = ZINC45441020
REMARK  10 active torsions:
REMARK  status: ('A' for Active; 'I' for Inactive)
REMARK    1  A    between atoms: C_1  and  C_2
REMARK    2  A    between atoms: C_5  and  C_25
REMARK    3  A    between atoms: N_8  and  C_10
REMARK    4  A    between atoms: C_10  and  C_11
REMARK    5  A    between atoms: C_11  and  C_12
REMARK    6  A    between atoms: C_12  and  C_13
REMARK    7  A    between atoms: C_13  and  N_14
REMARK    8  A    between atoms: N_17  and  C_18
REMARK    9  A    between atoms: C_18  and  C_19
REMARK   10  A    between atoms: C_18  and  C_22
REMARK                            x       y       z     vdW  Elec       q    Type
REMARK                         _______ _______ _______ _____ _____    ______ ____
ROOT
ATOM      1  N   UNL     1       7.256  -3.421   2.937  0.00  0.00    -0.299 N 
ATOM      2  C   UNL     1       8.232  -2.787   3.616  0.00  0.00    +0.301 C 
ATOM      3  O   UNL     1       8.918  -1.953   3.057  0.00  0.00    -0.253 OA
ATOM      4  N   UNL     1       8.449  -3.078   4.914  0.00  0.00    -0.281 N 
ATOM      5  H   UNL     1       6.709  -4.087   3.383  0.00  0.00    +0.150 HD
ATOM      6  H   UNL     1       7.902  -3.744   5.360  0.00  0.00    +0.151 HD
ENDROOT
BRANCH   1   7
ATOM      7  C   UNL     1       7.020  -3.105   1.526  0.00  0.00    +0.105 C 
BRANCH   7   8
ATOM      8  C   UNL     1       5.865  -3.958   0.998  0.00  0.00    +0.017 C 
BRANCH   8   9
ATOM      9  C   UNL     1       5.619  -3.628  -0.475  0.00  0.00    -0.017 C 
BRANCH   9  10
ATOM     10  C   UNL     1       4.464  -4.481  -1.003  0.00  0.00    -0.079 C 
BRANCH  10  16
ATOM     11  C   UNL     1       3.140  -0.961  -4.137  0.00  0.00    +0.005 C 
ATOM     12  C   UNL     1       3.610  -2.412  -4.015  0.00  0.00    -0.031 C 
ATOM     13  C   UNL     1       2.568  -3.341  -4.645  0.00  0.00    +0.003 C 
ATOM     14  C   UNL     1       3.010  -4.794  -4.449  0.00  0.00    -0.031 C 
ATOM     15  C   UNL     1       3.202  -5.066  -2.955  0.00  0.00    -0.076 C 
ATOM     16  N   UNL     1       4.228  -4.165  -2.418  0.00  0.00    +0.380 N 
ATOM     17  C   UNL     1       3.781  -2.772  -2.538  0.00  0.00    -0.076 C 
ATOM     18  C   UNL     1       1.939  -5.734  -5.006  0.00  0.00    +0.005 C 
ATOM     19  H   UNL     1       5.085  -4.286  -2.936  0.00  0.00    -0.082 HD
ENDBRANCH  10  16
ENDBRANCH   9  10
ENDBRANCH   8   9
ENDBRANCH   7   8
ENDBRANCH   1   7
BRANCH   4  20
ATOM     20  C   UNL     1       9.511  -2.389   5.652  0.00  0.00    +0.246 C 
BRANCH  20  21
ATOM     21  C   UNL     1       8.985  -1.080   6.182  0.00  0.00    +0.240 C 
ATOM     22  O   UNL     1       7.799  -0.943   6.394  0.00  0.00    -0.273 OA
ATOM     23  N   UNL     1       9.834  -0.060   6.421  0.00  0.00    -0.327 N 
ATOM     24  H   UNL     1      10.771  -0.144   6.185  0.00  0.00    +0.145 HD
ATOM     25  H   UNL     1       9.508   0.757   6.830  0.00  0.00    +0.145 HD
ENDBRANCH  20  21
BRANCH  20  26
ATOM     26  C   UNL     1       9.964  -3.251   6.801  0.00  0.00    +0.240 C 
ATOM     27  O   UNL     1       9.218  -4.088   7.263  0.00  0.00    -0.273 OA
ATOM     28  N   UNL     1      11.199  -3.091   7.317  0.00  0.00    -0.327 N 
ATOM     29  H   UNL     1      11.821  -2.471   6.904  0.00  0.00    +0.145 HD
ATOM     30  H   UNL     1      11.466  -3.596   8.102  0.00  0.00    +0.145 HD
ENDBRANCH  20  26
ENDBRANCH   4  20
TORSDOF 8
