REMARK  Name = ZINC37064047
REMARK  4 active torsions:
REMARK  status: ('A' for Active; 'I' for Inactive)
REMARK    1  A    between atoms: C_6  and  N_7
REMARK    2  A    between atoms: N_7  and  S_8
REMARK    3  A    between atoms: S_8  and  C_11
REMARK    4  A    between atoms: C_16  and  N_17
REMARK                            x       y       z     vdW  Elec       q    Type
REMARK                         _______ _______ _______ _____ _____    ______ ____
ROOT
ATOM      1  S   UNL     1      -2.535  -0.194  -0.911  0.00  0.00    +0.074 S 
ATOM      2  O   UNL     1      -3.679  -1.000  -0.668  0.00  0.00    -0.150 OA
ATOM      3  O   UNL     1      -2.536   1.212  -0.701  0.00  0.00    -0.150 OA
ENDROOT
BRANCH   1   4
ATOM      4  C   UNL     1      -2.087  -0.451  -2.595  0.00  0.00    +0.129 A 
ATOM      5  C   UNL     1      -1.832   0.631  -3.416  0.00  0.00    +0.032 A 
ATOM      6  C   UNL     1      -1.480   0.431  -4.737  0.00  0.00    +0.017 A 
ATOM      7  C   UNL     1      -1.381  -0.854  -5.243  0.00  0.00    +0.020 A 
ATOM      8  C   UNL     1      -1.635  -1.940  -4.428  0.00  0.00    +0.040 A 
ATOM      9  C   UNL     1      -1.983  -1.742  -3.098  0.00  0.00    +0.053 A 
ATOM     10 BR   UNL     1      -0.899  -1.122  -7.052  0.00  0.00    -0.050 Br
BRANCH   9  11
ATOM     11  N   UNL     1      -2.235  -2.837  -2.269  0.00  0.00    -0.356 N 
ATOM     12  H   UNL     1      -2.394  -2.703  -1.322  0.00  0.00    +0.142 HD
ATOM     13  H   UNL     1      -2.250  -3.733  -2.641  0.00  0.00    +0.142 HD
ENDBRANCH   9  11
ENDBRANCH   1   4
BRANCH   1  14
ATOM     14  N   UNL     1      -1.314  -0.811   0.021  0.00  0.00    -0.216 N 
ATOM     15  H   UNL     1      -1.489  -1.552   0.622  0.00  0.00    +0.174 HD
BRANCH  14  21
ATOM     16  C   UNL     1       0.141   1.114  -0.054  0.00  0.00    +0.028 A 
ATOM     17  C   UNL     1       1.411   1.655  -0.132  0.00  0.00    +0.051 A 
ATOM     18  C   UNL     1       2.516   0.826  -0.215  0.00  0.00    +0.166 A 
ATOM     19  C   UNL     1       2.350  -0.557  -0.219  0.00  0.00    +0.168 A 
ATOM     20  C   UNL     1       1.078  -1.099  -0.141  0.00  0.00    +0.074 A 
ATOM     21  C   UNL     1      -0.028  -0.264  -0.058  0.00  0.00    +0.052 A 
ATOM     22  O   UNL     1       3.579  -1.145  -0.308  0.00  0.00    -0.453 OA
ATOM     23  C   UNL     1       4.467  -0.110  -0.769  0.00  0.00    +0.466 C 
ATOM     24  O   UNL     1       3.851   1.104  -0.300  0.00  0.00    -0.453 OA
ENDBRANCH  14  21
ENDBRANCH   1  14
TORSDOF 4
