REMARK  Name = ZINC36559266
REMARK  6 active torsions:
REMARK  status: ('A' for Active; 'I' for Inactive)
REMARK    1  A    between atoms: C_4  and  N_7
REMARK    2  A    between atoms: N_7  and  C_8
REMARK    3  A    between atoms: C_11  and  N_14
REMARK    4  A    between atoms: C_15  and  C_17
REMARK    5  A    between atoms: C_24  and  C_33
REMARK    6  A    between atoms: C_42  and  O_43
REMARK                            x       y       z     vdW  Elec       q    Type
REMARK                         _______ _______ _______ _____ _____    ______ ____
ROOT
ATOM      1  C   UNL     1       5.380  -8.335   0.446  0.00  0.00    +0.058 A 
ATOM      2  C   UNL     1       4.269  -9.168   0.306  0.00  0.00    +0.015 A 
ATOM      3  C   UNL     1       4.407 -10.531   0.449  0.00  0.00    +0.001 A 
ATOM      4  C   UNL     1       5.647 -11.079   0.740  0.00  0.00    +0.006 A 
ATOM      5  C   UNL     1       6.754 -10.274   0.886  0.00  0.00    -0.019 A 
ATOM      6  C   UNL     1       6.640  -8.888   0.725  0.00  0.00    +0.044 A 
ATOM      7  N   UNL     1       7.747  -8.049   0.820  0.00  0.00    -0.336 N 
ATOM      8  C   UNL     1       9.093  -8.582   1.123  0.00  0.00    +0.109 C 
ATOM      9  C   UNL     1       9.152  -9.947   0.461  0.00  0.00    +0.029 C 
ATOM     10  C   UNL     1       8.090 -10.814   1.218  0.00  0.00    +0.049 C 
ATOM     11  C   UNL     1       8.486 -12.203   0.872  0.00  0.00    -0.023 C 
ATOM     12  C   UNL     1       9.794 -12.226   0.646  0.00  0.00    -0.030 C 
ATOM     13  C   UNL     1      10.389 -10.809   0.745  0.00  0.00    +0.033 C 
ATOM     14  H   UNL     1       7.633  -7.095   0.683  0.00  0.00    +0.147 HD
ENDROOT
BRANCH   8  15
ATOM     15  C   UNL     1       9.275  -8.715   2.614  0.00  0.00    +0.022 A 
ATOM     16  C   UNL     1       8.212  -8.423   3.484  0.00  0.00    -0.009 A 
ATOM     17  C   UNL     1       6.963  -8.004   2.994  0.00  0.00    +0.009 A 
ATOM     18  C   UNL     1       5.955  -7.730   3.867  0.00  0.00    +0.001 A 
ATOM     19  C   UNL     1       6.142  -7.859   5.242  0.00  0.00    +0.001 A 
ATOM     20  C   UNL     1       7.338  -8.262   5.752  0.00  0.00    +0.008 A 
ATOM     21  C   UNL     1       8.402  -8.555   4.883  0.00  0.00    -0.017 A 
ATOM     22  C   UNL     1       9.650  -8.974   5.374  0.00  0.00    +0.012 A 
ATOM     23  C   UNL     1      10.660  -9.249   4.505  0.00  0.00    +0.046 A 
ATOM     24  C   UNL     1      10.473  -9.126   3.125  0.00  0.00    +0.122 A 
BRANCH  24  25
ATOM     25  O   UNL     1      11.499  -9.413   2.281  0.00  0.00    -0.506 OA
ATOM     26  H   UNL     1      12.110  -8.677   2.139  0.00  0.00    +0.292 HD
ENDBRANCH  24  25
ENDBRANCH   8  15
BRANCH   1  28
ATOM     27  N   UNL     1       4.008  -6.335   0.140  0.00  0.00    -0.281 N 
ATOM     28  C   UNL     1       5.232  -6.876   0.295  0.00  0.00    +0.250 C 
ATOM     29  O   UNL     1       6.215  -6.160   0.311  0.00  0.00    -0.270 OA
ATOM     30  H   UNL     1       3.230  -6.910   0.066  0.00  0.00    +0.155 HD
BRANCH  27  34
ATOM     31  C   UNL     1       3.562  -2.192  -0.020  0.00  0.00    +0.031 A 
ATOM     32  C   UNL     1       2.587  -2.973   0.587  0.00  0.00    +0.025 A 
ATOM     33  C   UNL     1       2.734  -4.344   0.639  0.00  0.00    +0.025 A 
ATOM     34  C   UNL     1       3.858  -4.944   0.086  0.00  0.00    +0.034 A 
ATOM     35  C   UNL     1       4.834  -4.164  -0.520  0.00  0.00    +0.025 A 
ATOM     36  C   UNL     1       4.684  -2.793  -0.579  0.00  0.00    +0.025 A 
BRANCH  31  37
ATOM     37  N   UNL     1       3.413  -0.802  -0.074  0.00  0.00    -0.314 N 
ATOM     38  H   UNL     1       3.739  -0.309  -0.844  0.00  0.00    +0.152 HD
BRANCH  37  42
ATOM     39  C   UNL     1       1.571   1.218   3.067  0.00  0.00    +0.000 A 
ATOM     40  C   UNL     1       2.182  -0.002   3.295  0.00  0.00    +0.002 A 
ATOM     41  C   UNL     1       2.794  -0.674   2.255  0.00  0.00    +0.023 A 
ATOM     42  C   UNL     1       2.795  -0.125   0.979  0.00  0.00    +0.031 A 
ATOM     43  C   UNL     1       2.180   1.101   0.754  0.00  0.00    +0.023 A 
ATOM     44  C   UNL     1       1.570   1.768   1.798  0.00  0.00    +0.002 A 
ENDBRANCH  37  42
ENDBRANCH  31  37
ENDBRANCH  27  34
ENDBRANCH   1  28
TORSDOF 6
