REMARK  Name = ZINC61595109
REMARK  9 active torsions:
REMARK  status: ('A' for Active; 'I' for Inactive)
REMARK    1  A    between atoms: C_1  and  C_2
REMARK    2  A    between atoms: C_2  and  C_4
REMARK    3  A    between atoms: C_2  and  N_23
REMARK    4  A    between atoms: C_4  and  C_6
REMARK    5  A    between atoms: C_4  and  S_12
REMARK    6  A    between atoms: S_12  and  C_13
REMARK    7  A    between atoms: N_19  and  C_20
REMARK    8  A    between atoms: C_20  and  C_21
REMARK    9  A    between atoms: C_20  and  C_22
REMARK                            x       y       z     vdW  Elec       q    Type
REMARK                         _______ _______ _______ _____ _____    ______ ____
ROOT
ATOM      1  C   UNL     1       0.739  -0.482   1.224  0.00  0.00    +0.076 C 
ENDROOT
BRANCH   1   2
ATOM      2  C   UNL     1       2.170  -0.036   1.377  0.00  0.00    +0.003 A 
ATOM      3  C   UNL     1       2.716   0.778   2.314  0.00  0.00    +0.027 A 
ATOM      4  C   UNL     1       4.069   1.052   2.258  0.00  0.00    +0.025 A 
ATOM      5  C   UNL     1       4.811   0.499   1.267  0.00  0.00    +0.060 A 
ATOM      6  S   UNL     1       3.589  -0.449   0.376  0.00  0.00    -0.099 S 
ATOM      7 BR   UNL     1       4.874   2.182   3.543  0.00  0.00    -0.050 Br
ENDBRANCH   1   2
BRANCH   1   9
ATOM      8  C   UNL     1       0.951  -0.781  -1.247  0.00  0.00    -0.013 C 
ATOM      9  C   UNL     1       0.207  -0.033  -0.139  0.00  0.00    -0.060 C 
BRANCH   9  10
ATOM     10  N   UNL     1       0.420   1.412  -0.295  0.00  0.00    +0.381 N 
ATOM     11  H   UNL     1      -0.005   1.723  -1.156  0.00  0.00    -0.090 HD
ATOM     12  H   UNL     1       0.001   1.900   0.482  0.00  0.00    -0.090 HD
ATOM     13  H   UNL     1       1.410   1.606  -0.320  0.00  0.00    -0.090 HD
ENDBRANCH   9  10
ENDBRANCH   1   9
BRANCH   1  14
ATOM     14  S   UNL     1       0.652  -2.290   1.342  0.00  0.00    -0.079 S 
BRANCH  14  15
ATOM     15  C   UNL     1      -1.075  -2.630   1.427  0.00  0.00    +0.193 A 
ATOM     16  N   UNL     1      -2.021  -1.739   1.501  0.00  0.00    -0.145 NA
ATOM     17  N   UNL     1      -3.249  -2.413   1.550  0.00  0.00    -0.226 N 
ATOM     18  H   UNL     1      -4.126  -2.004   1.608  0.00  0.00    +0.194 HD
ATOM     19  C   UNL     1      -2.985  -3.735   1.501  0.00  0.00    +0.345 A 
ATOM     20  O   UNL     1      -3.807  -4.634   1.522  0.00  0.00    -0.245 OA
ATOM     21  N   UNL     1      -1.648  -3.881   1.419  0.00  0.00    -0.268 N 
BRANCH  21  22
ATOM     22  C   UNL     1      -0.927  -5.154   1.339  0.00  0.00    +0.088 C 
ATOM     23  C   UNL     1      -1.234  -5.992   2.582  0.00  0.00    +0.031 C 
ATOM     24  C   UNL     1      -1.372  -5.914   0.088  0.00  0.00    +0.031 C 
ENDBRANCH  21  22
ENDBRANCH  14  15
ENDBRANCH   1  14
TORSDOF 6
