REMARK  Name = ZINC20331988
REMARK  7 active torsions:
REMARK  status: ('A' for Active; 'I' for Inactive)
REMARK    1  A    between atoms: C_1  and  C_2
REMARK    2  A    between atoms: C_2  and  C_3
REMARK    3  A    between atoms: C_3  and  C_4
REMARK    4  A    between atoms: C_10  and  C_14
REMARK    5  A    between atoms: C_14  and  O_15
REMARK    6  A    between atoms: O_15  and  C_16
REMARK    7  A    between atoms: C_19  and  C_22
REMARK                            x       y       z     vdW  Elec       q    Type
REMARK                         _______ _______ _______ _____ _____    ______ ____
ROOT
ATOM      1  C   UNL     1       3.003  -9.945   1.736  0.00  0.00    +0.121 A 
ATOM      2  C   UNL     1       2.059 -10.816   2.270  0.00  0.00    +0.046 A 
ATOM      3  C   UNL     1       2.383 -12.123   2.496  0.00  0.00    +0.011 A 
ATOM      4  C   UNL     1       3.670 -12.588   2.188  0.00  0.00    -0.024 A 
ATOM      5  C   UNL     1       4.617 -11.705   1.649  0.00  0.00    +0.011 A 
ATOM      6  C   UNL     1       4.279 -10.401   1.422  0.00  0.00    +0.046 A 
ENDROOT
BRANCH   4   7
ATOM      7  C   UNL     1       4.023 -13.988   2.428  0.00  0.00    +0.024 C 
ATOM      8  C   UNL     1       3.070 -14.972   2.293  0.00  0.00    +0.081 C 
ATOM      9  C   UNL     1       1.720 -14.685   1.731  0.00  0.00    +0.152 C 
ATOM     10  N   UNL     1       1.504 -13.789   0.805  0.00  0.00    -0.283 NA
ATOM     11  N   UNL     1       0.697 -15.477   2.296  0.00  0.00    -0.152 N 
ATOM     12  C   UNL     1       1.064 -16.678   2.865  0.00  0.00    +0.180 C 
ATOM     13  N   UNL     1       2.276 -17.144   3.035  0.00  0.00    -0.152 NA
ATOM     14  C   UNL     1       3.332 -16.377   2.695  0.00  0.00    +0.273 C 
ATOM     15  O   UNL     1       4.469 -16.820   2.720  0.00  0.00    -0.268 OA
ATOM     16  S   UNL     1      -0.506 -17.375   3.306  0.00  0.00    -0.041 S 
ATOM     17  C   UNL     1      -1.524 -15.994   2.803  0.00  0.00    +0.179 C 
ATOM     18  N   UNL     1      -0.645 -15.164   2.321  0.00  0.00    -0.173 NA
ATOM     19  H   UNL     1       0.604 -13.642   0.473  0.00  0.00    +0.188 HD
ENDBRANCH   4   7
BRANCH   1  20
ATOM     20  O   UNL     1       2.675  -8.647   1.514  0.00  0.00    -0.486 OA
BRANCH  20  21
ATOM     21  C   UNL     1       1.348  -8.245   1.858  0.00  0.00    +0.284 C 
BRANCH  21  28
ATOM     22  C   UNL     1       1.579  -1.934   1.560  0.00  0.00    +0.102 A 
ATOM     23  N   UNL     1       0.830  -2.713   0.839  0.00  0.00    -0.159 NA
ATOM     24  N   UNL     1       0.860  -4.096   0.989  0.00  0.00    -0.171 N 
ATOM     25  C   UNL     1       0.127  -5.017   0.296  0.00  0.00    +0.275 A 
ATOM     26  O   UNL     1      -0.660  -4.652  -0.564  0.00  0.00    -0.266 OA
ATOM     27  C   UNL     1       0.279  -6.377   0.572  0.00  0.00    +0.099 A 
ATOM     28  C   UNL     1       1.169  -6.782   1.544  0.00  0.00    +0.087 A 
ATOM     29  N   UNL     1       1.867  -5.858   2.200  0.00  0.00    -0.223 NA
ATOM     30  C   UNL     1       1.718  -4.585   1.935  0.00  0.00    +0.199 A 
ATOM     31  S   UNL     1       2.463  -3.103   2.580  0.00  0.00    -0.033 S 
BRANCH  22  32
ATOM     32  C   UNL     1       1.680  -0.431   1.536  0.00  0.00    +0.064 C 
BRANCH  32  34
ATOM     33  C   UNL     1       0.820   1.655   0.463  0.00  0.00    +0.004 C 
ATOM     34  C   UNL     1       0.718   0.129   0.486  0.00  0.00    +0.003 C 
ENDBRANCH  32  34
ENDBRANCH  22  32
ENDBRANCH  21  28
ENDBRANCH  20  21
ENDBRANCH   1  20
TORSDOF 6
