REMARK  Name = ZINC27366452
REMARK  9 active torsions:
REMARK  status: ('A' for Active; 'I' for Inactive)
REMARK    1  A    between atoms: C_1  and  C_2
REMARK    2  A    between atoms: C_2  and  C_3
REMARK    3  A    between atoms: C_2  and  C_4
REMARK    4  A    between atoms: C_2  and  N_5
REMARK    5  A    between atoms: C_6  and  C_8
REMARK    6  A    between atoms: C_8  and  N_9
REMARK    7  A    between atoms: N_9  and  C_10
REMARK    8  A    between atoms: N_9  and  C_11
REMARK    9  A    between atoms: C_11  and  C_12
REMARK                            x       y       z     vdW  Elec       q    Type
REMARK                         _______ _______ _______ _____ _____    ______ ____
ROOT
ATOM      1  C   UNL     1       2.757   5.755  -1.217  0.00  0.00    +0.116 A 
ATOM      2  N   UNL     1       1.459   5.529  -1.272  0.00  0.00    -0.219 NA
ATOM      3  C   UNL     1       0.876   4.426  -0.807  0.00  0.00    +0.128 A 
ATOM      4  C   UNL     1       1.747   3.462  -0.223  0.00  0.00    +0.051 A 
ATOM      5  C   UNL     1       1.377   2.182   0.357  0.00  0.00    -0.025 A 
ATOM      6  C   UNL     1       2.383   1.428   0.856  0.00  0.00    -0.004 A 
ATOM      7  S   UNL     1       3.859   2.377   0.582  0.00  0.00    -0.073 S 
ATOM      8  C   UNL     1       3.129   3.779  -0.200  0.00  0.00    +0.114 A 
ATOM      9  N   UNL     1       3.623   4.901  -0.686  0.00  0.00    -0.227 NA
ATOM     10  C   UNL     1       2.273   0.080   1.500  0.00  0.00    +0.043 C 
ATOM     11  C   UNL     1       0.800  -0.174   1.850  0.00  0.00    +0.005 C 
ATOM     12  C   UNL     1      -0.060   0.172   0.631  0.00  0.00    +0.005 C 
ATOM     13  C   UNL     1      -0.065   1.685   0.412  0.00  0.00    +0.037 C 
ATOM     14  N   UNL     1      -0.491   4.229  -0.886  0.00  0.00    -0.343 N 
ATOM     15  H   UNL     1      -0.937   3.304  -0.490  0.00  0.00    +0.144 HD
ATOM     16  H   UNL     1      -1.132   4.996  -1.345  0.00  0.00    +0.144 HD
ENDROOT
BRANCH   1  17
ATOM     17  C   UNL     1       3.283   7.049  -1.783  0.00  0.00    -0.001 C 
BRANCH  17  18
ATOM     18  N   UNL     1       3.613   6.863  -3.203  0.00  0.00    +0.388 N 
ATOM     19  C   UNL     1       2.404   6.601  -3.994  0.00  0.00    -0.095 C 
ATOM     20  H   UNL     1       4.269   5.984  -3.285  0.00  0.00    -0.081 HD
BRANCH  18  21
ATOM     21  C   UNL     1       4.346   8.023  -3.728  0.00  0.00    +0.019 C 
BRANCH  21  23
ATOM     22  N   UNL     1       5.589   8.621  -5.782  0.00  0.00    -0.312 N 
ATOM     23  C   UNL     1       4.879   7.700  -5.101  0.00  0.00    +0.197 C 
ATOM     24  O   UNL     1       4.669   6.611  -5.592  0.00  0.00    -0.278 OA
ATOM     25  H   UNL     1       5.779   9.609  -5.336  0.00  0.00    +0.149 HD
BRANCH  22  27
ATOM     26  C   UNL     1       4.942   7.973  -8.050  0.00  0.00    +0.031 C 
ATOM     27  C   UNL     1       6.107   8.307  -7.115  0.00  0.00    +0.026 C 
ATOM     28  C   UNL     1       6.870   9.515  -7.663  0.00  0.00    +0.031 C 
ATOM     29  C   UNL     1       7.050   7.106  -7.026  0.00  0.00    +0.031 C 
ENDBRANCH  22  27
ENDBRANCH  21  23
ENDBRANCH  18  21
ENDBRANCH  17  18
ENDBRANCH   1  17
TORSDOF 5
