REMARK  Name = ZINC49541111
REMARK  10 active torsions:
REMARK  status: ('A' for Active; 'I' for Inactive)
REMARK    1  A    between atoms: C_1  and  C_2
REMARK    2  A    between atoms: C_2  and  C_3
REMARK    3  A    between atoms: C_3  and  C_4
REMARK    4  A    between atoms: C_4  and  C_6
REMARK    5  A    between atoms: C_4  and  N_11
REMARK    6  A    between atoms: N_11  and  C_12
REMARK    7  A    between atoms: C_12  and  C_14
REMARK    8  A    between atoms: C_12  and  C_16
REMARK    9  A    between atoms: C_14  and  C_15
REMARK   10  A    between atoms: C_21  and  O_22
REMARK                            x       y       z     vdW  Elec       q    Type
REMARK                         _______ _______ _______ _____ _____    ______ ____
ROOT
ATOM      1  N   UNL     1       1.101  -1.565  -0.393  0.00  0.00    +0.389 N 
ATOM      2  H   UNL     1       1.163  -2.569  -0.476  0.00  0.00    -0.084 HD
ATOM      3  H   UNL     1       2.030  -1.172  -0.361  0.00  0.00    -0.084 HD
ENDROOT
BRANCH   1   4
ATOM      4  C   UNL     1       0.379  -1.022  -1.551  0.00  0.00    -0.033 C 
BRANCH   4   5
ATOM      5  C   UNL     1      -0.923  -1.762  -1.723  0.00  0.00    -0.024 A 
ATOM      6  C   UNL     1      -2.189  -1.278  -1.704  0.00  0.00    +0.009 A 
ATOM      7  C   UNL     1      -3.244  -2.152  -1.887  0.00  0.00    +0.008 A 
ATOM      8  C   UNL     1      -2.981  -3.468  -2.080  0.00  0.00    +0.045 A 
ATOM      9  S   UNL     1      -1.197  -3.502  -2.014  0.00  0.00    -0.103 S 
ENDBRANCH   4   5
BRANCH   4  10
ATOM     10  C   UNL     1       1.232  -1.191  -2.810  0.00  0.00    -0.011 C 
BRANCH  10  12
ATOM     11  C   UNL     1       3.278  -0.395  -4.003  0.00  0.00    +0.004 C 
ATOM     12  C   UNL     1       2.488  -0.325  -2.694  0.00  0.00    -0.005 C 
ENDBRANCH  10  12
ENDBRANCH   4  10
ENDBRANCH   1   4
BRANCH   1  13
ATOM     13  C   UNL     1       0.381  -1.219   0.840  0.00  0.00    -0.037 C 
BRANCH  13  14
ATOM     14  C   UNL     1      -0.830  -2.105   0.980  0.00  0.00    -0.019 A 
ATOM     15  C   UNL     1      -0.733  -3.457   0.710  0.00  0.00    +0.020 A 
ATOM     16  C   UNL     1      -1.844  -4.271   0.838  0.00  0.00    +0.018 A 
ATOM     17  C   UNL     1      -3.055  -3.733   1.237  0.00  0.00    +0.019 A 
ATOM     18  C   UNL     1      -3.157  -2.382   1.507  0.00  0.00    +0.047 A 
ATOM     19  C   UNL     1      -2.042  -1.565   1.385  0.00  0.00    +0.119 A 
ATOM     20 BR   UNL     1      -1.708  -6.120   0.468  0.00  0.00    -0.050 Br
BRANCH  19  21
ATOM     21  O   UNL     1      -2.139  -0.237   1.655  0.00  0.00    -0.507 OA
ATOM     22  H   UNL     1      -2.379   0.304   0.890  0.00  0.00    +0.292 HD
ENDBRANCH  19  21
ENDBRANCH  13  14
BRANCH  13  23
ATOM     23  C   UNL     1       1.303  -1.422   2.043  0.00  0.00    -0.014 C 
ATOM     24  C   UNL     1       2.485  -0.455   1.949  0.00  0.00    +0.002 C 
ENDBRANCH  13  23
ENDBRANCH   1  13
TORSDOF 8
