REMARK  Name = ZINC07141043
REMARK  6 active torsions:
REMARK  status: ('A' for Active; 'I' for Inactive)
REMARK    1  A    between atoms: C_8  and  C_10
REMARK    2  A    between atoms: C_15  and  C_16
REMARK    3  A    between atoms: C_15  and  N_48
REMARK    4  A    between atoms: N_18  and  C_19
REMARK    5  A    between atoms: C_23  and  S_25
REMARK    6  A    between atoms: S_25  and  N_28
REMARK                            x       y       z     vdW  Elec       q    Type
REMARK                         _______ _______ _______ _____ _____    ______ ____
ROOT
ATOM      1  C   UNL     1       2.481  -4.081   0.094  0.00  0.00    +0.020 C 
ENDROOT
BRANCH   1   6
ATOM      2  C   UNL     1       4.652  -3.837  -0.981  0.00  0.00    -0.011 C 
ATOM      3  C   UNL     1       6.119  -4.060  -0.536  0.00  0.00    -0.010 C 
ATOM      4  C   UNL     1       6.029  -3.984   1.005  0.00  0.00    -0.020 C 
ATOM      5  C   UNL     1       4.557  -4.294   1.337  0.00  0.00    -0.077 C 
ATOM      6  N   UNL     1       3.897  -4.555   0.053  0.00  0.00    +0.391 N 
ATOM      7  H   UNL     1       3.910  -5.562  -0.146  0.00  0.00    -0.080 HD
BRANCH   2  15
ATOM      8  C   UNL     1       3.546  -4.792  -6.977  0.00  0.00    +0.002 A 
ATOM      9  C   UNL     1       3.614  -6.171  -6.842  0.00  0.00    +0.001 A 
ATOM     10  C   UNL     1       3.867  -6.720  -5.598  0.00  0.00    +0.017 A 
ATOM     11  C   UNL     1       4.045  -5.889  -4.519  0.00  0.00    +0.039 A 
ATOM     12  C   UNL     1       3.981  -4.481  -4.627  0.00  0.00    +0.078 A 
ATOM     13  C   UNL     1       3.721  -3.960  -5.915  0.00  0.00    +0.029 A 
ATOM     14  N   UNL     1       4.180  -3.821  -3.467  0.00  0.00    -0.246 NA
ATOM     15  C   UNL     1       4.412  -4.436  -2.343  0.00  0.00    +0.066 A 
ATOM     16  S   UNL     1       4.386  -6.114  -2.792  0.00  0.00    -0.074 S 
ENDBRANCH   2  15
ENDBRANCH   1   6
BRANCH   1  17
ATOM     17  C   UNL     1       1.699  -4.892   1.095  0.00  0.00    +0.201 C 
ATOM     18  O   UNL     1       2.262  -5.722   1.776  0.00  0.00    -0.278 OA
ATOM     19  N   UNL     1       0.372  -4.695   1.233  0.00  0.00    -0.287 N 
ATOM     20  H   UNL     1      -0.090  -4.077   0.645  0.00  0.00    +0.155 HD
BRANCH  19  21
ATOM     21  C   UNL     1      -0.338  -5.382   2.223  0.00  0.00    +0.035 A 
ATOM     22  C   UNL     1       0.015  -6.683   2.557  0.00  0.00    +0.023 A 
ATOM     23  C   UNL     1      -0.687  -7.358   3.535  0.00  0.00    +0.004 A 
ATOM     24  C   UNL     1      -1.741  -6.740   4.183  0.00  0.00    +0.028 A 
ATOM     25  C   UNL     1      -2.095  -5.445   3.854  0.00  0.00    +0.107 A 
ATOM     26  C   UNL     1      -1.396  -4.764   2.876  0.00  0.00    +0.051 A 
BRANCH  25  27
ATOM     27  S   UNL     1      -3.433  -4.659   4.688  0.00  0.00    +0.056 S 
ATOM     28  O   UNL     1      -3.575  -5.316   5.939  0.00  0.00    -0.153 OA
ATOM     29  O   UNL     1      -3.211  -3.259   4.583  0.00  0.00    -0.153 OA
BRANCH  27  30
ATOM     30  N   UNL     1      -4.808  -4.985   3.824  0.00  0.00    -0.204 NA
ATOM     31  H   UNL     1      -5.663  -5.044   4.277  0.00  0.00    +0.144 HD
ATOM     32  H   UNL     1      -4.757  -5.118   2.864  0.00  0.00    +0.144 HD
ENDBRANCH  27  30
ENDBRANCH  25  27
ENDBRANCH  19  21
ENDBRANCH   1  17
TORSDOF 6
