REMARK  Name = ZINC09792603
REMARK  7 active torsions:
REMARK  status: ('A' for Active; 'I' for Inactive)
REMARK    1  A    between atoms: C_1  and  C_2
REMARK    2  A    between atoms: C_2  and  C_4
REMARK    3  A    between atoms: C_2  and  N_59
REMARK    4  A    between atoms: N_6  and  C_7
REMARK    5  A    between atoms: C_9  and  S_14
REMARK    6  A    between atoms: S_14  and  N_17
REMARK    7  A    between atoms: C_26  and  C_28
REMARK                            x       y       z     vdW  Elec       q    Type
REMARK                         _______ _______ _______ _____ _____    ______ ____
ROOT
ATOM      1  C   UNL     1       2.863   5.763  -3.144  0.00  0.00    +0.203 C 
ATOM      2  O   UNL     1       3.953   5.440  -2.722  0.00  0.00    -0.277 OA
ATOM      3  N   UNL     1       2.724   6.141  -4.430  0.00  0.00    -0.286 N 
ATOM      4  H   UNL     1       1.871   6.477  -4.747  0.00  0.00    +0.155 HD
ENDROOT
BRANCH   3   5
ATOM      5  C   UNL     1       3.809   6.050  -5.309  0.00  0.00    +0.054 A 
ATOM      6  C   UNL     1       4.830   5.141  -5.062  0.00  0.00    +0.053 A 
ATOM      7  C   UNL     1       5.899   5.052  -5.930  0.00  0.00    +0.107 A 
ATOM      8  C   UNL     1       5.956   5.867  -7.046  0.00  0.00    +0.030 A 
ATOM      9  C   UNL     1       4.943   6.774  -7.296  0.00  0.00    +0.024 A 
ATOM     10  C   UNL     1       3.866   6.864  -6.433  0.00  0.00    +0.062 A 
ATOM     11 CL   UNL     1       2.591   7.998  -6.751  0.00  0.00    -0.082 Cl
BRANCH   7  12
ATOM     12  S   UNL     1       7.194   3.898  -5.617  0.00  0.00    +0.061 S 
ATOM     13  O   UNL     1       8.348   4.391  -6.284  0.00  0.00    -0.153 OA
ATOM     14  O   UNL     1       7.175   3.635  -4.221  0.00  0.00    -0.153 OA
BRANCH  12  15
ATOM     15  N   UNL     1       6.780   2.482  -6.371  0.00  0.00    -0.177 NA
ATOM     16  C   UNL     1       6.003   1.456  -5.662  0.00  0.00    +0.109 C 
ATOM     17  C   UNL     1       4.770   1.106  -6.508  0.00  0.00    +0.017 C 
ATOM     18  C   UNL     1       5.221   0.695  -7.911  0.00  0.00    +0.003 C 
ATOM     19  C   UNL     1       5.947   1.865  -8.579  0.00  0.00    +0.017 C 
ATOM     20  C   UNL     1       7.189   2.226  -7.758  0.00  0.00    +0.109 C 
ENDBRANCH  12  15
ENDBRANCH   7  12
ENDBRANCH   3   5
BRANCH   1  22
ATOM     21  C   UNL     1       1.068   7.148  -2.140  0.00  0.00    -0.004 C 
ATOM     22  C   UNL     1       1.665   5.742  -2.231  0.00  0.00    +0.017 C 
BRANCH  22  27
ATOM     23  C   UNL     1       3.009   6.261  -0.280  0.00  0.00    -0.077 C 
ATOM     24  C   UNL     1       2.393   6.702   1.065  0.00  0.00    -0.020 C 
ATOM     25  C   UNL     1       1.425   5.538   1.403  0.00  0.00    -0.012 C 
ATOM     26  C   UNL     1       0.907   5.143  -0.002  0.00  0.00    -0.030 C 
ATOM     27  N   UNL     1       2.085   5.286  -0.880  0.00  0.00    +0.392 N 
ATOM     28  H   UNL     1       2.558   4.378  -0.965  0.00  0.00    -0.080 HD
BRANCH  26  29
ATOM     29  C   UNL     1       0.432   3.712  -0.004  0.00  0.00    -0.024 A 
ATOM     30  C   UNL     1      -0.836   3.234  -0.004  0.00  0.00    +0.009 A 
ATOM     31  C   UNL     1      -1.036   1.866  -0.011  0.00  0.00    +0.008 A 
ATOM     32  C   UNL     1       0.041   1.044  -0.007  0.00  0.00    +0.045 A 
ATOM     33  S   UNL     1       1.394   2.208  -0.005  0.00  0.00    -0.103 S 
ENDBRANCH  26  29
ENDBRANCH  22  27
ENDBRANCH   1  22
TORSDOF 6
