REMARK  Name = ZINC50395318
REMARK  2 active torsions:
REMARK  status: ('A' for Active; 'I' for Inactive)
REMARK    1  A    between atoms: C_8  and  N_13
REMARK    2  A    between atoms: N_13  and  C_14
REMARK                            x       y       z     vdW  Elec       q    Type
REMARK                         _______ _______ _______ _____ _____    ______ ____
ROOT
ATOM      1  C   UNL     1      -0.103   0.051  -1.782  0.00  0.00    +0.019 A 
ATOM      2  C   UNL     1       0.688   1.103  -1.369  0.00  0.00    +0.047 A 
ATOM      3  C   UNL     1       1.935   0.861  -0.801  0.00  0.00    +0.122 A 
ATOM      4  C   UNL     1       2.380  -0.441  -0.653  0.00  0.00    -0.019 A 
ATOM      5  C   UNL     1       1.581  -1.493  -1.066  0.00  0.00    +0.020 A 
ATOM      6  C   UNL     1       0.343  -1.250  -1.630  0.00  0.00    +0.018 A 
ATOM      7 BR   UNL     1      -0.741  -2.693  -2.193  0.00  0.00    -0.050 Br
ATOM      8  C   UNL     1       3.729  -0.746  -0.053  0.00  0.00    -0.033 C 
ATOM      9  C   UNL     1       4.239   0.475   0.717  0.00  0.00    +0.030 C 
ATOM     10  C   UNL     1       4.077   1.711  -0.177  0.00  0.00    +0.228 C 
ATOM     11  O   UNL     1       2.683   1.923  -0.402  0.00  0.00    -0.492 OA
ENDROOT
BRANCH   8  12
ATOM     12  N   UNL     1       3.609  -1.886   0.866  0.00  0.00    +0.391 N 
ATOM     13  H   UNL     1       2.792  -2.428   0.624  0.00  0.00    -0.084 HD
ATOM     14  H   UNL     1       4.431  -2.466   0.791  0.00  0.00    -0.084 HD
BRANCH  12  15
ATOM     15  C   UNL     1       3.481  -1.394   2.244  0.00  0.00    +0.017 C 
ATOM     16  C   UNL     1       3.643  -2.563   3.218  0.00  0.00    -0.005 C 
ATOM     17  C   UNL     1       3.236  -2.087   4.618  0.00  0.00    +0.018 C 
ATOM     18  C   UNL     1       1.733  -1.808   4.622  0.00  0.00    +0.104 C 
ATOM     19  N   UNL     1       1.371  -0.943   3.506  0.00  0.00    -0.317 N 
ATOM     20  C   UNL     1       2.129  -0.764   2.425  0.00  0.00    +0.199 C 
ATOM     21  O   UNL     1       1.705  -0.052   1.540  0.00  0.00    -0.278 OA
ATOM     22  H   UNL     1       0.526  -0.470   3.552  0.00  0.00    +0.149 HD
ENDBRANCH  12  15
ENDBRANCH   8  12
TORSDOF 2
