REMARK  Name = ZINC43248001
REMARK  7 active torsions:
REMARK  status: ('A' for Active; 'I' for Inactive)
REMARK    1  A    between atoms: C_1  and  C_2
REMARK    2  A    between atoms: C_6  and  C_7
REMARK    3  A    between atoms: C_7  and  C_9
REMARK    4  A    between atoms: C_7  and  N_13
REMARK    5  A    between atoms: C_9  and  C_11
REMARK    6  A    between atoms: C_9  and  N_12
REMARK    7  A    between atoms: C_17  and  C_19
REMARK                            x       y       z     vdW  Elec       q    Type
REMARK                         _______ _______ _______ _____ _____    ______ ____
ROOT
ATOM      1  C   UNL     1       0.018   0.004   2.739  0.00  0.00    +0.080 C 
ENDROOT
BRANCH   1   7
ATOM      2  C   UNL     1      -0.079   1.955   0.368  0.00  0.00    +0.044 C 
ATOM      3  C   UNL     1      -0.242   0.465   0.209  0.00  0.00    -0.039 A 
ATOM      4  C   UNL     1      -0.440  -0.089  -1.042  0.00  0.00    +0.011 A 
ATOM      5  C   UNL     1      -0.583  -1.433  -1.150  0.00  0.00    +0.046 A 
ATOM      6  S   UNL     1      -0.439  -1.958   0.550  0.00  0.00    -0.100 S 
ATOM      7  C   UNL     1      -0.192  -0.352   1.290  0.00  0.00    +0.008 A 
ENDBRANCH   1   7
BRANCH   1   8
ATOM      8  N   UNL     1      -0.946  -0.733   3.568  0.00  0.00    -0.290 NA
ATOM      9  C   UNL     1      -0.862  -0.308   4.981  0.00  0.00    +0.085 C 
ATOM     10  C   UNL     1      -2.014   0.713   5.156  0.00  0.00    +0.017 C 
ATOM     11  C   UNL     1      -3.122   0.092   4.266  0.00  0.00    +0.025 C 
ATOM     12  C   UNL     1      -2.325  -0.518   3.093  0.00  0.00    +0.089 C 
BRANCH  12  13
ATOM     13  C   UNL     1      -2.938  -1.833   2.685  0.00  0.00    -0.012 A 
ATOM     14  C   UNL     1      -3.733  -1.915   1.552  0.00  0.00    +0.008 A 
ATOM     15  C   UNL     1      -4.277  -3.145   1.215  0.00  0.00    +0.020 A 
ATOM     16  C   UNL     1      -4.009  -4.241   2.014  0.00  0.00    +0.111 A 
ATOM     17  N   UNL     1      -3.248  -4.125   3.085  0.00  0.00    -0.263 NA
ATOM     18  C   UNL     1      -2.710  -2.973   3.432  0.00  0.00    +0.115 A 
ENDBRANCH  12  13
ENDBRANCH   1   8
BRANCH   1  19
ATOM     19  C   UNL     1       1.441  -0.371   3.156  0.00  0.00    -0.056 C 
ATOM     20  C   UNL     1       2.444   0.423   2.317  0.00  0.00    -0.012 C 
BRANCH  19  21
ATOM     21  N   UNL     1       1.652  -1.809   2.940  0.00  0.00    +0.381 N 
ATOM     22  H   UNL     1       1.519  -2.025   1.963  0.00  0.00    -0.090 HD
ATOM     23  H   UNL     1       2.591  -2.056   3.215  0.00  0.00    -0.090 HD
ATOM     24  H   UNL     1       0.991  -2.332   3.493  0.00  0.00    -0.090 HD
ENDBRANCH  19  21
ENDBRANCH   1  19
TORSDOF 5
