REMARK  Name = ZINC58265308
REMARK  6 active torsions:
REMARK  status: ('A' for Active; 'I' for Inactive)
REMARK    1  A    between atoms: C_3  and  C_17
REMARK    2  A    between atoms: C_6  and  C_9
REMARK    3  A    between atoms: N_11  and  C_12
REMARK    4  A    between atoms: C_12  and  C_13
REMARK    5  A    between atoms: N_19  and  C_20
REMARK    6  A    between atoms: C_20  and  C_21
REMARK                            x       y       z     vdW  Elec       q    Type
REMARK                         _______ _______ _______ _____ _____    ______ ____
ROOT
ATOM      1  C   UNL     1      -0.019   1.526   0.010  0.00  0.00    +0.001 C 
ATOM      2  C   UNL     1       1.417   2.055  -0.000  0.00  0.00    +0.013 C 
ATOM      3  C   UNL     1       2.133   1.562  -1.259  0.00  0.00    +0.076 C 
ATOM      4  C   UNL     1       2.154   0.032  -1.268  0.00  0.00    +0.025 C 
ATOM      5  C   UNL     1       0.718  -0.497  -1.257  0.00  0.00    +0.076 C 
ATOM      6  C   UNL     1       0.002  -0.004   0.002  0.00  0.00    +0.013 C 
ENDROOT
BRANCH   5   7
ATOM      7  C   UNL     1       0.739  -2.004  -1.265  0.00  0.00    +0.216 C 
ATOM      8  O   UNL     1       1.797  -2.596  -1.278  0.00  0.00    -0.276 OA
ATOM      9  N   UNL     1      -0.419  -2.694  -1.258  0.00  0.00    -0.307 N 
ATOM     10  H   UNL     1      -1.266  -2.220  -1.247  0.00  0.00    +0.149 HD
BRANCH   9  11
ATOM     11  C   UNL     1      -0.399  -4.159  -1.266  0.00  0.00    +0.217 C 
BRANCH  11  12
ATOM     12  C   UNL     1      -1.835  -4.688  -1.255  0.00  0.00    +0.405 C 
ATOM     13  F   UNL     1      -2.511  -4.225  -2.388  0.00  0.00    -0.169 F 
ATOM     14  F   UNL     1      -1.816  -6.087  -1.263  0.00  0.00    -0.169 F 
ATOM     15  F   UNL     1      -2.490  -4.237  -0.104  0.00  0.00    -0.169 F 
ENDBRANCH  11  12
ENDBRANCH   9  11
ENDBRANCH   5   7
BRANCH   3  16
ATOM     16  C   UNL     1       3.547   2.084  -1.270  0.00  0.00    +0.216 C 
ATOM     17  O   UNL     1       4.479   1.308  -1.283  0.00  0.00    -0.276 OA
ATOM     18  N   UNL     1       3.775   3.412  -1.265  0.00  0.00    -0.307 N 
ATOM     19  H   UNL     1       3.029   4.032  -1.254  0.00  0.00    +0.149 HD
BRANCH  18  20
ATOM     20  C   UNL     1       5.149   3.919  -1.275  0.00  0.00    +0.217 C 
BRANCH  20  21
ATOM     21  C   UNL     1       5.129   5.449  -1.267  0.00  0.00    +0.405 C 
ATOM     22  F   UNL     1       4.474   5.900  -0.116  0.00  0.00    -0.169 F 
ATOM     23  F   UNL     1       6.441   5.933  -1.277  0.00  0.00    -0.169 F 
ATOM     24  F   UNL     1       4.452   5.912  -2.400  0.00  0.00    -0.169 F 
ENDBRANCH  20  21
ENDBRANCH  18  20
ENDBRANCH   3  16
TORSDOF 6
