REMARK  Name = ZINC25566111
REMARK  10 active torsions:
REMARK  status: ('A' for Active; 'I' for Inactive)
REMARK    1  A    between atoms: C_1  and  C_2
REMARK    2  A    between atoms: C_2  and  C_4
REMARK    3  A    between atoms: C_2  and  N_20
REMARK    4  A    between atoms: N_6  and  C_7
REMARK    5  A    between atoms: C_12  and  C_13
REMARK    6  A    between atoms: C_13  and  C_14
REMARK    7  A    between atoms: N_23  and  S_26
REMARK    8  A    between atoms: S_26  and  C_29
REMARK    9  A    between atoms: C_32  and  O_35
REMARK   10  A    between atoms: O_35  and  C_36
REMARK                            x       y       z     vdW  Elec       q    Type
REMARK                         _______ _______ _______ _____ _____    ______ ____
ROOT
ATOM      1  C   UNL     1      -3.962  -2.133  -0.419  0.00  0.00    -0.004 C 
ATOM      2  C   UNL     1      -3.598  -2.367   1.049  0.00  0.00    +0.017 C 
ENDROOT
BRANCH   2   3
ATOM      3  N   UNL     1      -4.759  -2.921   1.759  0.00  0.00    +0.389 N 
ATOM      4  C   UNL     1      -5.032  -4.298   1.327  0.00  0.00    -0.060 C 
ATOM      5  C   UNL     1      -6.127  -4.901   2.213  0.00  0.00    +0.091 C 
ATOM      6  N   UNL     1      -7.291  -4.001   2.194  0.00  0.00    -0.180 NA
ATOM      7  C   UNL     1      -7.073  -2.575   2.482  0.00  0.00    +0.091 C 
ATOM      8  C   UNL     1      -5.940  -2.065   1.586  0.00  0.00    -0.060 C 
ATOM      9  H   UNL     1      -4.520  -2.948   2.832  0.00  0.00    -0.081 HD
BRANCH   6  10
ATOM     10  S   UNL     1      -8.806  -4.578   1.857  0.00  0.00    +0.061 S 
ATOM     11  O   UNL     1      -8.794  -5.963   2.177  0.00  0.00    -0.153 OA
ATOM     12  O   UNL     1      -9.727  -3.668   2.443  0.00  0.00    -0.153 OA
BRANCH  10  13
ATOM     13  C   UNL     1      -9.030  -4.467   0.112  0.00  0.00    +0.106 A 
ATOM     14  C   UNL     1      -9.571  -3.322  -0.442  0.00  0.00    +0.032 A 
ATOM     15  C   UNL     1      -9.742  -3.229  -1.810  0.00  0.00    +0.047 A 
ATOM     16  C   UNL     1      -9.381  -4.292  -2.626  0.00  0.00    +0.120 A 
ATOM     17  C   UNL     1      -8.843  -5.441  -2.067  0.00  0.00    +0.047 A 
ATOM     18  C   UNL     1      -8.668  -5.526  -0.699  0.00  0.00    +0.032 A 
BRANCH  16  19
ATOM     19  O   UNL     1      -9.553  -4.205  -3.971  0.00  0.00    -0.495 OA
ATOM     20  C   UNL     1     -10.112  -2.992  -4.477  0.00  0.00    +0.277 C 
ENDBRANCH  16  19
ENDBRANCH  10  13
ENDBRANCH   6  10
ENDBRANCH   2   3
BRANCH   2  21
ATOM     21  C   UNL     1      -3.200  -1.059   1.683  0.00  0.00    +0.203 C 
ATOM     22  O   UNL     1      -3.769  -0.670   2.681  0.00  0.00    -0.277 OA
ATOM     23  N   UNL     1      -2.211  -0.321   1.140  0.00  0.00    -0.287 N 
ATOM     24  H   UNL     1      -1.762  -0.623   0.182  0.00  0.00    +0.155 HD
BRANCH  23  25
ATOM     25  C   UNL     1      -1.758   0.830   1.794  0.00  0.00    +0.037 A 
ATOM     26  C   UNL     1      -1.910   0.955   3.169  0.00  0.00    +0.023 A 
ATOM     27  C   UNL     1      -1.466   2.094   3.811  0.00  0.00    +0.002 A 
ATOM     28  C   UNL     1      -0.865   3.108   3.086  0.00  0.00    +0.000 A 
ATOM     29  C   UNL     1      -0.708   2.985   1.718  0.00  0.00    +0.006 A 
ATOM     30  C   UNL     1      -1.150   1.848   1.070  0.00  0.00    -0.022 A 
BRANCH  30  31
ATOM     31  C   UNL     1      -0.979   1.714  -0.421  0.00  0.00    +0.072 C 
BRANCH  31  32
ATOM     32  C   UNL     1      -2.240   2.163  -1.114  0.00  0.00    -0.043 A 
ATOM     33  C   UNL     1      -3.241   1.250  -1.385  0.00  0.00    +0.004 A 
ATOM     34  C   UNL     1      -4.400   1.663  -2.017  0.00  0.00    +0.000 A 
ATOM     35  C   UNL     1      -4.553   2.987  -2.385  0.00  0.00    +0.000 A 
ATOM     36  C   UNL     1      -3.548   3.899  -2.118  0.00  0.00    +0.000 A 
ATOM     37  C   UNL     1      -2.392   3.487  -1.482  0.00  0.00    +0.004 A 
ENDBRANCH  31  32
ENDBRANCH  30  31
ENDBRANCH  23  25
ENDBRANCH   2  21
TORSDOF 8
