REMARK  Name = ZINC13424691
REMARK  7 active torsions:
REMARK  status: ('A' for Active; 'I' for Inactive)
REMARK    1  A    between atoms: C_1  and  C_2
REMARK    2  A    between atoms: C_5  and  N_9
REMARK    3  A    between atoms: C_7  and  C_8
REMARK    4  A    between atoms: C_19  and  N_20
REMARK    5  A    between atoms: N_20  and  C_21
REMARK    6  A    between atoms: C_26  and  N_27
REMARK    7  A    between atoms: N_30  and  C_33
REMARK                            x       y       z     vdW  Elec       q    Type
REMARK                         _______ _______ _______ _____ _____    ______ ____
ROOT
ATOM      1  N   UNL     1       2.208  -2.524   0.501  0.00  0.00    -0.202 N 
ATOM      2  C   UNL     1       1.079  -1.823   0.302  0.00  0.00    +0.258 C 
ATOM      3  O   UNL     1       0.017  -2.410   0.226  0.00  0.00    -0.269 OA
ATOM      4  C   UNL     1       1.107  -0.361   0.176  0.00  0.00    +0.046 A 
ATOM      5  C   UNL     1      -0.062   0.373  -0.029  0.00  0.00    +0.014 A 
ATOM      6  C   UNL     1       0.006   1.745  -0.142  0.00  0.00    +0.001 A 
ATOM      7  C   UNL     1       1.223   2.405  -0.053  0.00  0.00    +0.001 A 
ATOM      8  C   UNL     1       2.391   1.698   0.151  0.00  0.00    +0.009 A 
ATOM      9  C   UNL     1       2.343   0.313   0.267  0.00  0.00    +0.000 A 
ATOM     10  C   UNL     1       3.562  -0.492   0.485  0.00  0.00    +0.059 C 
ATOM     11  C   UNL     1       4.800   0.107   0.582  0.00  0.00    +0.085 C 
ATOM     12  C   UNL     1       3.417  -1.948   0.596  0.00  0.00    +0.259 C 
ATOM     13  O   UNL     1       4.402  -2.640   0.776  0.00  0.00    -0.269 OA
ENDROOT
BRANCH   1  18
ATOM     14  C   UNL     1       1.851  -8.169   0.955  0.00  0.00    +0.044 C 
ATOM     15  C   UNL     1       1.946  -6.670   0.835  0.00  0.00    -0.047 A 
ATOM     16  C   UNL     1       1.438  -5.864   1.837  0.00  0.00    +0.005 A 
ATOM     17  C   UNL     1       1.523  -4.490   1.729  0.00  0.00    +0.024 A 
ATOM     18  C   UNL     1       2.120  -3.918   0.613  0.00  0.00    +0.045 A 
ATOM     19  C   UNL     1       2.623  -4.730  -0.394  0.00  0.00    +0.027 A 
ATOM     20  C   UNL     1       2.539  -6.104  -0.278  0.00  0.00    -0.046 A 
ATOM     21  C   UNL     1       3.091  -6.987  -1.368  0.00  0.00    +0.044 C 
ENDBRANCH   1  18
BRANCH  11  22
ATOM     22  N   UNL     1       5.033   1.290  -0.045  0.00  0.00    -0.318 N 
ATOM     23  H   UNL     1       4.276   1.713  -0.721  0.00  0.00    +0.152 HD
BRANCH  22  24
ATOM     24  C   UNL     1       6.237   1.970   0.170  0.00  0.00    +0.054 A 
ATOM     25  C   UNL     1       7.192   1.440   1.026  0.00  0.00    +0.045 A 
ATOM     26  C   UNL     1       8.384   2.111   1.231  0.00  0.00    +0.043 A 
ATOM     27  C   UNL     1       8.623   3.316   0.594  0.00  0.00    +0.022 A 
ATOM     28  C   UNL     1       7.674   3.853  -0.256  0.00  0.00    +0.026 A 
ATOM     29  C   UNL     1       6.479   3.184  -0.473  0.00  0.00    +0.051 A 
ATOM     30 CL   UNL     1       9.580   1.444   2.298  0.00  0.00    -0.083 Cl
BRANCH  29  31
ATOM     31  N   UNL     1       5.518   3.726  -1.334  0.00  0.00    -0.332 N 
ATOM     32  C   UNL     1       6.027   3.802  -2.710  0.00  0.00    +0.086 C 
ATOM     33  C   UNL     1       4.922   4.323  -3.632  0.00  0.00    -0.060 C 
ATOM     34  N   UNL     1       4.480   5.644  -3.163  0.00  0.00    +0.380 N 
ATOM     35  C   UNL     1       3.971   5.568  -1.787  0.00  0.00    -0.060 C 
ATOM     36  C   UNL     1       5.075   5.046  -0.865  0.00  0.00    +0.086 C 
ATOM     37  C   UNL     1       3.471   6.213  -4.067  0.00  0.00    -0.096 C 
ATOM     38  H   UNL     1       5.351   6.315  -3.166  0.00  0.00    -0.082 HD
ENDBRANCH  29  31
ENDBRANCH  22  24
ENDBRANCH  11  22
TORSDOF 4
