REMARK  Name = ZINC35004245
REMARK  7 active torsions:
REMARK  status: ('A' for Active; 'I' for Inactive)
REMARK    1  A    between atoms: C_5  and  N_7
REMARK    2  A    between atoms: N_13  and  C_16
REMARK    3  A    between atoms: C_16  and  C_17
REMARK    4  A    between atoms: C_17  and  N_18
REMARK    5  A    between atoms: N_18  and  C_19
REMARK    6  A    between atoms: C_19  and  C_20
REMARK    7  A    between atoms: C_27  and  C_29
REMARK                            x       y       z     vdW  Elec       q    Type
REMARK                         _______ _______ _______ _____ _____    ______ ____
ROOT
ATOM      1  C   UNL     1      -0.547  -8.531  -0.332  0.00  0.00    -0.059 C 
ENDROOT
BRANCH   1   8
ATOM      2  N   UNL     1      -0.535  -3.344   2.921  0.00  0.00    -0.267 N 
ATOM      3  C   UNL     1      -1.556  -3.860   2.207  0.00  0.00    +0.306 C 
ATOM      4  O   UNL     1      -2.441  -3.133   1.799  0.00  0.00    -0.252 OA
ATOM      5  N   UNL     1      -1.595  -5.181   1.945  0.00  0.00    -0.289 N 
ATOM      6  C   UNL     1      -0.599  -6.097   2.522  0.00  0.00    +0.091 C 
ATOM      7  C   UNL     1      -0.017  -6.955   1.395  0.00  0.00    -0.059 C 
ATOM      8  N   UNL     1      -1.110  -7.624   0.677  0.00  0.00    +0.383 N 
ATOM      9  C   UNL     1      -1.958  -6.625   0.015  0.00  0.00    -0.059 C 
ATOM     10  C   UNL     1      -2.639  -5.750   1.079  0.00  0.00    +0.091 C 
ATOM     11  H   UNL     1       0.195  -3.916   3.205  0.00  0.00    +0.156 HD
ATOM     12  H   UNL     1      -1.665  -8.155   1.331  0.00  0.00    -0.082 HD
BRANCH   2  17
ATOM     13  C   UNL     1      -1.452   0.217   3.013  0.00  0.00    +0.002 A 
ATOM     14  C   UNL     1      -0.520   0.706   3.909  0.00  0.00    +0.003 A 
ATOM     15  C   UNL     1       0.408  -0.146   4.480  0.00  0.00    +0.040 A 
ATOM     16  C   UNL     1       0.406  -1.490   4.155  0.00  0.00    +0.145 A 
ATOM     17  C   UNL     1      -0.530  -1.984   3.254  0.00  0.00    +0.070 A 
ATOM     18  C   UNL     1      -1.460  -1.125   2.684  0.00  0.00    +0.026 A 
ATOM     19  F   UNL     1       1.313  -2.322   4.712  0.00  0.00    -0.204 F 
ENDBRANCH   2  17
ENDBRANCH   1   8
BRANCH   1  20
ATOM     20  C   UNL     1      -1.678  -9.321  -0.995  0.00  0.00    +0.090 C 
BRANCH  20  21
ATOM     21  N   UNL     1      -1.110 -10.310  -1.914  0.00  0.00    -0.295 N 
ATOM     22  C   UNL     1      -1.244 -10.149  -3.245  0.00  0.00    +0.247 C 
ATOM     23  O   UNL     1      -0.832 -11.002  -4.006  0.00  0.00    -0.270 OA
BRANCH  22  24
ATOM     24  C   UNL     1      -1.894  -8.933  -3.780  0.00  0.00    +0.038 A 
ATOM     25  C   UNL     1      -1.840  -7.736  -3.064  0.00  0.00    +0.013 A 
ATOM     26  C   UNL     1      -2.447  -6.605  -3.568  0.00  0.00    +0.002 A 
ATOM     27  C   UNL     1      -3.109  -6.654  -4.782  0.00  0.00    +0.020 A 
ATOM     28  C   UNL     1      -3.166  -7.838  -5.499  0.00  0.00    +0.042 A 
ATOM     29  C   UNL     1      -2.558  -8.976  -5.007  0.00  0.00    +0.033 A 
ATOM     30 CL   UNL     1      -3.999  -7.889  -7.021  0.00  0.00    -0.084 Cl
ENDBRANCH  22  24
BRANCH  21  31
ATOM     31  C   UNL     1      -0.395 -11.475  -1.386  0.00  0.00    +0.143 C 
BRANCH  31  32
ATOM     32  C   UNL     1      -1.367 -12.606  -1.170  0.00  0.00    -0.030 A 
ATOM     33  C   UNL     1      -2.016 -12.737   0.043  0.00  0.00    +0.008 A 
ATOM     34  C   UNL     1      -2.909 -13.773   0.242  0.00  0.00    +0.038 A 
ATOM     35  C   UNL     1      -3.152 -14.681  -0.775  0.00  0.00    +0.123 A 
ATOM     36  C   UNL     1      -2.502 -14.549  -1.990  0.00  0.00    +0.038 A 
ATOM     37  C   UNL     1      -1.614 -13.508  -2.188  0.00  0.00    +0.008 A 
ATOM     38  F   UNL     1      -4.024 -15.695  -0.582  0.00  0.00    -0.205 F 
ENDBRANCH  31  32
ENDBRANCH  21  31
ENDBRANCH  20  21
ENDBRANCH   1  20
TORSDOF 7
