REMARK  Name = ZINC36167642
REMARK  15 active torsions:
REMARK  status: ('A' for Active; 'I' for Inactive)
REMARK    1  A    between atoms: C_1  and  C_2
REMARK    2  A    between atoms: C_2  and  C_3
REMARK    3  A    between atoms: C_3  and  N_4
REMARK    4  A    between atoms: N_4  and  C_5
REMARK    5  A    between atoms: N_4  and  C_27
REMARK    6  A    between atoms: C_5  and  C_6
REMARK    7  A    between atoms: C_9  and  C_11
REMARK    8  A    between atoms: C_11  and  C_12
REMARK    9  A    between atoms: C_11  and  C_19
REMARK   10  A    between atoms: C_11  and  O_26
REMARK   11  A    between atoms: C_27  and  C_28
REMARK   12  A    between atoms: C_30  and  O_36
REMARK   13  A    between atoms: C_32  and  O_34
REMARK   14  A    between atoms: O_34  and  C_35
REMARK   15  A    between atoms: O_36  and  C_37
REMARK                            x       y       z     vdW  Elec       q    Type
REMARK                         _______ _______ _______ _____ _____    ______ ____
ROOT
ATOM      1  C   UNL     1      -0.960  -2.184   4.529  0.00  0.00    +0.089 A 
ATOM      2  C   UNL     1      -2.086  -2.694   5.061  0.00  0.00    +0.043 A 
ATOM      3  C   UNL     1      -2.743  -1.632   5.724  0.00  0.00    +0.048 A 
ATOM      4  C   UNL     1      -1.980  -0.537   5.557  0.00  0.00    +0.146 A 
ATOM      5  O   UNL     1      -0.898  -0.878   4.837  0.00  0.00    -0.463 OA
ENDROOT
BRANCH   1   6
ATOM      6  C   UNL     1       0.061  -2.950   3.728  0.00  0.00    -0.003 C 
BRANCH   6   7
ATOM      7  N   UNL     1      -0.291  -2.891   2.303  0.00  0.00    +0.387 N 
ATOM      8  H   UNL     1      -1.234  -3.225   2.175  0.00  0.00    -0.081 HD
BRANCH   7   9
ATOM      9  C   UNL     1      -0.194  -1.503   1.831  0.00  0.00    -0.078 C 
BRANCH   9  11
ATOM     10  C   UNL     1      -0.738   0.045  -0.053  0.00  0.00    +0.002 C 
ATOM     11  C   UNL     1      -0.691  -1.420   0.386  0.00  0.00    -0.022 C 
ENDBRANCH   9  11
ENDBRANCH   7   9
BRANCH   7  12
ATOM     12  C   UNL     1       0.635  -3.735   1.535  0.00  0.00    -0.042 C 
BRANCH  12  13
ATOM     13  C   UNL     1       0.433  -5.179   1.918  0.00  0.00    -0.057 A 
ATOM     14  C   UNL     1       1.255  -5.763   2.863  0.00  0.00    +0.047 A 
ATOM     15  C   UNL     1       1.072  -7.092   3.217  0.00  0.00    +0.124 A 
ATOM     16  C   UNL     1       0.063  -7.834   2.622  0.00  0.00    +0.091 A 
ATOM     17  C   UNL     1      -0.760  -7.246   1.674  0.00  0.00    +0.124 A 
ATOM     18  C   UNL     1      -0.576  -5.915   1.327  0.00  0.00    +0.047 A 
BRANCH  17  19
ATOM     19  O   UNL     1      -1.749  -7.971   1.089  0.00  0.00    -0.495 OA
ATOM     20  C   UNL     1      -1.884  -9.333   1.498  0.00  0.00    +0.277 C 
ENDBRANCH  17  19
BRANCH  15  21
ATOM     21  O   UNL     1       1.881  -7.666   4.146  0.00  0.00    -0.495 OA
ATOM     22  C   UNL     1       1.634  -9.037   4.462  0.00  0.00    +0.277 C 
ENDBRANCH  15  21
ENDBRANCH  12  13
ENDBRANCH   7  12
ENDBRANCH   6   7
ENDBRANCH   1   6
BRANCH   4  23
ATOM     23  C   UNL     1      -2.283   0.839   6.092  0.00  0.00    +0.174 C 
BRANCH  23  24
ATOM     24  C   UNL     1      -0.993   1.568   6.365  0.00  0.00    -0.002 A 
ATOM     25  C   UNL     1      -0.698   1.995   7.646  0.00  0.00    +0.007 A 
ATOM     26  C   UNL     1       0.485   2.664   7.898  0.00  0.00    +0.003 A 
ATOM     27  C   UNL     1       1.375   2.908   6.868  0.00  0.00    +0.038 A 
ATOM     28  C   UNL     1       1.080   2.481   5.585  0.00  0.00    +0.124 A 
ATOM     29  C   UNL     1      -0.103   1.805   5.335  0.00  0.00    +0.045 A 
ATOM     30  F   UNL     1       1.948   2.719   4.577  0.00  0.00    -0.205 F 
ENDBRANCH  23  24
BRANCH  23  31
ATOM     31  C   UNL     1      -3.089   1.607   5.075  0.00  0.00    -0.002 A 
ATOM     32  C   UNL     1      -2.835   1.444   3.726  0.00  0.00    +0.007 A 
ATOM     33  C   UNL     1      -3.573   2.147   2.793  0.00  0.00    +0.003 A 
ATOM     34  C   UNL     1      -4.566   3.014   3.207  0.00  0.00    +0.038 A 
ATOM     35  C   UNL     1      -4.821   3.179   4.558  0.00  0.00    +0.124 A 
ATOM     36  C   UNL     1      -4.085   2.469   5.492  0.00  0.00    +0.045 A 
ATOM     37  F   UNL     1      -5.791   4.027   4.964  0.00  0.00    -0.205 F 
ENDBRANCH  23  31
BRANCH  23  38
ATOM     38  O   UNL     1      -3.031   0.725   7.304  0.00  0.00    -0.372 OA
ATOM     39  H   UNL     1      -2.573   0.241   8.005  0.00  0.00    +0.212 HD
ENDBRANCH  23  38
ENDBRANCH   4  23
TORSDOF 12
