REMARK  Name = ZINC05348895
REMARK  11 active torsions:
REMARK  status: ('A' for Active; 'I' for Inactive)
REMARK    1  A    between atoms: C_1  and  C_2
REMARK    2  A    between atoms: C_2  and  N_60
REMARK    3  A    between atoms: C_3  and  C_4
REMARK    4  A    between atoms: C_3  and  N_60
REMARK    5  A    between atoms: C_5  and  C_6
REMARK    6  A    between atoms: C_5  and  N_60
REMARK    7  A    between atoms: C_6  and  C_7
REMARK    8  A    between atoms: C_7  and  N_8
REMARK    9  A    between atoms: C_14  and  C_24
REMARK   10  A    between atoms: C_19  and  O_23
REMARK   11  A    between atoms: C_27  and  C_30
REMARK                            x       y       z     vdW  Elec       q    Type
REMARK                         _______ _______ _______ _____ _____    ______ ____
ROOT
ATOM      1  N   UNL     1       1.140   0.782   1.286  0.00  0.00    -0.318 N 
ATOM      2  C   UNL     1       1.510   2.052   1.586  0.00  0.00    +0.204 A 
ATOM      3  N   UNL     1       2.745   2.353   1.868  0.00  0.00    -0.202 NA
ATOM      4  C   UNL     1       3.723   1.428   1.878  0.00  0.00    +0.229 A 
ATOM      5  C   UNL     1       3.430   0.130   1.587  0.00  0.00    +0.066 A 
ATOM      6  C   UNL     1       2.094  -0.217   1.277  0.00  0.00    +0.115 A 
ATOM      7  C   UNL     1       4.493  -0.932   1.588  0.00  0.00    +0.091 C 
ATOM      8  C   UNL     1       5.861  -0.306   1.518  0.00  0.00    +0.007 A 
ATOM      9  C   UNL     1       6.947  -1.081   1.152  0.00  0.00    +0.012 A 
ATOM     10  C   UNL     1       8.208  -0.522   1.083  0.00  0.00    +0.046 A 
ATOM     11  C   UNL     1       8.388   0.821   1.382  0.00  0.00    +0.120 A 
ATOM     12  C   UNL     1       7.303   1.599   1.749  0.00  0.00    +0.092 A 
ATOM     13  C   UNL     1       6.035   1.036   1.819  0.00  0.00    +0.138 A 
ATOM     14  O   UNL     1       4.983   1.809   2.180  0.00  0.00    -0.437 OA
ATOM     15  H   UNL     1       0.876  -1.782   0.764  0.00  0.00    +0.157 HD
ATOM     16  N   UNL     1       1.829  -1.498   0.992  0.00  0.00    -0.384 N 
ATOM     17  H   UNL     1       2.584  -2.193   1.003  0.00  0.00    +0.157 HD
ENDROOT
BRANCH   7  18
ATOM     18  C   UNL     1       4.382  -1.746   2.851  0.00  0.00    -0.035 A 
ATOM     19  C   UNL     1       4.522  -1.135   4.083  0.00  0.00    +0.005 A 
ATOM     20  C   UNL     1       4.415  -1.881   5.242  0.00  0.00    +0.003 A 
ATOM     21  C   UNL     1       4.178  -3.241   5.168  0.00  0.00    -0.050 A 
ATOM     22  C   UNL     1       4.043  -3.853   3.937  0.00  0.00    +0.003 A 
ATOM     23  C   UNL     1       4.145  -3.106   2.778  0.00  0.00    +0.005 A 
ATOM     24  C   UNL     1       4.066  -4.055   6.431  0.00  0.00    +0.044 C 
ENDBRANCH   7  18
BRANCH  11  25
ATOM     25  O   UNL     1       9.629   1.372   1.313  0.00  0.00    -0.507 OA
ATOM     26  H   UNL     1       9.849   1.739   0.446  0.00  0.00    +0.292 HD
ENDBRANCH  11  25
BRANCH   1  27
ATOM     27  C   UNL     1      -0.257   0.473   0.974  0.00  0.00    +0.123 C 
BRANCH  27  28
ATOM     28  C   UNL     1      -0.967  -0.011   2.240  0.00  0.00    +0.003 C 
BRANCH  28  29
ATOM     29  C   UNL     1      -2.427  -0.334   1.914  0.00  0.00    -0.077 C 
BRANCH  29  30
ATOM     30  N   UNL     1      -3.104  -0.779   3.151  0.00  0.00    +0.379 N 
ATOM     31  H   UNL     1      -2.938  -0.086   3.890  0.00  0.00    -0.082 HD
BRANCH  30  33
ATOM     32  C   UNL     1      -5.168   0.511   2.932  0.00  0.00    -0.017 C 
ATOM     33  C   UNL     1      -4.559  -0.892   2.917  0.00  0.00    -0.082 C 
ENDBRANCH  30  33
BRANCH  30  34
ATOM     34  C   UNL     1      -2.559  -2.083   3.583  0.00  0.00    -0.082 C 
ATOM     35  C   UNL     1      -2.991  -2.341   5.029  0.00  0.00    -0.017 C 
ENDBRANCH  30  34
ENDBRANCH  29  30
ENDBRANCH  28  29
ENDBRANCH  27  28
ENDBRANCH   1  27
TORSDOF 8
