REMARK  Name = ZINC64462546
REMARK  8 active torsions:
REMARK  status: ('A' for Active; 'I' for Inactive)
REMARK    1  A    between atoms: C_1  and  C_2
REMARK    2  A    between atoms: N_4  and  C_5
REMARK    3  A    between atoms: C_8  and  C_11
REMARK    4  A    between atoms: C_11  and  C_12
REMARK    5  A    between atoms: C_16  and  C_21
REMARK    6  A    between atoms: N_23  and  C_24
REMARK    7  A    between atoms: C_24  and  C_25
REMARK    8  A    between atoms: C_25  and  C_26
REMARK                            x       y       z     vdW  Elec       q    Type
REMARK                         _______ _______ _______ _____ _____    ______ ____
ROOT
ATOM      1  C   UNL     1      -0.885  -6.769   1.789  0.00  0.00    +0.113 A 
ATOM      2  N   UNL     1      -0.071  -6.338   2.708  0.00  0.00    -0.232 NA
ATOM      3  C   UNL     1      -0.379  -6.919   3.897  0.00  0.00    +0.090 A 
ATOM      4  C   UNL     1       0.155  -6.820   5.180  0.00  0.00    +0.043 A 
ATOM      5  C   UNL     1      -0.401  -7.567   6.214  0.00  0.00    +0.039 A 
ATOM      6  C   UNL     1      -1.491  -8.412   5.965  0.00  0.00    +0.015 A 
ATOM      7  C   UNL     1      -2.016  -8.512   4.710  0.00  0.00    +0.028 A 
ATOM      8  C   UNL     1      -1.474  -7.772   3.665  0.00  0.00    +0.066 A 
ATOM      9  N   UNL     1      -1.772  -7.651   2.325  0.00  0.00    -0.342 N 
ATOM     10  H   UNL     1      -2.482  -8.111   1.851  0.00  0.00    +0.167 HD
ENDROOT
BRANCH   5  11
ATOM     11  C   UNL     1       0.159  -7.469   7.577  0.00  0.00    +0.244 C 
ATOM     12  O   UNL     1       1.104  -6.736   7.795  0.00  0.00    -0.270 OA
ATOM     13  N   UNL     1      -0.379  -8.191   8.580  0.00  0.00    -0.311 N 
ATOM     14  H   UNL     1      -1.133  -8.776   8.406  0.00  0.00    +0.149 HD
BRANCH  13  15
ATOM     15  C   UNL     1       0.176  -8.094   9.932  0.00  0.00    +0.109 C 
BRANCH  15  16
ATOM     16  C   UNL     1      -0.610  -9.008  10.873  0.00  0.00    +0.052 C 
BRANCH  16  17
ATOM     17  C   UNL     1      -0.039  -8.908  12.264  0.00  0.00    -0.040 C 
ATOM     18  C   UNL     1      -0.475  -8.112  13.267  0.00  0.00    -0.001 A 
ATOM     19  C   UNL     1      -1.569  -7.137  13.359  0.00  0.00    +0.010 A 
ATOM     20  C   UNL     1      -1.764  -6.477  14.523  0.00  0.00    +0.001 A 
ATOM     21  C   UNL     1      -0.949  -6.700  15.642  0.00  0.00    +0.002 A 
ATOM     22  C   UNL     1       0.075  -7.580  15.635  0.00  0.00    +0.026 A 
ATOM     23  C   UNL     1       0.370  -8.329  14.463  0.00  0.00    +0.043 A 
ATOM     24  N   UNL     1       1.293  -9.226  14.209  0.00  0.00    -0.380 N 
ATOM     25  C   UNL     1       1.133  -9.682  12.824  0.00  0.00    +0.144 C 
ATOM     26  H   UNL     1       1.966  -9.537  14.834  0.00  0.00    +0.160 HD
ENDBRANCH  16  17
ENDBRANCH  15  16
ENDBRANCH  13  15
ENDBRANCH   5  11
BRANCH   1  27
ATOM     27  C   UNL     1      -0.853  -6.349   0.342  0.00  0.00    +0.109 C 
BRANCH  27  31
ATOM     28  C   UNL     1      -1.081  -2.089   0.091  0.00  0.00    +0.033 A 
ATOM     29  C   UNL     1       0.155  -2.716   0.178  0.00  0.00    +0.023 A 
ATOM     30  C   UNL     1       0.225  -4.092   0.259  0.00  0.00    +0.006 A 
ATOM     31  C   UNL     1      -0.934  -4.847   0.254  0.00  0.00    -0.040 A 
ATOM     32  C   UNL     1      -2.166  -4.226   0.168  0.00  0.00    +0.006 A 
ATOM     33  C   UNL     1      -2.244  -2.849   0.093  0.00  0.00    +0.023 A 
BRANCH  28  37
ATOM     34  C   UNL     1      -2.194   1.470   0.609  0.00  0.00    +0.109 C 
ATOM     35  C   UNL     1      -2.169  -0.037   0.608  0.00  0.00    +0.214 C 
ATOM     36  O   UNL     1      -3.061  -0.658   1.145  0.00  0.00    -0.276 OA
ATOM     37  N   UNL     1      -1.156  -0.694   0.009  0.00  0.00    -0.286 N 
ATOM     38  H   UNL     1      -0.478  -0.200  -0.478  0.00  0.00    +0.155 HD
ENDBRANCH  28  37
ENDBRANCH  27  31
ENDBRANCH   1  27
TORSDOF 7
