REMARK  Name = ZINC45558395
REMARK  11 active torsions:
REMARK  status: ('A' for Active; 'I' for Inactive)
REMARK    1  A    between atoms: C_1  and  C_2
REMARK    2  A    between atoms: C_2  and  C_3
REMARK    3  A    between atoms: C_2  and  C_4
REMARK    4  A    between atoms: C_7  and  S_10
REMARK    5  A    between atoms: S_10  and  C_11
REMARK    6  A    between atoms: C_11  and  C_12
REMARK    7  A    between atoms: C_12  and  C_13
REMARK    8  A    between atoms: C_13  and  C_14
REMARK    9  A    between atoms: C_13  and  C_15
REMARK   10  A    between atoms: C_13  and  N_18
REMARK   11  A    between atoms: N_18  and  C_19
REMARK                            x       y       z     vdW  Elec       q    Type
REMARK                         _______ _______ _______ _____ _____    ______ ____
ROOT
ATOM      1  C   UNL     1       6.209  -4.295  -4.956  0.00  0.00    +0.008 C 
ATOM      2  C   UNL     1       5.681  -5.450  -4.102  0.00  0.00    -0.001 C 
ENDROOT
BRANCH   1   3
ATOM      3  C   UNL     1       7.090  -3.410  -4.113  0.00  0.00    +0.199 C 
ATOM      4  O   UNL     1       6.939  -3.373  -2.910  0.00  0.00    -0.278 OA
ATOM      5  N   UNL     1       8.045  -2.659  -4.695  0.00  0.00    -0.330 N 
ATOM      6  H   UNL     1       8.166  -2.688  -5.657  0.00  0.00    +0.145 HD
ATOM      7  H   UNL     1       8.612  -2.088  -4.153  0.00  0.00    +0.145 HD
ENDBRANCH   1   3
BRANCH   1   8
ATOM      8  N   UNL     1       6.988  -4.833  -6.079  0.00  0.00    +0.390 N 
ATOM      9  H   UNL     1       6.398  -5.426  -6.644  0.00  0.00    -0.084 HD
ATOM     10  H   UNL     1       7.336  -4.072  -6.642  0.00  0.00    -0.084 HD
BRANCH   8  11
ATOM     11  C   UNL     1       8.117  -5.617  -5.561  0.00  0.00    -0.071 C 
ATOM     12  C   UNL     1       8.143  -7.114  -5.878  0.00  0.00    -0.017 C 
ATOM     13  C   UNL     1       9.120  -6.167  -6.577  0.00  0.00    -0.017 C 
ENDBRANCH   8  11
ENDBRANCH   1   8
BRANCH   1  14
ATOM     14  C   UNL     1       5.032  -3.480  -5.495  0.00  0.00    +0.007 C 
BRANCH  14  15
ATOM     15  C   UNL     1       4.221  -2.919  -4.325  0.00  0.00    +0.073 C 
BRANCH  15  16
ATOM     16  S   UNL     1       2.826  -1.952  -4.964  0.00  0.00    -0.125 S 
BRANCH  16  20
ATOM     17  C   UNL     1       0.707  -0.490  -1.238  0.00  0.00    -0.045 A 
ATOM     18  C   UNL     1       0.220  -0.150  -2.487  0.00  0.00    +0.005 A 
ATOM     19  C   UNL     1       0.864  -0.594  -3.625  0.00  0.00    +0.015 A 
ATOM     20  C   UNL     1       2.002  -1.383  -3.515  0.00  0.00    +0.008 A 
ATOM     21  C   UNL     1       2.489  -1.722  -2.258  0.00  0.00    +0.015 A 
ATOM     22  C   UNL     1       1.844  -1.270  -1.124  0.00  0.00    +0.005 A 
BRANCH  17  24
ATOM     23  C   UNL     1      -0.019   1.526   0.010  0.00  0.00    +0.012 C 
ATOM     24  C   UNL     1       0.002  -0.004   0.002  0.00  0.00    +0.013 C 
ATOM     25  C   UNL     1      -1.433  -0.534   0.013  0.00  0.00    +0.012 C 
ENDBRANCH  17  24
ENDBRANCH  16  20
ENDBRANCH  15  16
ENDBRANCH  14  15
ENDBRANCH   1  14
TORSDOF 8
