REMARK  Name = ZINC64044159
REMARK  4 active torsions:
REMARK  status: ('A' for Active; 'I' for Inactive)
REMARK    1  A    between atoms: C_8  and  C_23
REMARK    2  A    between atoms: C_16  and  C_18
REMARK    3  A    between atoms: C_18  and  N_19
REMARK    4  A    between atoms: C_27  and  C_29
REMARK                            x       y       z     vdW  Elec       q    Type
REMARK                         _______ _______ _______ _____ _____    ______ ____
ROOT
ATOM      1  C   UNL     1       0.398   1.645  -0.116  0.00  0.00    +0.001 A 
ATOM      2  C   UNL     1       1.637   2.299  -0.057  0.00  0.00    +0.002 A 
ATOM      3  C   UNL     1       2.810   1.633  -0.023  0.00  0.00    +0.026 A 
ATOM      4  C   UNL     1       2.833   0.212  -0.046  0.00  0.00    +0.043 A 
ATOM      5  N   UNL     1       3.828  -0.645  -0.002  0.00  0.00    -0.375 N 
ATOM      6  C   UNL     1       3.283  -1.995  -0.133  0.00  0.00    +0.131 C 
ATOM      7  C   UNL     1       3.673  -2.886   1.051  0.00  0.00    +0.133 C 
ATOM      8  N   UNL     1       2.779  -4.055   1.050  0.00  0.00    -0.291 N 
ATOM      9  C   UNL     1       1.327  -3.884   1.169  0.00  0.00    +0.113 C 
ATOM     10  C   UNL     1       0.823  -2.993   0.019  0.00  0.00    +0.052 C 
ATOM     11  C   UNL     1       1.773  -1.825  -0.104  0.00  0.00    -0.035 C 
ATOM     12  C   UNL     1       1.536  -0.505  -0.101  0.00  0.00    -0.001 A 
ATOM     13  C   UNL     1       0.306   0.297  -0.139  0.00  0.00    +0.010 A 
ATOM     14  C   UNL     1       3.298  -5.293   0.938  0.00  0.00    +0.233 C 
ATOM     15  O   UNL     1       4.498  -5.441   0.839  0.00  0.00    -0.274 OA
ATOM     16  H   UNL     1       4.766  -0.421   0.101  0.00  0.00    +0.160 HD
ENDROOT
BRANCH   7  17
ATOM     17  C   UNL     1       3.513  -2.122   2.340  0.00  0.00    -0.024 A 
ATOM     18  C   UNL     1       2.272  -1.635   2.705  0.00  0.00    +0.005 A 
ATOM     19  C   UNL     1       2.125  -0.934   3.887  0.00  0.00    +0.001 A 
ATOM     20  C   UNL     1       3.220  -0.719   4.704  0.00  0.00    +0.012 A 
ATOM     21  C   UNL     1       4.461  -1.206   4.339  0.00  0.00    +0.055 A 
ATOM     22  C   UNL     1       4.607  -1.911   3.159  0.00  0.00    +0.018 A 
BRANCH  21  23
ATOM     23  C   UNL     1       5.654  -0.972   5.229  0.00  0.00    +0.417 C 
ATOM     24  F   UNL     1       5.259  -0.244   6.356  0.00  0.00    -0.166 F 
ATOM     25  F   UNL     1       6.185  -2.202   5.630  0.00  0.00    -0.166 F 
ATOM     26  F   UNL     1       6.626  -0.252   4.526  0.00  0.00    -0.166 F 
ENDBRANCH  21  23
ENDBRANCH   7  17
BRANCH  14  27
ATOM     27  C   UNL     1       2.388  -6.495   0.936  0.00  0.00    +0.201 C 
BRANCH  27  28
ATOM     28  N   UNL     1       3.189  -7.714   0.804  0.00  0.00    -0.291 N 
ATOM     29  C   UNL     1       2.585  -8.918   0.779  0.00  0.00    +0.297 C 
ATOM     30  O   UNL     1       1.375  -8.993   0.866  0.00  0.00    -0.253 OA
ATOM     31  N   UNL     1       3.322 -10.040   0.657  0.00  0.00    -0.313 N 
ATOM     32  H   UNL     1       4.155  -7.654   0.735  0.00  0.00    +0.151 HD
ATOM     33  H   UNL     1       4.288  -9.980   0.588  0.00  0.00    +0.146 HD
ATOM     34  H   UNL     1       2.887 -10.907   0.639  0.00  0.00    +0.146 HD
ENDBRANCH  27  28
ENDBRANCH  14  27
TORSDOF 4
