REMARK  Name = ZINC39655243
REMARK  7 active torsions:
REMARK  status: ('A' for Active; 'I' for Inactive)
REMARK    1  A    between atoms: C_4  and  N_7
REMARK    2  A    between atoms: N_7  and  C_8
REMARK    3  A    between atoms: C_8  and  C_9
REMARK    4  A    between atoms: C_9  and  N_10
REMARK    5  A    between atoms: C_11  and  C_13
REMARK    6  A    between atoms: C_24  and  C_26
REMARK    7  A    between atoms: C_31  and  C_32
REMARK                            x       y       z     vdW  Elec       q    Type
REMARK                         _______ _______ _______ _____ _____    ______ ____
ROOT
ATOM      1  C   UNL     1       6.291  -6.703  -0.623  0.00  0.00    +0.100 C 
ATOM      2  C   UNL     1       5.744  -7.002   0.791  0.00  0.00    +0.121 C 
ATOM      3  N   UNL     1       6.615  -8.083   1.310  0.00  0.00    -0.296 N 
ATOM      4  C   UNL     1       7.973  -7.719   0.838  0.00  0.00    +0.115 C 
ATOM      5  C   UNL     1       7.754  -7.175  -0.587  0.00  0.00    -0.004 C 
ATOM      6  C   UNL     1       8.694  -6.002  -0.854  0.00  0.00    -0.010 C 
ATOM      7  C   UNL     1      10.139  -6.506  -0.872  0.00  0.00    -0.082 C 
ATOM      8  N   UNL     1      10.290  -7.528  -1.916  0.00  0.00    +0.379 N 
ATOM      9  C   UNL     1       9.453  -8.692  -1.602  0.00  0.00    -0.082 C 
ATOM     10  C   UNL     1       7.978  -8.280  -1.615  0.00  0.00    -0.010 C 
ATOM     11  C   UNL     1       6.255  -9.154   2.043  0.00  0.00    +0.247 C 
ATOM     12  O   UNL     1       7.104  -9.905   2.481  0.00  0.00    -0.270 OA
ATOM     13  H   UNL     1      10.009  -7.142  -2.805  0.00  0.00    -0.086 HD
ATOM     14  H   UNL     1      11.257  -7.814  -1.967  0.00  0.00    -0.086 HD
ENDROOT
BRANCH  11  15
ATOM     15  C   UNL     1       4.825  -9.417   2.316  0.00  0.00    +0.049 A 
ATOM     16  C   UNL     1       3.948  -8.354   2.543  0.00  0.00    +0.013 A 
ATOM     17  C   UNL     1       2.616  -8.606   2.796  0.00  0.00    +0.001 A 
ATOM     18  C   UNL     1       2.148  -9.908   2.825  0.00  0.00    +0.001 A 
ATOM     19  C   UNL     1       3.012 -10.965   2.601  0.00  0.00    +0.013 A 
ATOM     20  C   UNL     1       4.346 -10.727   2.341  0.00  0.00    +0.067 A 
BRANCH  20  21
ATOM     21  C   UNL     1       5.284 -11.879   2.091  0.00  0.00    +0.418 C 
ATOM     22  F   UNL     1       4.575 -13.083   2.168  0.00  0.00    -0.166 F 
ATOM     23  F   UNL     1       5.850 -11.752   0.818  0.00  0.00    -0.166 F 
ATOM     24  F   UNL     1       6.298 -11.873   3.055  0.00  0.00    -0.166 F 
ENDBRANCH  20  21
ENDBRANCH  11  15
BRANCH   1  26
ATOM     25  N   UNL     1       6.071  -4.792  -2.178  0.00  0.00    -0.314 N 
ATOM     26  C   UNL     1       6.222  -5.226  -0.910  0.00  0.00    +0.218 C 
ATOM     27  O   UNL     1       6.303  -4.426  -0.002  0.00  0.00    -0.275 OA
ATOM     28  H   UNL     1       6.006  -5.431  -2.904  0.00  0.00    +0.149 HD
BRANCH  25  29
ATOM     29  C   UNL     1       6.004  -3.356  -2.458  0.00  0.00    +0.123 C 
BRANCH  29  30
ATOM     30  C   UNL     1       5.832  -3.137  -3.962  0.00  0.00    +0.120 C 
BRANCH  30  31
ATOM     31  N   UNL     1       5.766  -1.700  -4.242  0.00  0.00    -0.342 N 
ATOM     32  H   UNL     1       5.830  -1.061  -3.515  0.00  0.00    +0.146 HD
BRANCH  31  36
ATOM     33  C   UNL     1       5.300  -0.361  -8.157  0.00  0.00    +0.000 A 
ATOM     34  C   UNL     1       5.391   0.551  -7.122  0.00  0.00    +0.002 A 
ATOM     35  C   UNL     1       5.546   0.111  -5.822  0.00  0.00    +0.023 A 
ATOM     36  C   UNL     1       5.609  -1.251  -5.555  0.00  0.00    +0.027 A 
ATOM     37  C   UNL     1       5.517  -2.165  -6.597  0.00  0.00    +0.023 A 
ATOM     38  C   UNL     1       5.362  -1.718  -7.894  0.00  0.00    +0.002 A 
ENDBRANCH  31  36
ENDBRANCH  30  31
ENDBRANCH  29  30
ENDBRANCH  25  29
ENDBRANCH   1  26
TORSDOF 7
