REMARK  Name = ZINC19218587
REMARK  13 active torsions:
REMARK  status: ('A' for Active; 'I' for Inactive)
REMARK    1  A    between atoms: C_1  and  C_2
REMARK    2  A    between atoms: C_2  and  N_3
REMARK    3  A    between atoms: N_6  and  C_9
REMARK    4  A    between atoms: C_9  and  C_10
REMARK    5  A    between atoms: C_10  and  C_12
REMARK    6  A    between atoms: C_10  and  O_29
REMARK    7  A    between atoms: C_12  and  O_13
REMARK    8  A    between atoms: O_13  and  C_14
REMARK    9  A    between atoms: C_17  and  C_22
REMARK   10  A    between atoms: C_19  and  O_20
REMARK   11  A    between atoms: O_20  and  C_21
REMARK   12  A    between atoms: C_22  and  N_23
REMARK   13  A    between atoms: N_23  and  C_24
REMARK                            x       y       z     vdW  Elec       q    Type
REMARK                         _______ _______ _______ _____ _____    ______ ____
ROOT
ATOM      1  C   UNL     1      -1.223   1.752   0.036  0.00  0.00    +0.162 A 
ATOM      2  C   UNL     1      -0.014   1.077   0.001  0.00  0.00    +0.049 A 
ATOM      3  C   UNL     1       1.173   1.786  -0.016  0.00  0.00    +0.005 A 
ATOM      4  C   UNL     1       1.157   3.168   0.010  0.00  0.00    -0.061 A 
ATOM      5  C   UNL     1      -0.046   3.848   0.051  0.00  0.00    +0.051 A 
ATOM      6  C   UNL     1      -1.239   3.143   0.067  0.00  0.00    +0.162 A 
ENDROOT
BRANCH   6   7
ATOM      7  O   UNL     1      -2.424   3.811   0.107  0.00  0.00    -0.491 OA
ATOM      8  C   UNL     1      -2.364   5.238   0.131  0.00  0.00    +0.277 C 
ENDBRANCH   6   7
BRANCH   1   9
ATOM      9  O   UNL     1      -2.392   1.057   0.047  0.00  0.00    -0.486 OA
BRANCH   9  10
ATOM     10  C   UNL     1      -2.299  -0.369   0.020  0.00  0.00    +0.261 C 
BRANCH  10  11
ATOM     11  C   UNL     1      -3.704  -0.972   0.037  0.00  0.00    +0.166 C 
BRANCH  11  12
ATOM     12  O   UNL     1      -4.342  -0.659   1.276  0.00  0.00    -0.387 OA
ATOM     13  H   UNL     1      -4.500   0.391   1.564  0.00  0.00    +0.210 HD
ENDBRANCH  11  12
BRANCH  11  14
ATOM     14  C   UNL     1      -3.609  -2.491  -0.118  0.00  0.00    +0.119 C 
BRANCH  14  18
ATOM     15  N   UNL     1      -7.021  -4.818  -1.007  0.00  0.00    +0.381 N 
ATOM     16  C   UNL     1      -7.063  -3.385  -1.327  0.00  0.00    -0.063 C 
ATOM     17  C   UNL     1      -5.635  -2.839  -1.399  0.00  0.00    +0.066 C 
ATOM     18  N   UNL     1      -4.960  -3.070  -0.114  0.00  0.00    -0.303 NA
ATOM     19  C   UNL     1      -4.918  -4.503   0.205  0.00  0.00    +0.066 C 
ATOM     20  C   UNL     1      -6.346  -5.049   0.277  0.00  0.00    -0.063 C 
ATOM     21  H   UNL     1      -6.440  -5.325  -1.792  0.00  0.00    -0.082 HD
BRANCH  15  23
ATOM     22  C   UNL     1      -8.274  -6.921  -0.916  0.00  0.00    -0.017 C 
ATOM     23  C   UNL     1      -8.372  -5.396  -1.004  0.00  0.00    -0.082 C 
ENDBRANCH  15  23
ENDBRANCH  14  18
ENDBRANCH  11  14
ENDBRANCH  10  11
ENDBRANCH   9  10
ENDBRANCH   1   9
BRANCH   4  24
ATOM     24  C   UNL     1       2.454   3.935  -0.007  0.00  0.00    -0.046 C 
BRANCH  24  25
ATOM     25  N   UNL     1       2.842   4.210  -1.397  0.00  0.00    +0.384 N 
ATOM     26  H   UNL     1       2.971   3.260  -1.936  0.00  0.00    -0.085 HD
ATOM     27  H   UNL     1       2.057   4.806  -1.886  0.00  0.00    -0.085 HD
BRANCH  25  28
ATOM     28  C   UNL     1       4.105   4.958  -1.453  0.00  0.00    -0.071 C 
ATOM     29  C   UNL     1       3.825   6.474  -1.378  0.00  0.00    -0.016 C 
ATOM     30  C   UNL     1       4.871   7.101  -2.333  0.00  0.00    -0.002 C 
ATOM     31  C   UNL     1       4.930   6.079  -3.495  0.00  0.00    -0.002 C 
ATOM     32  C   UNL     1       4.807   4.707  -2.799  0.00  0.00    -0.016 C 
ENDBRANCH  25  28
ENDBRANCH  24  25
ENDBRANCH   4  24
TORSDOF 11
