REMARK  Name = ZINC63373402
REMARK  7 active torsions:
REMARK  status: ('A' for Active; 'I' for Inactive)
REMARK    1  A    between atoms: C_1  and  O_2
REMARK    2  A    between atoms: O_2  and  C_3
REMARK    3  A    between atoms: C_7  and  C_9
REMARK    4  A    between atoms: N_27  and  C_30
REMARK    5  A    between atoms: C_35  and  C_36
REMARK    6  A    between atoms: N_38  and  C_39
REMARK    7  A    between atoms: C_39  and  C_40
REMARK                            x       y       z     vdW  Elec       q    Type
REMARK                         _______ _______ _______ _____ _____    ______ ____
ROOT
ATOM      1  C   UNL     1      -2.540  -4.171   0.015  0.00  0.00    +0.135 C 
ATOM      2  C   UNL     1      -2.708  -4.690   1.451  0.00  0.00    +0.131 C 
ATOM      3  C   UNL     1      -3.136  -6.148   1.350  0.00  0.00    -0.034 C 
ATOM      4  C   UNL     1      -2.237  -6.849   2.034  0.00  0.00    -0.001 A 
ATOM      5  C   UNL     1      -2.149  -8.285   2.346  0.00  0.00    +0.010 A 
ATOM      6  C   UNL     1      -1.069  -8.674   3.075  0.00  0.00    +0.001 A 
ATOM      7  C   UNL     1      -0.082  -7.790   3.519  0.00  0.00    +0.002 A 
ATOM      8  C   UNL     1      -0.085  -6.454   3.281  0.00  0.00    +0.026 A 
ATOM      9  C   UNL     1      -1.172  -5.924   2.527  0.00  0.00    +0.043 A 
ATOM     10  N   UNL     1      -1.435  -4.679   2.175  0.00  0.00    -0.375 N 
ATOM     11  C   UNL     1      -4.327  -6.608   0.543  0.00  0.00    +0.065 C 
ATOM     12  C   UNL     1      -4.145  -6.032  -0.872  0.00  0.00    +0.169 C 
ATOM     13  N   UNL     1      -3.712  -4.625  -0.744  0.00  0.00    -0.264 N 
ATOM     14  C   UNL     1      -4.598  -3.884  -1.421  0.00  0.00    +0.317 C 
ATOM     15  O   UNL     1      -4.475  -2.691  -1.617  0.00  0.00    -0.252 OA
ATOM     16  N   UNL     1      -5.635  -4.611  -1.859  0.00  0.00    -0.192 N 
ATOM     17  C   UNL     1      -5.486  -5.942  -1.568  0.00  0.00    +0.248 C 
ATOM     18  O   UNL     1      -6.249  -6.852  -1.808  0.00  0.00    -0.273 OA
ATOM     19  H   UNL     1      -0.890  -3.896   2.353  0.00  0.00    +0.160 HD
ENDROOT
BRANCH   1  24
ATOM     20  C   UNL     1      -3.460  -0.547   0.563  0.00  0.00    +0.120 A 
ATOM     21  C   UNL     1      -2.362   0.101   0.015  0.00  0.00    +0.045 A 
ATOM     22  C   UNL     1      -1.327  -0.636  -0.529  0.00  0.00    +0.004 A 
ATOM     23  C   UNL     1      -1.386  -2.017  -0.528  0.00  0.00    +0.006 A 
ATOM     24  C   UNL     1      -2.479  -2.665   0.017  0.00  0.00    -0.021 A 
ATOM     25  C   UNL     1      -3.514  -1.933   0.567  0.00  0.00    +0.051 A 
BRANCH  20  27
ATOM     26  C   UNL     1      -4.355   1.599   1.060  0.00  0.00    +0.277 C 
ATOM     27  O   UNL     1      -4.478   0.175   1.099  0.00  0.00    -0.495 OA
ENDBRANCH  20  27
ENDBRANCH   1  24
BRANCH  16  28
ATOM     28  C   UNL     1      -6.735  -4.080  -2.536  0.00  0.00    +0.058 A 
ATOM     29  C   UNL     1      -6.725  -3.992  -3.921  0.00  0.00    +0.025 A 
ATOM     30  C   UNL     1      -7.813  -3.467  -4.589  0.00  0.00    +0.002 A 
ATOM     31  C   UNL     1      -8.921  -3.025  -3.885  0.00  0.00    +0.001 A 
ATOM     32  C   UNL     1      -8.948  -3.104  -2.509  0.00  0.00    +0.015 A 
ATOM     33  C   UNL     1      -7.857  -3.638  -1.821  0.00  0.00    +0.059 A 
BRANCH  33  34
ATOM     34  C   UNL     1      -7.882  -3.731  -0.348  0.00  0.00    +0.246 C 
ATOM     35  O   UNL     1      -6.928  -4.192   0.248  0.00  0.00    -0.270 OA
ATOM     36  N   UNL     1      -8.962  -3.305   0.336  0.00  0.00    -0.308 N 
ATOM     37  H   UNL     1      -9.724  -2.938  -0.140  0.00  0.00    +0.149 HD
BRANCH  36  38
ATOM     38  C   UNL     1      -8.987  -3.398   1.798  0.00  0.00    +0.131 C 
BRANCH  38  39
ATOM     39  C   UNL     1     -10.297  -2.860   2.313  0.00  0.00    -0.016 C 
ATOM     40  C   UNL     1     -11.051  -3.601   3.087  0.00  0.00    +0.005 C 
ENDBRANCH  38  39
ENDBRANCH  36  38
ENDBRANCH  33  34
ENDBRANCH  16  28
TORSDOF 6
