REMARK  Name = ZINC07454679
REMARK  10 active torsions:
REMARK  status: ('A' for Active; 'I' for Inactive)
REMARK    1  A    between atoms: C_1  and  C_2
REMARK    2  A    between atoms: C_6  and  N_9
REMARK    3  A    between atoms: C_7  and  C_8
REMARK    4  A    between atoms: C_10  and  C_12
REMARK    5  A    between atoms: C_12  and  N_62
REMARK    6  A    between atoms: C_13  and  N_62
REMARK    7  A    between atoms: C_14  and  C_15
REMARK    8  A    between atoms: C_14  and  N_62
REMARK    9  A    between atoms: N_17  and  N_18
REMARK   10  A    between atoms: C_24  and  C_27
REMARK                            x       y       z     vdW  Elec       q    Type
REMARK                         _______ _______ _______ _____ _____    ______ ____
ROOT
ATOM      1  C   UNL     1      -2.908   8.014   0.026  0.00  0.00    +0.213 C 
ATOM      2  O   UNL     1      -3.791   7.183   0.026  0.00  0.00    -0.276 OA
ATOM      3  N   UNL     1      -3.211   9.320   0.166  0.00  0.00    -0.225 N 
ATOM      4  H   UNL     1      -2.505   9.985   0.166  0.00  0.00    +0.173 HD
ENDROOT
BRANCH   3   5
ATOM      5  N   UNL     1      -4.547   9.717   0.313  0.00  0.00    -0.137 N 
ATOM      6  C   UNL     1      -5.096  10.114   1.479  0.00  0.00    +0.263 C 
ATOM      7  O   UNL     1      -4.550  10.192   2.559  0.00  0.00    -0.271 OA
ATOM      8  C   UNL     1      -6.536  10.441   1.157  0.00  0.00    +0.114 C 
ATOM      9  C   UNL     1      -6.825  11.910   1.448  0.00  0.00    +0.035 C 
ATOM     10  C   UNL     1      -8.279  12.228   1.089  0.00  0.00    +0.006 C 
ATOM     11  C   UNL     1      -9.213  11.335   1.908  0.00  0.00    -0.014 C 
ATOM     12  C   UNL     1      -8.927   9.866   1.587  0.00  0.00    +0.006 C 
ATOM     13  C   UNL     1      -7.476   9.538   1.948  0.00  0.00    +0.035 C 
ATOM     14  C   UNL     1     -10.666  11.660   1.559  0.00  0.00    +0.007 C 
ATOM     15  N   UNL     1      -6.650  10.169  -0.282  0.00  0.00    -0.284 N 
ATOM     16  C   UNL     1      -5.434   9.756  -0.689  0.00  0.00    +0.326 C 
ATOM     17  O   UNL     1      -5.174   9.449  -1.835  0.00  0.00    -0.251 OA
ATOM     18  H   UNL     1      -7.443  10.272  -0.831  0.00  0.00    +0.151 HD
ENDBRANCH   3   5
BRANCH   1  19
ATOM     19  C   UNL     1      -1.472   7.587  -0.132  0.00  0.00    +0.020 C 
BRANCH  19  21
ATOM     20  C   UNL     1      -2.043   5.683  -1.514  0.00  0.00    -0.095 C 
ATOM     21  N   UNL     1      -1.422   6.114  -0.244  0.00  0.00    +0.389 N 
ATOM     22  H   UNL     1      -1.943   5.702   0.538  0.00  0.00    -0.081 HD
BRANCH  21  23
ATOM     23  C   UNL     1      -0.020   5.650  -0.184  0.00  0.00    +0.019 C 
BRANCH  23  25
ATOM     24  N   UNL     1       1.162   3.485   0.009  0.00  0.00    -0.287 N 
ATOM     25  C   UNL     1      -0.009   4.147  -0.078  0.00  0.00    +0.201 C 
ATOM     26  O   UNL     1      -1.055   3.532  -0.072  0.00  0.00    -0.278 OA
ATOM     27  H   UNL     1       1.993   3.979   0.085  0.00  0.00    +0.155 HD
BRANCH  24  33
ATOM     28  C   UNL     1       3.389  -0.737   1.187  0.00  0.00    +0.044 C 
ATOM     29  C   UNL     1       2.245   0.014   0.554  0.00  0.00    -0.046 A 
ATOM     30  C   UNL     1       1.211  -0.680  -0.045  0.00  0.00    +0.004 A 
ATOM     31  C   UNL     1       0.160   0.005  -0.627  0.00  0.00    +0.002 A 
ATOM     32  C   UNL     1       0.141   1.386  -0.611  0.00  0.00    +0.023 A 
ATOM     33  C   UNL     1       1.178   2.086  -0.009  0.00  0.00    +0.036 A 
ATOM     34  C   UNL     1       2.232   1.395   0.575  0.00  0.00    -0.026 A 
ATOM     35  C   UNL     1       3.359   2.151   1.229  0.00  0.00    +0.046 C 
ENDBRANCH  24  33
ENDBRANCH  23  25
ENDBRANCH  21  23
ENDBRANCH  19  21
ENDBRANCH   1  19
TORSDOF 6
