REMARK  Name = ZINC43287436
REMARK  13 active torsions:
REMARK  status: ('A' for Active; 'I' for Inactive)
REMARK    1  A    between atoms: C_1  and  C_2
REMARK    2  A    between atoms: C_2  and  C_3
REMARK    3  A    between atoms: C_3  and  C_4
REMARK    4  A    between atoms: C_3  and  N_6
REMARK    5  A    between atoms: C_4  and  C_5
REMARK    6  A    between atoms: N_6  and  C_7
REMARK    7  A    between atoms: N_6  and  C_10
REMARK    8  A    between atoms: C_7  and  C_8
REMARK    9  A    between atoms: C_8  and  O_9
REMARK   10  A    between atoms: C_10  and  C_12
REMARK   11  A    between atoms: C_10  and  C_18
REMARK   12  A    between atoms: C_18  and  C_20
REMARK   13  A    between atoms: C_18  and  N_21
REMARK                            x       y       z     vdW  Elec       q    Type
REMARK                         _______ _______ _______ _____ _____    ______ ____
ROOT
ATOM      1  C   UNL     1      -2.024   0.624   2.003  0.00  0.00    -0.014 C 
ENDROOT
BRANCH   1   2
ATOM      2  C   UNL     1      -0.554   0.942   2.095  0.00  0.00    -0.021 A 
ATOM      3  C   UNL     1       0.062   2.149   2.067  0.00  0.00    +0.025 A 
ATOM      4  C   UNL     1       1.440   2.202   2.167  0.00  0.00    +0.025 A 
ATOM      5  C   UNL     1       2.134   1.044   2.290  0.00  0.00    +0.060 A 
ATOM      6  S   UNL     1       0.828  -0.173   2.274  0.00  0.00    -0.102 S 
ATOM      7 BR   UNL     1       2.342   3.863   2.133  0.00  0.00    -0.050 Br
ENDBRANCH   1   2
BRANCH   1   8
ATOM      8  N   UNL     1      -2.276  -0.189   0.806  0.00  0.00    +0.389 N 
ATOM      9  H   UNL     1      -1.905  -1.117   0.945  0.00  0.00    -0.080 HD
BRANCH   8  10
ATOM     10  C   UNL     1      -1.622   0.432  -0.353  0.00  0.00    -0.068 C 
BRANCH  10  12
ATOM     11  C   UNL     1      -3.116   2.417  -0.090  0.00  0.00    +0.002 C 
ATOM     12  C   UNL     1      -1.662   1.954  -0.208  0.00  0.00    -0.019 C 
ENDBRANCH  10  12
BRANCH  10  13
ATOM     13  C   UNL     1      -0.167  -0.035  -0.428  0.00  0.00    -0.019 C 
ATOM     14  C   UNL     1      -0.125  -1.562  -0.524  0.00  0.00    +0.002 C 
ENDBRANCH  10  13
ENDBRANCH   8  10
BRANCH   8  15
ATOM     15  C   UNL     1      -3.723  -0.271   0.566  0.00  0.00    -0.049 C 
BRANCH  15  16
ATOM     16  C   UNL     1      -4.042  -1.565  -0.186  0.00  0.00    +0.137 C 
BRANCH  16  17
ATOM     17  O   UNL     1      -3.755  -2.686   0.651  0.00  0.00    -0.397 OA
ATOM     18  H   UNL     1      -3.934  -3.542   0.238  0.00  0.00    +0.209 HD
ENDBRANCH  16  17
ENDBRANCH  15  16
ENDBRANCH   8  15
ENDBRANCH   1   8
BRANCH   1  19
ATOM     19  C   UNL     1      -2.456  -0.154   3.248  0.00  0.00    +0.039 C 
ATOM     20  C   UNL     1      -2.494   0.790   4.452  0.00  0.00    +0.022 C 
BRANCH  19  21
ATOM     21  N   UNL     1      -3.792  -0.724   3.030  0.00  0.00    -0.329 NA
ATOM     22  H   UNL     1      -4.486   0.003   2.946  0.00  0.00    +0.118 HD
ATOM     23  H   UNL     1      -3.800  -1.327   2.221  0.00  0.00    +0.118 HD
ENDBRANCH  19  21
ENDBRANCH   1  19
TORSDOF 10
