REMARK  Name = ZINC37818291
REMARK  2 active torsions:
REMARK  status: ('A' for Active; 'I' for Inactive)
REMARK    1  A    between atoms: C_13  and  C_15
REMARK    2  A    between atoms: C_18  and  O_22
REMARK                            x       y       z     vdW  Elec       q    Type
REMARK                         _______ _______ _______ _____ _____    ______ ____
ROOT
ATOM      1  C   UNL     1      -0.019   1.521   0.010  0.00  0.00    +0.054 C 
ATOM      2  C   UNL     1       1.420   2.049  -0.001  0.00  0.00    +0.110 C 
ATOM      3  N   UNL     1       2.157   1.434   1.113  0.00  0.00    -0.303 N 
ATOM      4  C   UNL     1       2.176  -0.030   1.227  0.00  0.00    +0.110 C 
ATOM      5  C   UNL     1       0.731  -0.543   1.229  0.00  0.00    +0.054 C 
ATOM      6  C   UNL     1       0.002  -0.004   0.002  0.00  0.00    +0.115 C 
ATOM      7  C   UNL     1      -1.406  -0.550  -0.057  0.00  0.00    +0.244 C 
ATOM      8  O   UNL     1      -2.290  -0.390   0.757  0.00  0.00    -0.273 OA
ATOM      9  N   UNL     1      -1.472  -1.253  -1.207  0.00  0.00    -0.238 N 
ATOM     10  C   UNL     1      -0.310  -1.223  -1.870  0.00  0.00    +0.307 C 
ATOM     11  O   UNL     1      -0.124  -1.782  -2.933  0.00  0.00    -0.252 OA
ATOM     12  N   UNL     1       0.630  -0.502  -1.228  0.00  0.00    -0.285 N 
ATOM     13  C   UNL     1       2.804   2.201   2.013  0.00  0.00    +0.202 C 
ATOM     14  O   UNL     1       2.781   3.409   1.908  0.00  0.00    -0.277 OA
ATOM     15  H   UNL     1      -2.263  -1.722  -1.514  0.00  0.00    +0.159 HD
ATOM     16  H   UNL     1       1.541  -0.344  -1.521  0.00  0.00    +0.151 HD
ENDROOT
BRANCH  13  17
ATOM     17  C   UNL     1       3.555   1.557   3.149  0.00  0.00    +0.019 C 
ATOM     18  C   UNL     1       4.948   1.089   2.677  0.00  0.00    +0.023 C 
ATOM     19  C   UNL     1       5.889   1.365   3.868  0.00  0.00    +0.097 C 
ATOM     20  C   UNL     1       4.985   1.976   4.960  0.00  0.00    -0.050 C 
ATOM     21  N   UNL     1       3.834   2.553   4.216  0.00  0.00    +0.388 N 
ATOM     22  H   UNL     1       4.085   3.442   3.812  0.00  0.00    -0.085 HD
ATOM     23  H   UNL     1       3.034   2.653   4.823  0.00  0.00    -0.085 HD
BRANCH  19  24
ATOM     24  O   UNL     1       6.474   0.146   4.331  0.00  0.00    -0.394 OA
ATOM     25  H   UNL     1       7.076   0.258   5.080  0.00  0.00    +0.210 HD
ENDBRANCH  19  24
ENDBRANCH  13  17
TORSDOF 2
