REMARK  Name = ZINC35644692
REMARK  13 active torsions:
REMARK  status: ('A' for Active; 'I' for Inactive)
REMARK    1  A    between atoms: C_1  and  C_2
REMARK    2  A    between atoms: C_1  and  O_40
REMARK    3  A    between atoms: C_4  and  O_39
REMARK    4  A    between atoms: C_6  and  O_17
REMARK    5  A    between atoms: C_8  and  C_11
REMARK    6  A    between atoms: C_11  and  O_12
REMARK    7  A    between atoms: O_12  and  S_13
REMARK    8  A    between atoms: O_17  and  C_18
REMARK    9  A    between atoms: C_20  and  O_34
REMARK   10  A    between atoms: C_22  and  O_33
REMARK   11  A    between atoms: C_24  and  O_32
REMARK   12  A    between atoms: C_26  and  C_29
REMARK   13  A    between atoms: O_34  and  S_35
REMARK                            x       y       z     vdW  Elec       q    Type
REMARK                         _______ _______ _______ _____ _____    ______ ____
ROOT
ATOM      1  C   UNL     1      -1.885  -3.740  -0.433  0.00  0.00    +0.286 C 
ATOM      2  C   UNL     1      -1.211  -4.873  -1.212  0.00  0.00    +0.238 C 
ATOM      3  C   UNL     1      -0.427  -5.757  -0.237  0.00  0.00    +0.182 C 
ATOM      4  C   UNL     1      -1.382  -6.281   0.841  0.00  0.00    +0.186 C 
ATOM      5  C   UNL     1      -2.050  -5.094   1.540  0.00  0.00    +0.265 C 
ATOM      6  O   UNL     1      -2.735  -4.296   0.573  0.00  0.00    -0.331 OA
ENDROOT
BRANCH   5   7
ATOM      7  C   UNL     1      -3.035  -5.601   2.562  0.00  0.00    +0.387 C 
ATOM      8  O   UNL     1      -2.640  -6.230   3.529  0.00  0.00    -0.243 OA
ATOM      9  O   UNL     1      -4.226  -5.383   2.421  0.00  0.00    -0.243 OA
ENDBRANCH   5   7
BRANCH   4  10
ATOM     10  O   UNL     1      -2.382  -7.103   0.234  0.00  0.00    -0.386 OA
ATOM     11  H   UNL     1      -3.022  -7.469   0.860  0.00  0.00    +0.210 HD
ENDBRANCH   4  10
BRANCH   3  12
ATOM     12  O   UNL     1       0.146  -6.858  -0.945  0.00  0.00    -0.386 OA
ATOM     13  H   UNL     1       0.658  -7.460  -0.388  0.00  0.00    +0.210 HD
ENDBRANCH   3  12
BRANCH   1  14
ATOM     14  O   UNL     1      -0.886  -2.926   0.184  0.00  0.00    -0.340 OA
BRANCH  14  17
ATOM     15  C   UNL     1       0.002  -0.004   0.002  0.00  0.00    +0.175 C 
ATOM     16  C   UNL     1      -1.439  -0.547  -0.109  0.00  0.00    +0.177 C 
ATOM     17  C   UNL     1      -1.405  -1.771   0.846  0.00  0.00    +0.183 C 
ATOM     18  C   UNL     1      -0.428  -1.265   1.937  0.00  0.00    +0.178 C 
ATOM     19  O   UNL     1       0.556  -0.489   1.231  0.00  0.00    -0.363 OA
BRANCH  16  20
ATOM     20  O   UNL     1      -2.385   0.426   0.339  0.00  0.00    -0.386 OA
ATOM     21  H   UNL     1      -2.381   1.245  -0.176  0.00  0.00    +0.210 HD
ENDBRANCH  16  20
BRANCH  15  22
ATOM     22  C   UNL     1      -0.019   1.526   0.010  0.00  0.00    +0.190 C 
BRANCH  22  23
ATOM     23  O   UNL     1       1.322   2.020   0.000  0.00  0.00    -0.392 OA
ATOM     24  H   UNL     1       1.385   2.985   0.005  0.00  0.00    +0.210 HD
ENDBRANCH  22  23
ENDBRANCH  15  22
BRANCH  18  25
ATOM     25  C   UNL     1       0.236  -2.448   2.645  0.00  0.00    +0.230 C 
BRANCH  25  26
ATOM     26  O   UNL     1       1.043  -1.967   3.722  0.00  0.00    -0.211 OA
BRANCH  26  27
ATOM     27  S   UNL     1       1.755  -3.064   4.500  0.00  0.00    +0.238 S 
ATOM     28  O   UNL     1       2.220  -2.467   5.742  0.00  0.00    -0.116 OA
ATOM     29  O   UNL     1       0.778  -4.117   4.736  0.00  0.00    -0.116 OA
ATOM     30  O   UNL     1       2.858  -3.523   3.671  0.00  0.00    -0.022 OA
ENDBRANCH  26  27
ENDBRANCH  25  26
ENDBRANCH  18  25
ENDBRANCH  14  17
ENDBRANCH   1  14
BRANCH   2  31
ATOM     31  O   UNL     1      -2.206  -5.656  -1.874  0.00  0.00    -0.203 OA
BRANCH  31  32
ATOM     32  S   UNL     1      -2.457  -5.246  -3.318  0.00  0.00    +0.239 S 
ATOM     33  O   UNL     1      -3.708  -5.869  -3.723  0.00  0.00    -0.116 OA
ATOM     34  O   UNL     1      -2.542  -3.794  -3.336  0.00  0.00    -0.116 OA
ATOM     35  O   UNL     1      -1.330  -5.734  -4.097  0.00  0.00    -0.022 OA
ENDBRANCH  31  32
ENDBRANCH   2  31
TORSDOF 13
