REMARK  Name = ZINC63351543
REMARK  7 active torsions:
REMARK  status: ('A' for Active; 'I' for Inactive)
REMARK    1  A    between atoms: C_1  and  C_2
REMARK    2  A    between atoms: C_2  and  O_3
REMARK    3  A    between atoms: O_3  and  C_4
REMARK    4  A    between atoms: C_6  and  C_11
REMARK    5  A    between atoms: C_9  and  O_10
REMARK    6  A    between atoms: N_12  and  N_13
REMARK    7  A    between atoms: C_33  and  C_35
REMARK                            x       y       z     vdW  Elec       q    Type
REMARK                         _______ _______ _______ _____ _____    ______ ____
ROOT
ATOM      1  N   UNL     1       1.579  -7.081  -0.063  0.00  0.00    -0.183 N 
ATOM      2  C   UNL     1       2.898  -6.471  -0.060  0.00  0.00    +0.230 C 
ATOM      3  C   UNL     1       3.991  -7.489  -0.074  0.00  0.00    +0.236 C 
ATOM      4  O   UNL     1       5.135  -7.087  -0.074  0.00  0.00    -0.274 OA
ATOM      5  N   UNL     1       3.797  -8.813  -0.086  0.00  0.00    -0.279 N 
ATOM      6  C   UNL     1       2.469  -9.415  -0.068  0.00  0.00    +0.169 C 
ATOM      7  C   UNL     1       1.376  -8.398  -0.061  0.00  0.00    +0.256 C 
ATOM      8  O   UNL     1       0.230  -8.795  -0.057  0.00  0.00    -0.272 OA
ATOM      9  C   UNL     1       2.324 -10.333   1.160  0.00  0.00    +0.065 C 
ATOM     10  C   UNL     1       3.578 -11.169   1.221  0.00  0.00    -0.034 C 
ATOM     11  C   UNL     1       3.757 -12.480   1.323  0.00  0.00    -0.001 A 
ATOM     12  C   UNL     1       2.808 -13.587   1.526  0.00  0.00    +0.010 A 
ATOM     13  C   UNL     1       3.343 -14.836   1.562  0.00  0.00    +0.001 A 
ATOM     14  C   UNL     1       4.710 -15.093   1.418  0.00  0.00    +0.002 A 
ATOM     15  C   UNL     1       5.655 -14.136   1.238  0.00  0.00    +0.026 A 
ATOM     16  C   UNL     1       5.216 -12.781   1.191  0.00  0.00    +0.043 A 
ATOM     17  N   UNL     1       5.896 -11.681   1.055  0.00  0.00    -0.375 N 
ATOM     18  C   UNL     1       4.970 -10.552   1.143  0.00  0.00    +0.131 C 
ATOM     19  C   UNL     1       4.993  -9.685  -0.119  0.00  0.00    +0.133 C 
ATOM     20  H   UNL     1       6.854 -11.619   0.918  0.00  0.00    +0.160 HD
ENDROOT
BRANCH  19  21
ATOM     21  C   UNL     1       6.241  -8.841  -0.137  0.00  0.00    -0.025 A 
ATOM     22  C   UNL     1       6.788  -8.391   1.050  0.00  0.00    +0.005 A 
ATOM     23  C   UNL     1       7.933  -7.617   1.034  0.00  0.00    +0.000 A 
ATOM     24  C   UNL     1       8.532  -7.294  -0.170  0.00  0.00    +0.000 A 
ATOM     25  C   UNL     1       7.985  -7.745  -1.357  0.00  0.00    +0.000 A 
ATOM     26  C   UNL     1       6.843  -8.523  -1.340  0.00  0.00    +0.005 A 
ENDBRANCH  19  21
BRANCH   1  28
ATOM     27  C   UNL     1       0.618  -4.950  -0.065  0.00  0.00    +0.138 C 
ATOM     28  N   UNL     1       0.460  -6.238  -0.063  0.00  0.00    -0.184 NA
BRANCH  27  31
ATOM     29  C   UNL     1      -1.500  -1.849  -0.067  0.00  0.00    +0.162 A 
ATOM     30  C   UNL     1      -0.392  -2.676  -0.067  0.00  0.00    +0.059 A 
ATOM     31  C   UNL     1      -0.560  -4.063  -0.065  0.00  0.00    -0.002 A 
ATOM     32  C   UNL     1      -1.846  -4.608  -0.063  0.00  0.00    +0.013 A 
ATOM     33  C   UNL     1      -2.947  -3.776  -0.063  0.00  0.00    +0.050 A 
ATOM     34  C   UNL     1      -2.780  -2.399  -0.060  0.00  0.00    +0.158 A 
BRANCH  34  35
ATOM     35  O   UNL     1      -3.868  -1.584  -0.054  0.00  0.00    -0.503 OA
ATOM     36  H   UNL     1      -4.187  -1.349  -0.936  0.00  0.00    +0.292 HD
ENDBRANCH  34  35
BRANCH  29  37
ATOM     37  O   UNL     1      -1.340  -0.499  -0.069  0.00  0.00    -0.489 OA
BRANCH  37  39
ATOM     38  C   UNL     1      -0.020   1.526  -0.077  0.00  0.00    +0.048 C 
ATOM     39  C   UNL     1       0.001  -0.004  -0.077  0.00  0.00    +0.226 C 
ENDBRANCH  37  39
ENDBRANCH  29  37
ENDBRANCH  27  31
ENDBRANCH   1  28
TORSDOF 6
