REMARK  Name = ZINC64802121
REMARK  10 active torsions:
REMARK  status: ('A' for Active; 'I' for Inactive)
REMARK    1  A    between atoms: C_1  and  C_2
REMARK    2  A    between atoms: C_4  and  N_13
REMARK    3  A    between atoms: N_13  and  C_14
REMARK    4  A    between atoms: C_17  and  N_20
REMARK    5  A    between atoms: N_20  and  S_21
REMARK    6  A    between atoms: S_21  and  C_24
REMARK    7  A    between atoms: C_27  and  O_32
REMARK    8  A    between atoms: C_28  and  C_31
REMARK    9  A    between atoms: C_29  and  C_30
REMARK   10  A    between atoms: O_32  and  C_33
REMARK                            x       y       z     vdW  Elec       q    Type
REMARK                         _______ _______ _______ _____ _____    ______ ____
ROOT
ATOM      1  C   UNL     1       0.169  -1.638  -3.575  0.00  0.00    +0.032 A 
ATOM      2  C   UNL     1       0.140  -0.280  -3.862  0.00  0.00    +0.025 A 
ATOM      3  C   UNL     1      -0.045   0.148  -5.162  0.00  0.00    +0.026 A 
ATOM      4  C   UNL     1      -0.202  -0.781  -6.183  0.00  0.00    +0.048 A 
ATOM      5  C   UNL     1      -0.172  -2.139  -5.896  0.00  0.00    +0.026 A 
ATOM      6  C   UNL     1       0.017  -2.567  -4.597  0.00  0.00    +0.025 A 
ENDROOT
BRANCH   1   7
ATOM      7  N   UNL     1       0.356  -2.072  -2.257  0.00  0.00    -0.299 N 
ATOM      8  H   UNL     1       0.839  -2.895  -2.081  0.00  0.00    +0.154 HD
BRANCH   7  12
ATOM      9  C   UNL     1      -0.107  -1.252   2.575  0.00  0.00    +0.063 C 
ATOM     10  C   UNL     1      -0.387  -0.907   1.135  0.00  0.00    +0.019 A 
ATOM     11  C   UNL     1       0.137  -1.680   0.117  0.00  0.00    +0.064 A 
ATOM     12  C   UNL     1      -0.148  -1.325  -1.203  0.00  0.00    +0.128 A 
ATOM     13  N   UNL     1      -0.910  -0.261  -1.435  0.00  0.00    -0.201 NA
ATOM     14  C   UNL     1      -1.393   0.455  -0.431  0.00  0.00    +0.197 A 
ATOM     15  N   UNL     1      -1.143   0.138   0.832  0.00  0.00    -0.331 N 
ATOM     16  N   UNL     1      -2.182   1.558  -0.706  0.00  0.00    -0.301 N 
ATOM     17  C   UNL     1      -2.784   2.451   0.294  0.00  0.00    +0.108 C 
ATOM     18  C   UNL     1      -3.595   3.517  -0.473  0.00  0.00    +0.020 C 
ATOM     19  C   UNL     1      -3.868   2.831  -1.837  0.00  0.00    +0.020 C 
ATOM     20  C   UNL     1      -2.554   2.034  -2.051  0.00  0.00    +0.108 C 
ATOM     21  H   UNL     1      -1.515   0.681   1.544  0.00  0.00    +0.168 HD
ENDBRANCH   7  12
ENDBRANCH   1   7
BRANCH   4  22
ATOM     22  N   UNL     1      -0.390  -0.348  -7.500  0.00  0.00    -0.216 N 
ATOM     23  H   UNL     1      -1.018   0.366  -7.691  0.00  0.00    +0.174 HD
BRANCH  22  24
ATOM     24  S   UNL     1       0.461  -1.054  -8.733  0.00  0.00    +0.073 S 
ATOM     25  O   UNL     1       0.096  -0.368  -9.923  0.00  0.00    -0.150 OA
ATOM     26  O   UNL     1       1.809  -1.151  -8.293  0.00  0.00    -0.150 OA
BRANCH  24  27
ATOM     27  C   UNL     1      -0.135  -2.704  -8.899  0.00  0.00    +0.112 A 
ATOM     28  C   UNL     1       0.698  -3.770  -8.614  0.00  0.00    +0.032 A 
ATOM     29  C   UNL     1       0.233  -5.064  -8.744  0.00  0.00    +0.048 A 
ATOM     30  C   UNL     1      -1.071  -5.294  -9.160  0.00  0.00    +0.123 A 
ATOM     31  C   UNL     1      -1.904  -4.222  -9.445  0.00  0.00    -0.004 A 
ATOM     32  C   UNL     1      -1.436  -2.929  -9.309  0.00  0.00    -0.017 A 
ATOM     33  C   UNL     1      -2.342  -1.764  -9.612  0.00  0.00    +0.046 C 
ATOM     34  C   UNL     1      -3.320  -4.468  -9.897  0.00  0.00    +0.048 C 
BRANCH  30  35
ATOM     35  O   UNL     1      -1.530  -6.566  -9.289  0.00  0.00    -0.495 OA
ATOM     36  C   UNL     1      -0.616  -7.620  -8.980  0.00  0.00    +0.277 C 
ENDBRANCH  30  35
ENDBRANCH  24  27
ENDBRANCH  22  24
ENDBRANCH   4  22
TORSDOF 6
