REMARK  Name = ZINC64365388
REMARK  13 active torsions:
REMARK  status: ('A' for Active; 'I' for Inactive)
REMARK    1  A    between atoms: C_1  and  C_2
REMARK    2  A    between atoms: C_4  and  N_13
REMARK    3  A    between atoms: C_5  and  C_12
REMARK    4  A    between atoms: N_7  and  C_8
REMARK    5  A    between atoms: C_8  and  C_9
REMARK    6  A    between atoms: C_9  and  C_10
REMARK    7  A    between atoms: C_9  and  C_11
REMARK    8  A    between atoms: C_14  and  C_16
REMARK    9  A    between atoms: N_18  and  C_19
REMARK   10  A    between atoms: C_19  and  C_20
REMARK   11  A    between atoms: C_20  and  C_21
REMARK   12  A    between atoms: C_24  and  O_30
REMARK   13  A    between atoms: O_30  and  C_31
REMARK                            x       y       z     vdW  Elec       q    Type
REMARK                         _______ _______ _______ _____ _____    ______ ____
ROOT
ATOM      1  C   UNL     1      -4.839  -2.835  -1.778  0.00  0.00    +0.299 C 
ATOM      2  O   UNL     1      -4.762  -2.345  -2.886  0.00  0.00    -0.265 OA
ATOM      3  N   UNL     1      -5.869  -3.649  -1.471  0.00  0.00    -0.307 N 
ATOM      4  H   UNL     1      -5.930  -4.040  -0.586  0.00  0.00    +0.149 HD
ENDROOT
BRANCH   1   6
ATOM      5  N   UNL     1      -2.766  -1.721  -1.063  0.00  0.00    -0.278 N 
ATOM      6  C   UNL     1      -3.795  -2.535  -0.756  0.00  0.00    +0.303 C 
ATOM      7  O   UNL     1      -3.872  -3.025   0.353  0.00  0.00    -0.265 OA
ATOM      8  H   UNL     1      -2.742  -1.271  -1.922  0.00  0.00    +0.155 HD
BRANCH   5  11
ATOM      9  C   UNL     1      -0.074  -3.336  -0.607  0.00  0.00    +0.032 C 
ATOM     10  C   UNL     1      -0.861  -2.594   0.475  0.00  0.00    +0.118 C 
ATOM     11  C   UNL     1      -1.734  -1.524  -0.145  0.00  0.00    +0.047 C 
ATOM     12  C   UNL     1      -1.327  -0.364   0.352  0.00  0.00    +0.034 C 
ATOM     13  N   UNL     1      -0.276  -0.533   1.240  0.00  0.00    -0.280 N 
ATOM     14  N   UNL     1       0.057  -1.854   1.364  0.00  0.00    -0.221 NA
ATOM     15  C   UNL     1      -1.932   0.969  -0.003  0.00  0.00    +0.063 C 
ATOM     16  H   UNL     1       0.165   0.190   1.713  0.00  0.00    +0.166 HD
BRANCH  14  17
ATOM     17  C   UNL     1      -0.079  -2.306   2.755  0.00  0.00    +0.109 C 
BRANCH  17  18
ATOM     18  C   UNL     1       0.529  -3.703   2.899  0.00  0.00    -0.001 C 
ATOM     19  C   UNL     1       2.035  -3.632   2.640  0.00  0.00    +0.008 C 
ATOM     20  C   UNL     1       0.280  -4.224   4.316  0.00  0.00    +0.008 C 
ENDBRANCH  17  18
ENDBRANCH  14  17
ENDBRANCH   5  11
ENDBRANCH   1   6
BRANCH   3  21
ATOM     21  C   UNL     1      -6.894  -3.943  -2.475  0.00  0.00    +0.109 C 
BRANCH  21  22
ATOM     22  C   UNL     1      -7.941  -4.885  -1.874  0.00  0.00    +0.052 C 
BRANCH  22  23
ATOM     23  C   UNL     1      -8.996  -5.187  -2.907  0.00  0.00    -0.040 C 
ATOM     24  C   UNL     1      -9.041  -6.257  -3.733  0.00  0.00    +0.002 A 
ATOM     25  C   UNL     1      -8.158  -7.414  -3.913  0.00  0.00    +0.055 A 
ATOM     26  C   UNL     1      -8.466  -8.350  -4.842  0.00  0.00    +0.121 A 
ATOM     27  C   UNL     1      -9.611  -8.256  -5.651  0.00  0.00    +0.047 A 
ATOM     28  C   UNL     1     -10.484  -7.230  -5.560  0.00  0.00    +0.029 A 
ATOM     29  C   UNL     1     -10.248  -6.159  -4.586  0.00  0.00    +0.043 A 
ATOM     30  N   UNL     1     -10.921  -5.073  -4.298  0.00  0.00    -0.380 N 
ATOM     31  C   UNL     1     -10.221  -4.360  -3.224  0.00  0.00    +0.144 C 
ATOM     32  H   UNL     1     -11.747  -4.790  -4.722  0.00  0.00    +0.160 HD
BRANCH  26  33
ATOM     33  O   UNL     1      -7.638  -9.417  -4.999  0.00  0.00    -0.495 OA
ATOM     34  C   UNL     1      -8.000 -10.380  -5.990  0.00  0.00    +0.277 C 
ENDBRANCH  26  33
ENDBRANCH  22  23
ENDBRANCH  21  22
ENDBRANCH   3  21
TORSDOF 8
