REMARK  Name = ZINC36011800
REMARK  7 active torsions:
REMARK  status: ('A' for Active; 'I' for Inactive)
REMARK    1  A    between atoms: C_1  and  C_2
REMARK    2  A    between atoms: C_2  and  P_18
REMARK    3  A    between atoms: C_4  and  N_12
REMARK    4  A    between atoms: C_4  and  P_14
REMARK    5  A    between atoms: N_12  and  C_13
REMARK    6  A    between atoms: P_14  and  O_17
REMARK    7  A    between atoms: P_18  and  O_21
REMARK                            x       y       z     vdW  Elec       q    Type
REMARK                         _______ _______ _______ _____ _____    ______ ____
ROOT
ATOM      1  C   UNL     1      -0.035   1.175   0.347  0.00  0.00    +0.037 C 
ATOM      2  C   UNL     1       0.051  -0.345   0.203  0.00  0.00    +0.174 C 
ATOM      3  C   UNL     1       0.502  -0.766  -1.180  0.00  0.00    +0.043 C 
ATOM      4  C   UNL     1       1.895  -0.424  -1.660  0.00  0.00    +0.145 C 
ATOM      5  P   UNL     1       3.179  -1.107  -0.550  0.00  0.00    +0.368 P 
ATOM      6  O   UNL     1       4.537  -0.421  -0.821  0.00  0.00    -0.257 OA
ATOM      7  O   UNL     1       2.681  -0.785   0.973  0.00  0.00    -0.227 OA
ATOM      8  P   UNL     1       1.152  -1.017   1.502  0.00  0.00    +0.384 P 
ATOM      9  O   UNL     1       0.881  -2.525   1.700  0.00  0.00    -0.255 OA
ATOM     10  O   UNL     1       0.929  -0.260   2.830  0.00  0.00    -0.139 OA
ATOM     11  O   UNL     1       3.305  -2.633  -0.756  0.00  0.00    -0.141 OA
ENDROOT
BRANCH   4  12
ATOM     12  N   UNL     1       2.077  -1.054  -2.995  0.00  0.00    +0.397 N 
ATOM     13  C   UNL     1       3.465  -0.870  -3.438  0.00  0.00    -0.098 C 
ATOM     14  H   UNL     1       1.872  -2.041  -2.932  0.00  0.00    -0.084 HD
ATOM     15  H   UNL     1       1.451  -0.623  -3.659  0.00  0.00    -0.084 HD
ENDBRANCH   4  12
BRANCH   4  16
ATOM     16  P   UNL     1       2.142   1.368  -1.862  0.00  0.00    +0.359 P 
ATOM     17  O   UNL     1       2.125   2.050  -0.476  0.00  0.00    -0.257 OA
ATOM     18  O   UNL     1       3.503   1.626  -2.547  0.00  0.00    -0.142 OA
BRANCH  16  19
ATOM     19  O   UNL     1       0.960   1.974  -2.772  0.00  0.00    -0.323 OA
ATOM     20  H   UNL     1       1.028   2.926  -2.922  0.00  0.00    +0.220 HD
ENDBRANCH  16  19
ENDBRANCH   4  16
BRANCH   2  21
ATOM     21  P   UNL     1      -1.634  -1.022   0.481  0.00  0.00    +0.375 P 
ATOM     22  O   UNL     1      -2.664  -0.173  -0.296  0.00  0.00    -0.255 OA
ATOM     23  O   UNL     1      -1.690  -2.483  -0.015  0.00  0.00    -0.140 OA
BRANCH  21  24
ATOM     24  O   UNL     1      -1.977  -0.975   2.054  0.00  0.00    -0.322 OA
ATOM     25  H   UNL     1      -2.854  -1.318   2.275  0.00  0.00    +0.220 HD
ENDBRANCH  21  24
ENDBRANCH   2  21
TORSDOF 5
