REMARK  Name = ZINC22011738
REMARK  9 active torsions:
REMARK  status: ('A' for Active; 'I' for Inactive)
REMARK    1  A    between atoms: C_1  and  C_2
REMARK    2  A    between atoms: C_4  and  N_11
REMARK    3  A    between atoms: C_6  and  C_8
REMARK    4  A    between atoms: C_8  and  C_9
REMARK    5  A    between atoms: C_8  and  C_10
REMARK    6  A    between atoms: N_14  and  C_17
REMARK    7  A    between atoms: C_17  and  C_19
REMARK    8  A    between atoms: C_17  and  C_20
REMARK    9  A    between atoms: N_26  and  C_27
REMARK                            x       y       z     vdW  Elec       q    Type
REMARK                         _______ _______ _______ _____ _____    ______ ____
ROOT
ATOM      1  C   UNL     1       5.107   0.929  -0.258  0.00  0.00    -0.002 C 
ATOM      2  C   UNL     1       3.912   1.884  -0.280  0.00  0.00    -0.005 C 
ENDROOT
BRANCH   1   3
ATOM      3  C   UNL     1       4.659  -0.426   0.226  0.00  0.00    +0.123 A 
ATOM      4  N   UNL     1       4.399  -0.616   1.508  0.00  0.00    -0.201 NA
ATOM      5  C   UNL     1       4.004  -1.811   1.938  0.00  0.00    +0.217 A 
ATOM      6  N   UNL     1       3.870  -2.815   1.078  0.00  0.00    -0.181 NA
ATOM      7  C   UNL     1       4.132  -2.620  -0.210  0.00  0.00    +0.224 A 
ATOM      8  N   UNL     1       4.533  -1.423  -0.632  0.00  0.00    -0.201 NA
ATOM      9  N   UNL     1       3.995  -3.660  -1.108  0.00  0.00    -0.284 N 
ATOM     10  N   UNL     1       3.732  -2.008   3.277  0.00  0.00    -0.327 N 
ATOM     11  H   UNL     1       4.300  -3.526  -2.157  0.00  0.00    +0.155 HD
ATOM     12  H   UNL     1       3.405  -2.996   3.632  0.00  0.00    +0.145 HD
ATOM     13  H   UNL     1       3.843  -1.177   3.989  0.00  0.00    +0.145 HD
BRANCH   9  14
ATOM     14  C   UNL     1       3.467  -4.884  -0.686  0.00  0.00    +0.034 A 
ATOM     15  C   UNL     1       3.969  -6.073  -1.200  0.00  0.00    +0.023 A 
ATOM     16  C   UNL     1       3.450  -7.281  -0.776  0.00  0.00    +0.002 A 
ATOM     17  C   UNL     1       2.424  -7.307   0.151  0.00  0.00    +0.000 A 
ATOM     18  C   UNL     1       1.919  -6.125   0.662  0.00  0.00    +0.002 A 
ATOM     19  C   UNL     1       2.438  -4.914   0.246  0.00  0.00    +0.023 A 
ENDBRANCH   9  14
ENDBRANCH   1   3
BRANCH   1  23
ATOM     20  N   UNL     1       8.744   2.374   1.335  0.00  0.00    -0.319 N 
ATOM     21  C   UNL     1       8.268   1.059   1.787  0.00  0.00    +0.088 C 
ATOM     22  C   UNL     1       7.256   0.511   0.778  0.00  0.00    -0.059 C 
ATOM     23  N   UNL     1       6.138   1.456   0.647  0.00  0.00    +0.388 N 
ATOM     24  C   UNL     1       6.614   2.771   0.194  0.00  0.00    -0.059 C 
ATOM     25  C   UNL     1       7.626   3.319   1.203  0.00  0.00    +0.088 C 
ATOM     26  H   UNL     1       5.682   1.583   1.639  0.00  0.00    -0.081 HD
BRANCH  20  30
ATOM     27  C   UNL     1      11.940   5.896   2.604  0.00  0.00    +0.066 C 
ATOM     28  C   UNL     1      11.272   4.562   2.823  0.00  0.00    +0.044 A 
ATOM     29  C   UNL     1      10.311   4.109   1.940  0.00  0.00    +0.066 A 
ATOM     30  C   UNL     1       9.716   2.870   2.188  0.00  0.00    +0.125 A 
ATOM     31  N   UNL     1      10.101   2.172   3.252  0.00  0.00    -0.217 NA
ATOM     32  C   UNL     1      11.025   2.642   4.065  0.00  0.00    +0.134 A 
ATOM     33  N   UNL     1      11.602   3.809   3.862  0.00  0.00    -0.237 NA
BRANCH  32  34
ATOM     34  C   UNL     1      11.435   1.821   5.261  0.00  0.00    +0.051 C 
ATOM     35  C   UNL     1      12.928   1.499   5.172  0.00  0.00    +0.015 C 
ATOM     36  C   UNL     1      11.159   2.611   6.541  0.00  0.00    +0.015 C 
ENDBRANCH  32  34
ENDBRANCH  20  30
ENDBRANCH   1  23
TORSDOF 5
