REMARK  Name = ZINC21800261
REMARK  6 active torsions:
REMARK  status: ('A' for Active; 'I' for Inactive)
REMARK    1  A    between atoms: C_1  and  O_2
REMARK    2  A    between atoms: O_2  and  C_3
REMARK    3  A    between atoms: C_6  and  N_23
REMARK    4  A    between atoms: C_8  and  C_9
REMARK    5  A    between atoms: C_9  and  N_10
REMARK    6  A    between atoms: C_24  and  C_26
REMARK                            x       y       z     vdW  Elec       q    Type
REMARK                         _______ _______ _______ _____ _____    ______ ____
ROOT
ATOM      1  C   UNL     1      -2.105   1.273   4.040  0.00  0.00    +0.122 A 
ATOM      2  C   UNL     1      -2.635   2.022   5.081  0.00  0.00    +0.047 A 
ATOM      3  C   UNL     1      -1.815   2.847   5.825  0.00  0.00    +0.027 A 
ATOM      4  C   UNL     1      -0.461   2.928   5.531  0.00  0.00    +0.034 A 
ATOM      5  C   UNL     1       0.070   2.174   4.493  0.00  0.00    +0.028 A 
ATOM      6  C   UNL     1      -0.752   1.354   3.745  0.00  0.00    -0.020 A 
ENDROOT
BRANCH   4   7
ATOM      7  N   UNL     1       0.371   3.764   6.286  0.00  0.00    -0.281 N 
ATOM      8  C   UNL     1       0.125   3.955   7.597  0.00  0.00    +0.248 C 
ATOM      9  O   UNL     1      -0.760   3.328   8.146  0.00  0.00    -0.270 OA
ATOM     10  H   UNL     1       1.226   4.266   5.808  0.00  0.00    +0.155 HD
BRANCH   8  11
ATOM     11  C   UNL     1       0.930   4.927   8.367  0.00  0.00    +0.038 A 
ATOM     12  C   UNL     1       0.676   5.127   9.725  0.00  0.00    +0.013 A 
ATOM     13  C   UNL     1       1.431   6.035  10.438  0.00  0.00    +0.002 A 
ATOM     14  C   UNL     1       2.438   6.747   9.811  0.00  0.00    +0.015 A 
ATOM     15  C   UNL     1       2.694   6.554   8.464  0.00  0.00    +0.019 A 
ATOM     16  C   UNL     1       1.950   5.644   7.740  0.00  0.00    +0.028 A 
ATOM     17 BR   UNL     1       4.073   7.532   7.617  0.00  0.00    -0.050 Br
ENDBRANCH   8  11
ENDBRANCH   4   7
BRANCH   1  19
ATOM     18  C   UNL     1      -4.296   0.427   3.665  0.00  0.00    +0.277 C 
ATOM     19  O   UNL     1      -2.913   0.461   3.307  0.00  0.00    -0.495 OA
ENDBRANCH   1  19
BRANCH   6  20
ATOM     20  C   UNL     1      -0.177   0.540   2.614  0.00  0.00    -0.039 C 
BRANCH  20  21
ATOM     21  N   UNL     1      -0.457   1.211   1.338  0.00  0.00    +0.388 N 
ATOM     22  C   UNL     1       0.285   0.580   0.237  0.00  0.00    -0.056 C 
ATOM     23  C   UNL     1      -0.302   1.032  -1.105  0.00  0.00    +0.105 C 
ATOM     24  N   UNL     1      -0.405   2.495  -1.095  0.00  0.00    -0.331 N 
ATOM     25  C   UNL     1      -0.575   3.351  -2.141  0.00  0.00    +0.069 A 
ATOM     26  C   UNL     1      -0.707   3.161  -3.513  0.00  0.00    +0.028 A 
ATOM     27  C   UNL     1      -0.867   4.295  -4.291  0.00  0.00    +0.002 A 
ATOM     28  C   UNL     1      -0.897   5.565  -3.740  0.00  0.00    +0.002 A 
ATOM     29  C   UNL     1      -0.769   5.780  -2.391  0.00  0.00    +0.030 A 
ATOM     30  C   UNL     1      -0.606   4.652  -1.579  0.00  0.00    +0.089 A 
ATOM     31  N   UNL     1      -0.456   4.513  -0.248  0.00  0.00    -0.234 NA
ATOM     32  C   UNL     1      -0.339   3.251   0.046  0.00  0.00    +0.094 A 
ATOM     33  C   UNL     1      -0.159   2.651   1.422  0.00  0.00    -0.003 C 
ATOM     34  H   UNL     1      -1.531   1.099   1.126  0.00  0.00    -0.081 HD
ENDBRANCH  20  21
ENDBRANCH   6  20
TORSDOF 5
