REMARK  Name = ZINC02259894
REMARK  6 active torsions:
REMARK  status: ('A' for Active; 'I' for Inactive)
REMARK    1  A    between atoms: C_1  and  C_2
REMARK    2  A    between atoms: C_2  and  O_3
REMARK    3  A    between atoms: O_3  and  C_4
REMARK    4  A    between atoms: C_4  and  C_6
REMARK    5  A    between atoms: C_9  and  N_12
REMARK    6  A    between atoms: C_13  and  C_15
REMARK                            x       y       z     vdW  Elec       q    Type
REMARK                         _______ _______ _______ _____ _____    ______ ____
ROOT
ATOM      1  C   UNL     1      -0.005   1.077  -0.002  0.00  0.00    +0.176 C 
ATOM      2  C   UNL     1       1.426   1.617  -0.010  0.00  0.00    +0.130 C 
ATOM      3  C   UNL     1       1.391   3.098  -0.300  0.00  0.00    +0.222 C 
ATOM      4  O   UNL     1       2.218   3.838   0.189  0.00  0.00    -0.275 OA
ATOM      5  N   UNL     1       0.430   3.588  -1.109  0.00  0.00    -0.260 N 
ATOM      6  C   UNL     1      -0.500   2.739  -1.671  0.00  0.00    +0.167 C 
ATOM      7  N   UNL     1      -1.206   3.152  -2.780  0.00  0.00    -0.268 N 
ATOM      8  C   UNL     1      -2.066   2.275  -3.419  0.00  0.00    +0.165 A 
ATOM      9  N   UNL     1      -2.403   1.054  -3.074  0.00  0.00    -0.225 NA
ATOM     10  C   UNL     1      -3.266   0.308  -3.797  0.00  0.00    +0.080 A 
ATOM     11  C   UNL     1      -3.713  -1.008  -3.535  0.00  0.00    +0.029 A 
ATOM     12  C   UNL     1      -4.595  -1.629  -4.381  0.00  0.00    +0.002 A 
ATOM     13  C   UNL     1      -5.077  -0.996  -5.518  0.00  0.00    +0.001 A 
ATOM     14  C   UNL     1      -4.661   0.291  -5.804  0.00  0.00    +0.017 A 
ATOM     15  C   UNL     1      -3.779   0.921  -4.962  0.00  0.00    +0.041 A 
ATOM     16  S   UNL     1      -2.994   2.515  -4.927  0.00  0.00    -0.052 S 
ATOM     17  H   UNL     1       0.393   4.539  -1.296  0.00  0.00    +0.157 HD
ATOM     18  H   UNL     1      -1.100   4.056  -3.114  0.00  0.00    +0.157 HD
ATOM     19  N   UNL     1      -0.780   1.515  -1.216  0.00  0.00    -0.349 N 
ATOM     20  H   UNL     1      -1.478   0.911  -1.666  0.00  0.00    +0.163 HD
ENDROOT
BRANCH   1  22
ATOM     21  N   UNL     1      -0.500   0.919   2.417  0.00  0.00    -0.284 N 
ATOM     22  C   UNL     1      -0.711   1.547   1.244  0.00  0.00    +0.240 C 
ATOM     23  O   UNL     1      -1.470   2.492   1.190  0.00  0.00    -0.273 OA
ATOM     24  H   UNL     1       0.157   0.207   2.474  0.00  0.00    +0.155 HD
BRANCH  21  28
ATOM     25  C   UNL     1      -2.663   2.034   5.797  0.00  0.00    +0.059 A 
ATOM     26  C   UNL     1      -2.314   0.694   5.599  0.00  0.00    +0.017 A 
ATOM     27  C   UNL     1      -1.599   0.330   4.481  0.00  0.00    +0.024 A 
ATOM     28  C   UNL     1      -1.224   1.292   3.548  0.00  0.00    +0.033 A 
ATOM     29  C   UNL     1      -1.565   2.627   3.745  0.00  0.00    +0.024 A 
ATOM     30  C   UNL     1      -2.284   2.998   4.858  0.00  0.00    +0.017 A 
BRANCH  25  31
ATOM     31  C   UNL     1      -3.429   2.428   6.994  0.00  0.00    +0.339 C 
ATOM     32  O   UNL     1      -3.757   1.589   7.809  0.00  0.00    -0.245 OA
BRANCH  31  33
ATOM     33  O   UNL     1      -3.765   3.719   7.184  0.00  0.00    -0.461 OA
BRANCH  33  35
ATOM     34  C   UNL     1      -4.805   5.538   8.426  0.00  0.00    +0.048 C 
ATOM     35  C   UNL     1      -4.518   4.035   8.384  0.00  0.00    +0.229 C 
ENDBRANCH  33  35
ENDBRANCH  31  33
ENDBRANCH  25  31
ENDBRANCH  21  28
ENDBRANCH   1  22
TORSDOF 5
