REMARK  Name = ZINC01232296
REMARK  8 active torsions:
REMARK  status: ('A' for Active; 'I' for Inactive)
REMARK    1  A    between atoms: C_6  and  N_11
REMARK    2  A    between atoms: N_11  and  C_12
REMARK    3  A    between atoms: C_12  and  N_14
REMARK    4  A    between atoms: N_14  and  C_15
REMARK    5  A    between atoms: C_15  and  C_17
REMARK    6  A    between atoms: C_15  and  N_21
REMARK    7  A    between atoms: C_22  and  C_24
REMARK    8  A    between atoms: C_29  and  N_30
REMARK                            x       y       z     vdW  Elec       q    Type
REMARK                         _______ _______ _______ _____ _____    ______ ____
ROOT
ATOM      1  C   UNL     1       3.388   9.809   0.410  0.00  0.00    +0.211 C 
ENDROOT
BRANCH   1   2
ATOM      2  C   UNL     1       3.094  10.986  -0.523  0.00  0.00    +0.225 C 
ATOM      3 CL   UNL     1       1.586  11.816   0.013  0.00  0.00    -0.080 Cl
ATOM      4 CL   UNL     1       4.471  12.149  -0.474  0.00  0.00    -0.080 Cl
ATOM      5 CL   UNL     1       2.879  10.379  -2.207  0.00  0.00    -0.080 Cl
ENDBRANCH   1   2
BRANCH   1   6
ATOM      6  N   UNL     1       3.562  10.302   1.778  0.00  0.00    -0.289 N 
ATOM      7  C   UNL     1       4.584   9.851   2.532  0.00  0.00    +0.248 C 
ATOM      8  O   UNL     1       5.361   9.034   2.076  0.00  0.00    -0.270 OA
ATOM      9  H   UNL     1       2.942  10.953   2.142  0.00  0.00    +0.151 HD
BRANCH   7  10
ATOM     10  C   UNL     1       4.760  10.348   3.913  0.00  0.00    +0.067 A 
ATOM     11  C   UNL     1       3.723  10.228   4.839  0.00  0.00    +0.015 A 
ATOM     12  C   UNL     1       3.896  10.690   6.127  0.00  0.00    +0.001 A 
ATOM     13  C   UNL     1       5.090  11.281   6.499  0.00  0.00    +0.002 A 
ATOM     14  C   UNL     1       6.120  11.409   5.585  0.00  0.00    +0.033 A 
ATOM     15  C   UNL     1       5.963  10.946   4.294  0.00  0.00    +0.138 A 
BRANCH  15  16
ATOM     16  N   UNL     1       7.066  11.083   3.317  0.00  0.00    +0.057 N 
ATOM     17  O   UNL     1       8.096  11.648   3.637  0.00  0.00    -0.126 OA
ATOM     18  O   UNL     1       6.943  10.631   2.193  0.00  0.00    -0.126 OA
ENDBRANCH  15  16
ENDBRANCH   7  10
ENDBRANCH   1   6
BRANCH   1  19
ATOM     19  N   UNL     1       2.269   8.864   0.370  0.00  0.00    -0.305 N 
ATOM     20  H   UNL     1       1.357   9.190   0.415  0.00  0.00    +0.150 HD
BRANCH  19  21
ATOM     21  C   UNL     1       2.508   7.541   0.271  0.00  0.00    +0.136 C 
ATOM     22  S   UNL     1       4.118   6.965   0.191  0.00  0.00    -0.019 S 
BRANCH  21  23
ATOM     23  N   UNL     1       1.479   6.671   0.235  0.00  0.00    -0.297 N 
ATOM     24  H   UNL     1       0.567   7.000   0.211  0.00  0.00    +0.154 HD
BRANCH  23  30
ATOM     25  C   UNL     1       1.782   0.365   1.008  0.00  0.00    +0.001 A 
ATOM     26  C   UNL     1       0.798   0.879   1.851  0.00  0.00    +0.001 A 
ATOM     27  C   UNL     1       0.533   2.213   1.887  0.00  0.00    +0.008 A 
ATOM     28  C   UNL     1       1.252   3.088   1.054  0.00  0.00    -0.016 A 
ATOM     29  C   UNL     1       1.001   4.470   1.061  0.00  0.00    +0.031 A 
ATOM     30  C   UNL     1       1.726   5.295   0.231  0.00  0.00    +0.033 A 
ATOM     31  C   UNL     1       2.709   4.770  -0.617  0.00  0.00    +0.024 A 
ATOM     32  C   UNL     1       2.971   3.437  -0.642  0.00  0.00    +0.010 A 
ATOM     33  C   UNL     1       2.249   2.565   0.193  0.00  0.00    -0.018 A 
ATOM     34  C   UNL     1       2.499   1.182   0.188  0.00  0.00    +0.008 A 
ENDBRANCH  23  30
ENDBRANCH  21  23
ENDBRANCH  19  21
ENDBRANCH   1  19
TORSDOF 8
