REMARK  Name = ZINC44989444
REMARK  6 active torsions:
REMARK  status: ('A' for Active; 'I' for Inactive)
REMARK    1  A    between atoms: C_1  and  C_2
REMARK    2  A    between atoms: C_2  and  C_4
REMARK    3  A    between atoms: C_2  and  N_14
REMARK    4  A    between atoms: C_4  and  N_5
REMARK    5  A    between atoms: N_5  and  C_6
REMARK    6  A    between atoms: C_9  and  N_13
REMARK                            x       y       z     vdW  Elec       q    Type
REMARK                         _______ _______ _______ _____ _____    ______ ____
ROOT
ATOM      1  N   UNL     1       1.111  -1.924  -1.126  0.00  0.00    -0.345 N 
ATOM      2  H   UNL     1       0.732  -2.437  -0.395  0.00  0.00    +0.146 HD
ENDROOT
BRANCH   1   3
ATOM      3  C   UNL     1       1.928  -2.554  -2.073  0.00  0.00    +0.041 A 
ATOM      4  C   UNL     1       2.475  -1.820  -3.116  0.00  0.00    +0.026 A 
ATOM      5  C   UNL     1       3.280  -2.441  -4.050  0.00  0.00    +0.024 A 
ATOM      6  C   UNL     1       3.543  -3.801  -3.946  0.00  0.00    +0.026 A 
ATOM      7  C   UNL     1       2.996  -4.536  -2.904  0.00  0.00    +0.039 A 
ATOM      8  C   UNL     1       2.195  -3.913  -1.966  0.00  0.00    +0.040 A 
ATOM      9 BR   UNL     1       1.456  -4.913  -0.540  0.00  0.00    -0.048 Br
BRANCH   6  10
ATOM     10  N   UNL     1       4.359  -4.431  -4.894  0.00  0.00    -0.358 N 
ATOM     11  H   UNL     1       4.741  -3.917  -5.623  0.00  0.00    +0.142 HD
ATOM     12  H   UNL     1       4.543  -5.380  -4.821  0.00  0.00    +0.142 HD
ENDBRANCH   6  10
ENDBRANCH   1   3
BRANCH   1  13
ATOM     13  C   UNL     1       0.830  -0.491  -1.239  0.00  0.00    +0.086 C 
BRANCH  13  15
ATOM     14  C   UNL     1      -0.166   1.486  -0.080  0.00  0.00    -0.012 C 
ATOM     15  C   UNL     1       0.029  -0.030  -0.019  0.00  0.00    -0.054 C 
BRANCH  15  16
ATOM     16  N   UNL     1       0.758  -0.382   1.206  0.00  0.00    +0.382 N 
ATOM     17  C   UNL     1      -0.074  -0.073   2.375  0.00  0.00    -0.078 C 
ATOM     18  C   UNL     1       0.648  -0.511   3.651  0.00  0.00    -0.019 C 
ATOM     19  C   UNL     1       1.980   0.236   3.759  0.00  0.00    -0.004 C 
ATOM     20  C   UNL     1       2.810  -0.034   2.501  0.00  0.00    -0.019 C 
ATOM     21  C   UNL     1       2.007   0.387   1.268  0.00  0.00    -0.078 C 
ATOM     22  H   UNL     1       0.971  -1.368   1.199  0.00  0.00    -0.081 HD
ENDBRANCH  15  16
ENDBRANCH  13  15
ENDBRANCH   1  13
TORSDOF 5
