REMARK  Name = ZINC41598976
REMARK  6 active torsions:
REMARK  status: ('A' for Active; 'I' for Inactive)
REMARK    1  A    between atoms: C_1  and  C_2
REMARK    2  A    between atoms: C_2  and  C_4
REMARK    3  A    between atoms: C_2  and  N_23
REMARK    4  A    between atoms: C_4  and  N_5
REMARK    5  A    between atoms: C_6  and  C_8
REMARK    6  A    between atoms: N_10  and  C_11
REMARK                            x       y       z     vdW  Elec       q    Type
REMARK                         _______ _______ _______ _____ _____    ______ ____
ROOT
ATOM      1  C   UNL     1       0.783  -4.202   2.405  0.00  0.00    +0.303 C 
ATOM      2  O   UNL     1       0.167  -4.763   1.523  0.00  0.00    -0.265 OA
ATOM      3  N   UNL     1       1.271  -4.911   3.442  0.00  0.00    -0.276 N 
ATOM      4  H   UNL     1       1.829  -4.477   4.107  0.00  0.00    +0.155 HD
ENDROOT
BRANCH   3   5
ATOM      5  C   UNL     1       0.974  -6.272   3.561  0.00  0.00    +0.056 A 
ATOM      6  C   UNL     1      -0.172  -6.786   2.965  0.00  0.00    +0.072 A 
ATOM      7  C   UNL     1      -0.465  -8.133   3.084  0.00  0.00    +0.144 A 
ATOM      8  C   UNL     1       0.390  -8.970   3.800  0.00  0.00    +0.077 A 
ATOM      9  C   UNL     1       1.532  -8.456   4.393  0.00  0.00    +0.048 A 
ATOM     10  C   UNL     1       1.827  -7.111   4.269  0.00  0.00    +0.064 A 
ATOM     11 CL   UNL     1       3.261  -6.466   5.005  0.00  0.00    -0.082 Cl
ATOM     12  N   UNL     1       0.078 -10.334   3.912  0.00  0.00    -0.280 N 
ATOM     13  C   UNL     1      -0.845 -10.864   3.081  0.00  0.00    +0.255 C 
ATOM     14  O   UNL     1      -1.153 -12.034   3.180  0.00  0.00    -0.272 OA
ATOM     15  C   UNL     1      -1.492  -9.998   2.031  0.00  0.00    +0.325 C 
ATOM     16  O   UNL     1      -1.581  -8.652   2.506  0.00  0.00    -0.481 OA
ATOM     17  H   UNL     1       0.519 -10.887   4.576  0.00  0.00    +0.155 HD
ENDBRANCH   3   5
BRANCH   1  19
ATOM     18  N   UNL     1       0.512  -2.017   1.306  0.00  0.00    -0.309 N 
ATOM     19  C   UNL     1       1.000  -2.726   2.342  0.00  0.00    +0.299 C 
ATOM     20  O   UNL     1       1.616  -2.165   3.225  0.00  0.00    -0.265 OA
ATOM     21  H   UNL     1       0.019  -2.465   0.600  0.00  0.00    +0.149 HD
BRANCH  18  22
ATOM     22  C   UNL     1       0.725  -0.569   1.244  0.00  0.00    +0.089 C 
BRANCH  22  24
ATOM     23  C   UNL     1       0.584  -0.532  -1.251  0.00  0.00    -0.012 C 
ATOM     24  C   UNL     1      -0.029   0.007   0.043  0.00  0.00    -0.054 C 
BRANCH  24  25
ATOM     25  N   UNL     1       0.070   1.472   0.059  0.00  0.00    +0.382 N 
ATOM     26  C   UNL     1      -0.811   2.057  -0.984  0.00  0.00    -0.078 C 
ATOM     27  C   UNL     1      -1.034   3.508  -0.488  0.00  0.00    -0.020 C 
ATOM     28  C   UNL     1      -1.131   3.337   1.046  0.00  0.00    -0.020 C 
ATOM     29  C   UNL     1      -0.423   2.003   1.348  0.00  0.00    -0.078 C 
ATOM     30  H   UNL     1       1.026   1.758  -0.093  0.00  0.00    -0.081 HD
ENDBRANCH  24  25
ENDBRANCH  22  24
ENDBRANCH  18  22
ENDBRANCH   1  19
TORSDOF 5
