REMARK  Name = ZINC33633389
REMARK  13 active torsions:
REMARK  status: ('A' for Active; 'I' for Inactive)
REMARK    1  A    between atoms: C_1  and  C_2
REMARK    2  A    between atoms: C_2  and  C_3
REMARK    3  A    between atoms: C_2  and  C_4
REMARK    4  A    between atoms: C_2  and  C_5
REMARK    5  A    between atoms: C_5  and  C_6
REMARK    6  A    between atoms: C_6  and  C_8
REMARK    7  A    between atoms: C_6  and  N_23
REMARK    8  A    between atoms: C_8  and  N_10
REMARK    9  A    between atoms: C_8  and  O_15
REMARK   10  A    between atoms: O_15  and  C_16
REMARK   11  A    between atoms: N_23  and  C_37
REMARK   12  A    between atoms: N_30  and  C_34
REMARK   13  A    between atoms: C_34  and  C_35
REMARK                            x       y       z     vdW  Elec       q    Type
REMARK                         _______ _______ _______ _____ _____    ______ ____
ROOT
ATOM      1  C   UNL     1      -1.754   2.818  -1.250  0.00  0.00    +0.138 C 
ENDROOT
BRANCH   1   2
ATOM      2  N   UNL     1      -2.123   1.570  -1.924  0.00  0.00    -0.315 N 
ATOM      3  C   UNL     1      -1.260   0.958  -2.667  0.00  0.00    +0.092 C 
ATOM      4  C   UNL     1      -1.430  -0.356  -3.377  0.00  0.00    +0.089 C 
ATOM      5  C   UNL     1      -2.618  -0.328  -4.351  0.00  0.00    +0.033 C 
ATOM      6  C   UNL     1      -2.999  -1.815  -4.521  0.00  0.00    +0.003 C 
ATOM      7  C   UNL     1      -2.458  -2.555  -3.284  0.00  0.00    +0.003 C 
ATOM      8  C   UNL     1      -1.765  -1.493  -2.401  0.00  0.00    +0.033 C 
ATOM      9  N   UNL     1      -0.164  -0.583  -4.066  0.00  0.00    -0.287 N 
ATOM     10  C   UNL     1       0.625   0.473  -3.780  0.00  0.00    +0.139 C 
ATOM     11  S   UNL     1       2.221   0.654  -4.370  0.00  0.00    -0.018 S 
ATOM     12  N   UNL     1       0.019   1.369  -2.987  0.00  0.00    -0.287 N 
ATOM     13  C   UNL     1      -3.469   1.017  -1.757  0.00  0.00    +0.130 C 
ATOM     14  H   UNL     1       0.405   2.322  -2.596  0.00  0.00    +0.155 HD
BRANCH   9  15
ATOM     15  C   UNL     1       0.183  -1.733  -4.904  0.00  0.00    +0.226 C 
BRANCH  15  16
ATOM     16  C   UNL     1      -0.188  -1.452  -6.301  0.00  0.00    +0.082 C 
ATOM     17  N   UNL     1      -0.475  -1.236  -7.378  0.00  0.00    -0.195 NA
ENDBRANCH  15  16
ENDBRANCH   9  15
ENDBRANCH   1   2
BRANCH   1  18
ATOM     18  C   UNL     1      -2.780   3.901  -1.586  0.00  0.00    +0.034 C 
BRANCH  18  20
ATOM     19  C   UNL     1      -3.107   3.054  -3.914  0.00  0.00    +0.010 C 
ATOM     20  C   UNL     1      -2.679   4.257  -3.071  0.00  0.00    -0.036 C 
ATOM     21  C   UNL     1      -3.595   5.445  -3.374  0.00  0.00    +0.010 C 
ATOM     22  C   UNL     1      -1.233   4.628  -3.409  0.00  0.00    +0.010 C 
ENDBRANCH  18  20
ENDBRANCH   1  18
BRANCH   1  23
ATOM     23  C   UNL     1      -1.728   2.591   0.263  0.00  0.00    +0.314 C 
BRANCH  23  24
ATOM     24  N   UNL     1      -0.746   1.553   0.585  0.00  0.00    -0.211 N 
ATOM     25  C   UNL     1       0.539   1.723   0.758  0.00  0.00    +0.223 A 
ATOM     26  N   UNL     1       1.098   0.545   1.030  0.00  0.00    -0.223 NA
ATOM     27  C   UNL     1       0.183  -0.390   1.035  0.00  0.00    +0.245 A 
ATOM     28  N   UNL     1      -1.001   0.183   0.760  0.00  0.00    -0.155 NA
ENDBRANCH  23  24
BRANCH  23  29
ATOM     29  O   UNL     1      -1.369   3.808   0.920  0.00  0.00    -0.465 OA
BRANCH  29  30
ATOM     30  C   UNL     1      -1.778   3.958   2.208  0.00  0.00    +0.124 A 
ATOM     31  C   UNL     1      -2.403   2.907   2.865  0.00  0.00    +0.047 A 
ATOM     32  C   UNL     1      -2.814   3.060   4.175  0.00  0.00    +0.023 A 
ATOM     33  C   UNL     1      -2.612   4.263   4.828  0.00  0.00    +0.041 A 
ATOM     34  C   UNL     1      -1.994   5.313   4.173  0.00  0.00    +0.023 A 
ATOM     35  C   UNL     1      -1.577   5.163   2.865  0.00  0.00    +0.047 A 
ATOM     36 CL   UNL     1      -3.136   4.454   6.473  0.00  0.00    -0.084 Cl
ENDBRANCH  29  30
ENDBRANCH  23  29
ENDBRANCH   1  23
TORSDOF 9
