REMARK  Name = ZINC23131830
REMARK  4 active torsions:
REMARK  status: ('A' for Active; 'I' for Inactive)
REMARK    1  A    between atoms: C_3  and  N_9
REMARK    2  A    between atoms: C_10  and  C_12
REMARK    3  A    between atoms: C_12  and  C_13
REMARK    4  A    between atoms: C_13  and  N_14
REMARK                            x       y       z     vdW  Elec       q    Type
REMARK                         _______ _______ _______ _____ _____    ______ ____
ROOT
ATOM      1  N   UNL     1       0.585  -0.664  -1.018  0.00  0.00    -0.283 N 
ATOM      2  C   UNL     1      -0.004  -0.005  -0.001  0.00  0.00    +0.219 C 
ATOM      3  O   UNL     1      -0.510  -0.624   0.911  0.00  0.00    -0.275 OA
ATOM      4  H   UNL     1       0.978  -0.107  -1.881  0.00  0.00    +0.155 HD
ENDROOT
BRANCH   1   7
ATOM      5  C   UNL     1      -0.192  -4.197  -0.349  0.00  0.00    +0.022 A 
ATOM      6  C   UNL     1      -0.304  -2.821  -0.390  0.00  0.00    +0.027 A 
ATOM      7  C   UNL     1       0.697  -2.060  -0.976  0.00  0.00    +0.069 A 
ATOM      8  C   UNL     1       1.810  -2.687  -1.526  0.00  0.00    +0.146 A 
ATOM      9  C   UNL     1       1.920  -4.064  -1.478  0.00  0.00    +0.060 A 
ATOM     10  C   UNL     1       0.918  -4.819  -0.893  0.00  0.00    +0.044 A 
ATOM     11 CL   UNL     1       1.055  -6.549  -0.840  0.00  0.00    -0.083 Cl
ATOM     12  F   UNL     1       2.785  -1.950  -2.103  0.00  0.00    -0.203 F 
ENDBRANCH   1   7
BRANCH   2  13
ATOM     13  C   UNL     1      -0.036   1.502   0.001  0.00  0.00    +0.119 C 
BRANCH  13  14
ATOM     14  C   UNL     1      -0.758   1.995   1.257  0.00  0.00    +0.157 C 
BRANCH  14  15
ATOM     15  N   UNL     1      -0.789   3.459   1.260  0.00  0.00    -0.226 N 
ATOM     16  C   UNL     1       0.260   4.144   1.753  0.00  0.00    +0.267 A 
ATOM     17  O   UNL     1       1.224   3.547   2.191  0.00  0.00    -0.266 OA
ATOM     18  C   UNL     1       0.242   5.622   1.756  0.00  0.00    +0.077 A 
ATOM     19  C   UNL     1      -0.836   6.264   1.271  0.00  0.00    +0.079 A 
ATOM     20  C   UNL     1      -1.967   5.471   0.745  0.00  0.00    +0.287 A 
ATOM     21  O   UNL     1      -2.949   6.034   0.302  0.00  0.00    -0.264 OA
ATOM     22  N   UNL     1      -1.909   4.126   0.756  0.00  0.00    -0.126 NA
ENDBRANCH  14  15
ENDBRANCH  13  14
ENDBRANCH   2  13
TORSDOF 4
