REMARK  Name = ZINC44021037
REMARK  12 active torsions:
REMARK  status: ('A' for Active; 'I' for Inactive)
REMARK    1  A    between atoms: C_1  and  C_2
REMARK    2  A    between atoms: C_1  and  O_36
REMARK    3  A    between atoms: C_4  and  O_14
REMARK    4  A    between atoms: C_6  and  O_13
REMARK    5  A    between atoms: C_8  and  C_11
REMARK    6  A    between atoms: O_14  and  C_15
REMARK    7  A    between atoms: C_17  and  O_31
REMARK    8  A    between atoms: C_19  and  O_30
REMARK    9  A    between atoms: C_21  and  O_29
REMARK   10  A    between atoms: C_23  and  C_26
REMARK   11  A    between atoms: O_31  and  S_32
REMARK   12  A    between atoms: O_36  and  S_37
REMARK                            x       y       z     vdW  Elec       q    Type
REMARK                         _______ _______ _______ _____ _____    ______ ____
ROOT
ATOM      1  C   UNL     1      -3.104  -0.817  -1.812  0.00  0.00    +0.286 C 
ATOM      2  C   UNL     1      -3.277  -1.156  -3.294  0.00  0.00    +0.238 C 
ATOM      3  C   UNL     1      -2.875  -2.616  -3.526  0.00  0.00    +0.182 C 
ATOM      4  C   UNL     1      -3.720  -3.517  -2.621  0.00  0.00    +0.186 C 
ATOM      5  C   UNL     1      -3.531  -3.086  -1.164  0.00  0.00    +0.265 C 
ATOM      6  O   UNL     1      -3.894  -1.711  -1.024  0.00  0.00    -0.331 OA
ENDROOT
BRANCH   5   7
ATOM      7  C   UNL     1      -4.405  -3.930  -0.273  0.00  0.00    +0.387 C 
ATOM      8  O   UNL     1      -4.199  -5.128  -0.174  0.00  0.00    -0.243 OA
ATOM      9  O   UNL     1      -5.318  -3.415   0.349  0.00  0.00    -0.243 OA
ENDBRANCH   5   7
BRANCH   4  10
ATOM     10  O   UNL     1      -5.098  -3.396  -2.981  0.00  0.00    -0.386 OA
ATOM     11  H   UNL     1      -5.693  -3.941  -2.447  0.00  0.00    +0.210 HD
ENDBRANCH   4  10
BRANCH   3  12
ATOM     12  O   UNL     1      -3.100  -2.962  -4.894  0.00  0.00    -0.386 OA
ATOM     13  H   UNL     1      -2.866  -3.875  -5.112  0.00  0.00    +0.210 HD
ENDBRANCH   3  12
BRANCH   1  14
ATOM     14  O   UNL     1      -1.729  -0.950  -1.449  0.00  0.00    -0.340 OA
BRANCH  14  16
ATOM     15  C   UNL     1       0.002  -0.004   0.002  0.00  0.00    +0.179 C 
ATOM     16  C   UNL     1      -1.439  -0.547  -0.109  0.00  0.00    +0.184 C 
ATOM     17  C   UNL     1      -1.405  -1.771   0.846  0.00  0.00    +0.182 C 
ATOM     18  C   UNL     1      -0.428  -1.265   1.937  0.00  0.00    +0.212 C 
ATOM     19  O   UNL     1       0.556  -0.489   1.231  0.00  0.00    -0.358 OA
BRANCH  18  20
ATOM     20  C   UNL     1       0.226  -2.430   2.634  0.00  0.00    +0.257 C 
ATOM     21  O   UNL     1       1.427  -2.552   2.609  0.00  0.00    -0.298 OA
ENDBRANCH  18  20
BRANCH  17  22
ATOM     22  O   UNL     1      -2.698  -2.034   1.393  0.00  0.00    -0.386 OA
ATOM     23  H   UNL     1      -2.724  -2.790   1.996  0.00  0.00    +0.210 HD
ENDBRANCH  17  22
BRANCH  15  24
ATOM     24  C   UNL     1      -0.019   1.526   0.010  0.00  0.00    +0.230 C 
BRANCH  24  25
ATOM     25  O   UNL     1       1.322   2.020   0.000  0.00  0.00    -0.211 OA
BRANCH  25  26
ATOM     26  S   UNL     1       1.421   3.539   0.007  0.00  0.00    +0.238 S 
ATOM     27  O   UNL     1       2.787   3.875  -0.364  0.00  0.00    -0.116 OA
ATOM     28  O   UNL     1       0.458   4.030  -0.965  0.00  0.00    -0.116 OA
ATOM     29  O   UNL     1       1.103   3.977   1.357  0.00  0.00    -0.022 OA
ENDBRANCH  25  26
ENDBRANCH  24  25
ENDBRANCH  15  24
ENDBRANCH  14  16
ENDBRANCH   1  14
BRANCH   2  30
ATOM     30  O   UNL     1      -2.446  -0.300  -4.080  0.00  0.00    -0.203 OA
BRANCH  30  31
ATOM     31  S   UNL     1      -3.157   0.936  -4.612  0.00  0.00    +0.239 S 
ATOM     32  O   UNL     1      -2.312   1.494  -5.656  0.00  0.00    -0.116 OA
ATOM     33  O   UNL     1      -4.442   0.493  -5.131  0.00  0.00    -0.116 OA
ATOM     34  O   UNL     1      -3.310   1.851  -3.491  0.00  0.00    -0.022 OA
ENDBRANCH  30  31
ENDBRANCH   2  30
TORSDOF 12
