REMARK  Name = ZINC13622128
REMARK  14 active torsions:
REMARK  status: ('A' for Active; 'I' for Inactive)
REMARK    1  A    between atoms: C_1  and  C_2
REMARK    2  A    between atoms: C_2  and  N_60
REMARK    3  A    between atoms: C_3  and  C_4
REMARK    4  A    between atoms: C_3  and  N_60
REMARK    5  A    between atoms: C_5  and  C_6
REMARK    6  A    between atoms: C_5  and  N_60
REMARK    7  A    between atoms: C_6  and  N_7
REMARK    8  A    between atoms: C_8  and  C_10
REMARK    9  A    between atoms: C_13  and  N_16
REMARK   10  A    between atoms: N_16  and  C_17
REMARK   11  A    between atoms: C_17  and  N_19
REMARK   12  A    between atoms: C_20  and  C_22
REMARK   13  A    between atoms: C_23  and  C_24
REMARK   14  A    between atoms: C_27  and  N_30
REMARK                            x       y       z     vdW  Elec       q    Type
REMARK                         _______ _______ _______ _____ _____    ______ ____
ROOT
ATOM      1  N   UNL     1      -5.744   0.076  -2.933  0.00  0.00    -0.297 N 
ATOM      2  H   UNL     1      -6.230  -0.504  -2.326  0.00  0.00    +0.154 HD
ENDROOT
BRANCH   1   6
ATOM      3  C   UNL     1      -2.110   1.739  -1.761  0.00  0.00    +0.037 A 
ATOM      4  C   UNL     1      -2.401   0.406  -1.458  0.00  0.00    +0.015 A 
ATOM      5  C   UNL     1      -3.605  -0.139  -1.841  0.00  0.00    +0.024 A 
ATOM      6  C   UNL     1      -4.528   0.632  -2.541  0.00  0.00    +0.033 A 
ATOM      7  C   UNL     1      -4.239   1.958  -2.850  0.00  0.00    +0.024 A 
ATOM      8  C   UNL     1      -3.039   2.511  -2.464  0.00  0.00    +0.015 A 
BRANCH   3  10
ATOM      9  N   UNL     1       0.072   1.583  -0.667  0.00  0.00    -0.313 N 
ATOM     10  C   UNL     1      -0.823   2.328  -1.345  0.00  0.00    +0.244 C 
ATOM     11  O   UNL     1      -0.570   3.487  -1.614  0.00  0.00    -0.270 OA
ATOM     12  H   UNL     1      -0.130   0.658  -0.453  0.00  0.00    +0.149 HD
BRANCH   9  13
ATOM     13  C   UNL     1       1.353   2.166  -0.260  0.00  0.00    +0.086 C 
BRANCH  13  14
ATOM     14  C   UNL     1       2.179   1.114   0.482  0.00  0.00    -0.060 C 
BRANCH  14  15
ATOM     15  N   UNL     1       3.475   1.711   0.868  0.00  0.00    +0.380 N 
ATOM     16  H   UNL     1       3.906   2.137   0.039  0.00  0.00    -0.082 HD
BRANCH  15  18
ATOM     17  C   UNL     1       2.635   2.157   3.150  0.00  0.00    -0.017 C 
ATOM     18  C   UNL     1       3.265   2.757   1.891  0.00  0.00    -0.082 C 
ENDBRANCH  15  18
BRANCH  15  19
ATOM     19  C   UNL     1       4.377   0.664   1.393  0.00  0.00    -0.082 C 
ATOM     20  C   UNL     1       5.802   1.220   1.439  0.00  0.00    -0.017 C 
ENDBRANCH  15  19
ENDBRANCH  14  15
ENDBRANCH  13  14
ENDBRANCH   9  13
ENDBRANCH   3  10
ENDBRANCH   1   6
BRANCH   1  21
ATOM     21  C   UNL     1      -6.244   0.343  -4.156  0.00  0.00    +0.141 C 
ATOM     22  S   UNL     1      -5.320   1.245  -5.280  0.00  0.00    -0.018 S 
BRANCH  21  23
ATOM     23  N   UNL     1      -7.471  -0.101  -4.494  0.00  0.00    -0.264 N 
ATOM     24  C   UNL     1      -7.971   0.166  -5.717  0.00  0.00    +0.242 C 
ATOM     25  O   UNL     1      -7.314   0.807  -6.516  0.00  0.00    -0.270 OA
ATOM     26  H   UNL     1      -7.994  -0.612  -3.857  0.00  0.00    +0.157 HD
BRANCH  24  27
ATOM     27  C   UNL     1      -9.303  -0.316  -6.084  0.00  0.00    +0.068 C 
ATOM     28  C   UNL     1      -9.803  -0.049  -7.307  0.00  0.00    +0.013 C 
BRANCH  28  29
ATOM     29  C   UNL     1     -11.143  -0.533  -7.676  0.00  0.00    -0.025 A 
ATOM     30  C   UNL     1     -11.899  -1.275  -6.763  0.00  0.00    +0.010 A 
ATOM     31  C   UNL     1     -13.155  -1.721  -7.114  0.00  0.00    +0.033 A 
ATOM     32  C   UNL     1     -13.665  -1.445  -8.371  0.00  0.00    +0.126 A 
ATOM     33  C   UNL     1     -12.922  -0.716  -9.282  0.00  0.00    +0.033 A 
ATOM     34  C   UNL     1     -11.666  -0.258  -8.944  0.00  0.00    +0.010 A 
BRANCH  32  35
ATOM     35  N   UNL     1     -15.013  -1.932  -8.742  0.00  0.00    +0.056 N 
ATOM     36  O   UNL     1     -15.465  -1.691  -9.847  0.00  0.00    -0.126 OA
ATOM     37  O   UNL     1     -15.670  -2.574  -7.942  0.00  0.00    -0.126 OA
ENDBRANCH  32  35
ENDBRANCH  28  29
ENDBRANCH  24  27
ENDBRANCH  21  23
ENDBRANCH   1  21
TORSDOF 12
