REMARK  Name = ZINC43448956
REMARK  6 active torsions:
REMARK  status: ('A' for Active; 'I' for Inactive)
REMARK    1  A    between atoms: C_1  and  C_2
REMARK    2  A    between atoms: C_7  and  N_8
REMARK    3  A    between atoms: N_11  and  C_12
REMARK    4  A    between atoms: C_12  and  C_13
REMARK    5  A    between atoms: N_19  and  C_20
REMARK    6  A    between atoms: N_19  and  C_21
REMARK                            x       y       z     vdW  Elec       q    Type
REMARK                         _______ _______ _______ _____ _____    ______ ____
ROOT
ATOM      1  N   UNL     1       0.025  -0.014   2.417  0.00  0.00    -0.269 N 
ATOM      2  C   UNL     1      -0.057  -0.693   3.578  0.00  0.00    +0.304 C 
ATOM      3  O   UNL     1      -0.040  -1.909   3.574  0.00  0.00    -0.252 OA
ATOM      4  N   UNL     1      -0.157  -0.025   4.745  0.00  0.00    -0.295 N 
ATOM      5  H   UNL     1       0.077   0.955   2.425  0.00  0.00    +0.156 HD
ATOM      6  H   UNL     1      -0.170   0.945   4.748  0.00  0.00    +0.151 HD
ENDROOT
BRANCH   1  13
ATOM      7  C   UNL     1      -1.266   1.182   0.181  0.00  0.00    +0.046 C 
ATOM      8  C   UNL     1      -0.585  -0.158   0.085  0.00  0.00    -0.028 A 
ATOM      9  C   UNL     1      -0.570  -0.841  -1.116  0.00  0.00    +0.020 A 
ATOM     10  C   UNL     1       0.056  -2.072  -1.206  0.00  0.00    +0.018 A 
ATOM     11  C   UNL     1       0.668  -2.622  -0.094  0.00  0.00    +0.017 A 
ATOM     12  C   UNL     1       0.656  -1.944   1.109  0.00  0.00    +0.025 A 
ATOM     13  C   UNL     1       0.034  -0.706   1.200  0.00  0.00    +0.038 A 
ATOM     14 BR   UNL     1       0.073  -3.004  -2.851  0.00  0.00    -0.050 Br
ENDBRANCH   1  13
BRANCH   4  15
ATOM     15  C   UNL     1      -0.245  -0.764   6.007  0.00  0.00    +0.141 C 
BRANCH  15  16
ATOM     16  C   UNL     1      -0.348   0.210   7.152  0.00  0.00    -0.026 A 
ATOM     17  C   UNL     1       0.794   0.689   7.781  0.00  0.00    +0.023 A 
ATOM     18  C   UNL     1       0.666   1.580   8.827  0.00  0.00    +0.084 A 
ATOM     19  N   UNL     1      -0.524   1.980   9.234  0.00  0.00    -0.350 N 
ATOM     20  C   UNL     1      -1.636   1.546   8.661  0.00  0.00    +0.098 A 
ATOM     21  C   UNL     1      -1.581   0.651   7.597  0.00  0.00    +0.047 A 
ATOM     22  N   UNL     1      -2.869   1.993   9.122  0.00  0.00    -0.323 N 
ATOM     23  C   UNL     1      -2.934   2.940  10.238  0.00  0.00    +0.130 C 
ATOM     24  C   UNL     1      -4.103   1.517   8.493  0.00  0.00    +0.130 C 
ATOM     25  H   UNL     1      -0.586   2.607   9.972  0.00  0.00    +0.166 HD
ENDBRANCH  15  16
ENDBRANCH   4  15
TORSDOF 3
