REMARK  Name = ZINC37020250
REMARK  5 active torsions:
REMARK  status: ('A' for Active; 'I' for Inactive)
REMARK    1  A    between atoms: C_5  and  O_18
REMARK    2  A    between atoms: C_6  and  N_7
REMARK    3  A    between atoms: C_8  and  C_10
REMARK    4  A    between atoms: C_13  and  O_17
REMARK    5  A    between atoms: O_18  and  C_19
REMARK                            x       y       z     vdW  Elec       q    Type
REMARK                         _______ _______ _______ _____ _____    ______ ____
ROOT
ATOM      1  N   UNL     1      -1.201  -0.723   0.010  0.00  0.00    -0.284 N 
ATOM      2  C   UNL     1      -2.374  -0.071   0.127  0.00  0.00    +0.203 C 
ATOM      3  O   UNL     1      -2.397   1.142   0.134  0.00  0.00    -0.277 OA
ATOM      4  H   UNL     1      -1.188  -1.690  -0.060  0.00  0.00    +0.155 HD
ENDROOT
BRANCH   1  10
ATOM      5  C   UNL     1       0.053   1.247  -0.608  0.00  0.00    +0.047 A 
ATOM      6  C   UNL     1       1.241   1.956  -0.626  0.00  0.00    +0.044 A 
ATOM      7  C   UNL     1       2.379   1.421  -0.049  0.00  0.00    +0.039 A 
ATOM      8  C   UNL     1       2.334   0.174   0.549  0.00  0.00    +0.063 A 
ATOM      9  C   UNL     1       1.147  -0.542   0.571  0.00  0.00    +0.162 A 
ATOM     10  C   UNL     1       0.001  -0.003  -0.010  0.00  0.00    +0.078 A 
ATOM     11 BR   UNL     1       3.891  -0.553   1.336  0.00  0.00    -0.046 Br
ATOM     12 CL   UNL     1       1.304   3.521  -1.376  0.00  0.00    -0.083 Cl
BRANCH   9  13
ATOM     13  O   UNL     1       1.102  -1.768   1.158  0.00  0.00    -0.431 OA
BRANCH  13  14
ATOM     14  C   UNL     1       0.773  -1.810   2.548  0.00  0.00    +0.541 C 
ATOM     15  F   UNL     1       1.721  -1.080   3.274  0.00  0.00    -0.166 F 
ATOM     16  F   UNL     1      -0.495  -1.252   2.745  0.00  0.00    -0.166 F 
ENDBRANCH  13  14
ENDBRANCH   9  13
ENDBRANCH   1  10
BRANCH   2  17
ATOM     17  C   UNL     1      -3.660  -0.849   0.249  0.00  0.00    +0.019 C 
ATOM     18  C   UNL     1      -3.872  -1.312   1.706  0.00  0.00    +0.023 C 
ATOM     19  C   UNL     1      -5.390  -1.186   1.950  0.00  0.00    +0.097 C 
ATOM     20  C   UNL     1      -5.967  -0.657   0.619  0.00  0.00    -0.050 C 
ATOM     21  N   UNL     1      -4.824   0.026  -0.042  0.00  0.00    +0.388 N 
ATOM     22  H   UNL     1      -4.685   0.943   0.356  0.00  0.00    -0.085 HD
ATOM     23  H   UNL     1      -4.977   0.091  -1.037  0.00  0.00    -0.085 HD
BRANCH  19  24
ATOM     24  O   UNL     1      -5.950  -2.463   2.263  0.00  0.00    -0.394 OA
ATOM     25  H   UNL     1      -6.903  -2.445   2.426  0.00  0.00    +0.210 HD
ENDBRANCH  19  24
ENDBRANCH   2  17
TORSDOF 5
