REMARK  Name = ZINC63375707
REMARK  6 active torsions:
REMARK  status: ('A' for Active; 'I' for Inactive)
REMARK    1  A    between atoms: C_1  and  O_2
REMARK    2  A    between atoms: O_2  and  C_3
REMARK    3  A    between atoms: C_10  and  C_18
REMARK    4  A    between atoms: C_20  and  O_35
REMARK    5  A    between atoms: N_22  and  C_28
REMARK    6  A    between atoms: C_28  and  C_29
REMARK                            x       y       z     vdW  Elec       q    Type
REMARK                         _______ _______ _______ _____ _____    ______ ____
ROOT
ATOM      1  C   UNL     1       4.122  -5.036   5.081  0.00  0.00    +0.141 C 
ATOM      2  C   UNL     1       5.455  -5.772   4.925  0.00  0.00    +0.218 C 
ATOM      3  N   UNL     1       5.203  -7.171   4.573  0.00  0.00    -0.282 N 
ATOM      4  C   UNL     1       4.152  -7.832   5.084  0.00  0.00    +0.141 C 
ATOM      5  S   UNL     1       3.980  -9.505   4.761  0.00  0.00    -0.018 S 
ATOM      6  N   UNL     1       3.232  -7.213   5.842  0.00  0.00    -0.267 N 
ATOM      7  C   UNL     1       3.190  -5.870   5.925  0.00  0.00    +0.227 C 
ATOM      8  O   UNL     1       2.407  -5.330   6.676  0.00  0.00    -0.275 OA
ATOM      9  H   UNL     1       2.587  -7.742   6.338  0.00  0.00    +0.157 HD
ENDROOT
BRANCH   1  16
ATOM     10  C   UNL     1       0.626  -0.619   1.042  0.00  0.00    +0.121 A 
ATOM     11  C   UNL     1       1.202   0.173   2.051  0.00  0.00    +0.047 A 
ATOM     12  C   UNL     1       1.834  -0.360   3.118  0.00  0.00    +0.029 A 
ATOM     13  C   UNL     1       1.938  -1.815   3.253  0.00  0.00    +0.043 A 
ATOM     14  N   UNL     1       2.509  -2.572   4.162  0.00  0.00    -0.376 N 
ATOM     15  C   UNL     1       2.226  -3.968   3.844  0.00  0.00    +0.124 C 
ATOM     16  C   UNL     1       3.498  -4.809   3.703  0.00  0.00    +0.096 C 
ATOM     17  N   UNL     1       3.133  -6.103   3.104  0.00  0.00    -0.310 NA
ATOM     18  C   UNL     1       2.669  -5.988   1.718  0.00  0.00    +0.085 C 
ATOM     19  C   UNL     1       1.347  -5.199   1.668  0.00  0.00    +0.048 C 
ATOM     20  C   UNL     1       1.553  -3.941   2.481  0.00  0.00    -0.036 C 
ATOM     21  C   UNL     1       1.340  -2.654   2.184  0.00  0.00    +0.003 A 
ATOM     22  C   UNL     1       0.666  -1.971   1.072  0.00  0.00    +0.055 A 
ATOM     23  H   UNL     1       3.893  -6.762   3.177  0.00  0.00    +0.122 HD
ATOM     24  H   UNL     1       3.030  -2.257   4.917  0.00  0.00    +0.160 HD
BRANCH  10  26
ATOM     25  C   UNL     1      -0.017   1.425   0.010  0.00  0.00    +0.277 C 
ATOM     26  O   UNL     1       0.002  -0.004   0.002  0.00  0.00    -0.495 OA
ENDBRANCH  10  26
ENDBRANCH   1  16
BRANCH   2  27
ATOM     27  O   UNL     1       6.222  -5.152   3.891  0.00  0.00    -0.373 OA
ATOM     28  H   UNL     1       7.082  -5.567   3.736  0.00  0.00    +0.212 HD
ENDBRANCH   2  27
BRANCH   3  29
ATOM     29  C   UNL     1       6.110  -7.858   3.650  0.00  0.00    +0.144 C 
BRANCH  29  30
ATOM     30  C   UNL     1       7.219  -8.513   4.431  0.00  0.00    -0.030 A 
ATOM     31  C   UNL     1       8.383  -7.816   4.698  0.00  0.00    +0.005 A 
ATOM     32  C   UNL     1       9.400  -8.417   5.414  0.00  0.00    +0.000 A 
ATOM     33  C   UNL     1       9.255  -9.716   5.865  0.00  0.00    +0.000 A 
ATOM     34  C   UNL     1       8.091 -10.413   5.599  0.00  0.00    +0.000 A 
ATOM     35  C   UNL     1       7.072  -9.810   4.886  0.00  0.00    +0.005 A 
ENDBRANCH  29  30
ENDBRANCH   3  29
TORSDOF 5
