REMARK  Name = ZINC42632733
REMARK  9 active torsions:
REMARK  status: ('A' for Active; 'I' for Inactive)
REMARK    1  A    between atoms: C_1  and  O_2
REMARK    2  A    between atoms: O_2  and  C_3
REMARK    3  A    between atoms: C_3  and  C_5
REMARK    4  A    between atoms: C_7  and  S_23
REMARK    5  A    between atoms: C_10  and  N_11
REMARK    6  A    between atoms: N_11  and  C_12
REMARK    7  A    between atoms: C_12  and  C_13
REMARK    8  A    between atoms: C_13  and  C_14
REMARK    9  A    between atoms: S_23  and  N_26
REMARK                            x       y       z     vdW  Elec       q    Type
REMARK                         _______ _______ _______ _____ _____    ______ ____
ROOT
ATOM      1  C   UNL     1      -1.246  -2.104   0.012  0.00  0.00    +0.082 A 
ATOM      2  C   UNL     1      -0.072  -2.853  -0.103  0.00  0.00    +0.045 A 
ATOM      3  C   UNL     1      -0.133  -4.229  -0.118  0.00  0.00    +0.106 A 
ATOM      4  C   UNL     1      -1.355  -4.877  -0.021  0.00  0.00    +0.030 A 
ATOM      5  C   UNL     1      -2.523  -4.152   0.093  0.00  0.00    +0.025 A 
ATOM      6  C   UNL     1      -2.482  -2.764   0.117  0.00  0.00    +0.041 A 
ENDROOT
BRANCH   3   7
ATOM      7  S   UNL     1       1.349  -5.170  -0.264  0.00  0.00    +0.056 S 
ATOM      8  O   UNL     1       0.978  -6.431  -0.804  0.00  0.00    -0.153 OA
ATOM      9  O   UNL     1       2.307  -4.327  -0.888  0.00  0.00    -0.153 OA
BRANCH   7  10
ATOM     10  N   UNL     1       1.900  -5.456   1.271  0.00  0.00    -0.204 NA
ATOM     11  H   UNL     1       2.403  -6.263   1.464  0.00  0.00    +0.144 HD
ATOM     12  H   UNL     1       1.720  -4.817   1.978  0.00  0.00    +0.144 HD
ENDBRANCH   7  10
ENDBRANCH   3   7
BRANCH   1  13
ATOM     13  C   UNL     1      -1.188  -0.632   0.030  0.00  0.00    +0.341 C 
ATOM     14  O   UNL     1      -2.216   0.016   0.023  0.00  0.00    -0.245 OA
BRANCH  13  16
ATOM     15  C   UNL     1      -0.014   1.423   0.069  0.00  0.00    +0.280 C 
ATOM     16  O   UNL     1       0.004  -0.005   0.053  0.00  0.00    -0.464 OA
ENDBRANCH  13  16
ENDBRANCH   1  13
BRANCH   6  17
ATOM     17  N   UNL     1      -3.655  -2.032   0.237  0.00  0.00    -0.343 N 
ATOM     18  H   UNL     1      -3.633  -1.065   0.170  0.00  0.00    +0.146 HD
BRANCH  17  19
ATOM     19  C   UNL     1      -4.928  -2.722   0.466  0.00  0.00    +0.107 C 
BRANCH  19  20
ATOM     20  C   UNL     1      -6.056  -1.692   0.560  0.00  0.00    +0.073 C 
BRANCH  20  21
ATOM     21  C   UNL     1      -7.365  -2.401   0.795  0.00  0.00    +0.036 A 
ATOM     22  C   UNL     1      -8.156  -2.933  -0.163  0.00  0.00    +0.113 A 
ATOM     23  N   UNL     1      -9.240  -3.481   0.468  0.00  0.00    -0.308 N 
ATOM     24  C   UNL     1     -10.342  -4.140   0.004  0.00  0.00    +0.092 A 
ATOM     25  C   UNL     1     -11.285  -4.588   0.859  0.00  0.00    +0.018 A 
ATOM     26  C   UNL     1     -11.144  -4.381   2.241  0.00  0.00    +0.005 A 
ATOM     27  C   UNL     1     -10.051  -3.725   2.717  0.00  0.00    +0.045 A 
ATOM     28  C   UNL     1      -9.075  -3.263   1.811  0.00  0.00    +0.115 A 
ATOM     29  N   UNL     1      -7.933  -2.614   1.984  0.00  0.00    -0.343 N 
ATOM     30  H   UNL     1      -7.568  -2.336   2.839  0.00  0.00    +0.167 HD
ENDBRANCH  20  21
ENDBRANCH  19  20
ENDBRANCH  17  19
ENDBRANCH   6  17
TORSDOF 8
