REMARK  Name = ZINC63490878
REMARK  8 active torsions:
REMARK  status: ('A' for Active; 'I' for Inactive)
REMARK    1  A    between atoms: C_1  and  O_2
REMARK    2  A    between atoms: O_2  and  C_3
REMARK    3  A    between atoms: N_13  and  C_18
REMARK    4  A    between atoms: C_18  and  C_19
REMARK    5  A    between atoms: C_19  and  C_20
REMARK    6  A    between atoms: C_20  and  C_21
REMARK    7  A    between atoms: C_21  and  C_22
REMARK    8  A    between atoms: N_27  and  C_30
REMARK                            x       y       z     vdW  Elec       q    Type
REMARK                         _______ _______ _______ _____ _____    ______ ____
ROOT
ATOM      1  C   UNL     1      -5.042  -7.736   0.031  0.00  0.00    +0.116 C 
ENDROOT
BRANCH   1  12
ATOM      2  C   UNL     1      -1.198  -0.636   0.010  0.00  0.00    +0.121 A 
ATOM      3  C   UNL     1      -2.372   0.104   0.019  0.00  0.00    +0.048 A 
ATOM      4  C   UNL     1      -3.600  -0.524   0.027  0.00  0.00    +0.032 A 
ATOM      5  C   UNL     1      -3.675  -1.925   0.026  0.00  0.00    +0.074 A 
ATOM      6  C   UNL     1      -2.474  -2.674   0.016  0.00  0.00    +0.029 A 
ATOM      7  C   UNL     1      -1.252  -2.034   0.003  0.00  0.00    +0.057 A 
ATOM      8  C   UNL     1      -2.899  -4.088   0.018  0.00  0.00    +0.095 C 
ATOM      9  N   UNL     1      -2.318  -5.255   0.013  0.00  0.00    -0.190 NA
ATOM     10  C   UNL     1      -3.027  -6.393   0.017  0.00  0.00    +0.164 C 
ATOM     11  S   UNL     1      -2.172  -7.876   0.009  0.00  0.00    -0.016 S 
ATOM     12  N   UNL     1      -4.367  -6.436   0.027  0.00  0.00    -0.247 N 
ATOM     13  C   UNL     1      -5.109  -5.305   0.033  0.00  0.00    +0.272 C 
ATOM     14  O   UNL     1      -6.324  -5.346   0.042  0.00  0.00    -0.268 OA
ATOM     15  C   UNL     1      -4.383  -4.020   0.029  0.00  0.00    +0.150 C 
ATOM     16  N   UNL     1      -4.730  -2.763   0.033  0.00  0.00    -0.240 NA
BRANCH   2  18
ATOM     17  C   UNL     1      -0.017   1.425   0.010  0.00  0.00    +0.277 C 
ATOM     18  O   UNL     1       0.002  -0.004   0.002  0.00  0.00    -0.495 OA
ENDBRANCH   2  18
ENDBRANCH   1  12
BRANCH   1  19
ATOM     19  C   UNL     1      -5.267  -8.190   1.475  0.00  0.00    +0.020 C 
BRANCH  19  20
ATOM     20  C   UNL     1      -5.972  -9.547   1.480  0.00  0.00    +0.011 C 
BRANCH  20  21
ATOM     21  C   UNL     1      -6.196 -10.001   2.924  0.00  0.00    +0.096 C 
BRANCH  21  22
ATOM     22  C   UNL     1      -6.891 -11.338   2.928  0.00  0.00    +0.215 C 
ATOM     23  O   UNL     1      -7.178 -11.876   1.880  0.00  0.00    -0.276 OA
ATOM     24  N   UNL     1      -7.193 -11.937   4.097  0.00  0.00    -0.305 N 
ATOM     25  C   UNL     1      -6.859 -11.301   5.381  0.00  0.00    +0.089 C 
ATOM     26  C   UNL     1      -8.113 -11.298   6.262  0.00  0.00    -0.059 C 
ATOM     27  N   UNL     1      -8.630 -12.667   6.380  0.00  0.00    +0.384 N 
ATOM     28  C   UNL     1      -9.072 -13.150   5.066  0.00  0.00    -0.059 C 
ATOM     29  C   UNL     1      -7.871 -13.242   4.126  0.00  0.00    +0.089 C 
ATOM     30  H   UNL     1      -7.902 -13.271   6.732  0.00  0.00    -0.081 HD
BRANCH  27  31
ATOM     31  C   UNL     1      -9.765 -12.681   7.312  0.00  0.00    -0.068 C 
ATOM     32  C   UNL     1      -9.304 -12.188   8.685  0.00  0.00    -0.015 C 
ATOM     33  C   UNL     1     -10.487 -12.203   9.656  0.00  0.00    -0.002 C 
ATOM     34  C   UNL     1     -11.027 -13.629   9.781  0.00  0.00    -0.000 C 
ATOM     35  C   UNL     1     -11.488 -14.121   8.407  0.00  0.00    -0.002 C 
ATOM     36  C   UNL     1     -10.306 -14.107   7.437  0.00  0.00    -0.015 C 
ENDBRANCH  27  31
ENDBRANCH  21  22
ENDBRANCH  20  21
ENDBRANCH  19  20
ENDBRANCH   1  19
TORSDOF 7
