REMARK  Name = ZINC57846663
REMARK  11 active torsions:
REMARK  status: ('A' for Active; 'I' for Inactive)
REMARK    1  A    between atoms: C_1  and  C_2
REMARK    2  A    between atoms: C_2  and  C_3
REMARK    3  A    between atoms: C_3  and  C_15
REMARK    4  A    between atoms: N_6  and  C_10
REMARK    5  A    between atoms: C_10  and  C_11
REMARK    6  A    between atoms: C_11  and  C_12
REMARK    7  A    between atoms: C_11  and  C_13
REMARK    8  A    between atoms: C_11  and  N_14
REMARK    9  A    between atoms: C_18  and  O_21
REMARK   10  A    between atoms: O_21  and  C_22
REMARK   11  A    between atoms: C_22  and  C_23
REMARK                            x       y       z     vdW  Elec       q    Type
REMARK                         _______ _______ _______ _____ _____    ______ ____
ROOT
ATOM      1  C   UNL     1      -1.433  -0.534   0.013  0.00  0.00    +0.138 C 
ATOM      2  C   UNL     1      -2.192  -0.043  -1.205  0.00  0.00    +0.251 C 
ATOM      3  O   UNL     1      -1.933  -0.267  -2.368  0.00  0.00    -0.272 OA
ATOM      4  N   UNL     1      -3.214   0.692  -0.725  0.00  0.00    -0.225 N 
ATOM      5  C   UNL     1      -3.207   0.734   0.612  0.00  0.00    +0.310 C 
ATOM      6  O   UNL     1      -4.031   1.335   1.273  0.00  0.00    -0.252 OA
ATOM      7  N   UNL     1      -2.187   0.036   1.143  0.00  0.00    -0.281 N 
ATOM      8  H   UNL     1      -1.987  -0.072   2.086  0.00  0.00    +0.152 HD
ENDROOT
BRANCH   1   9
ATOM      9  C   UNL     1      -1.441  -2.039   0.076  0.00  0.00    -0.015 A 
ATOM     10  C   UNL     1      -0.399  -2.758  -0.481  0.00  0.00    +0.010 A 
ATOM     11  C   UNL     1      -0.404  -4.139  -0.425  0.00  0.00    +0.046 A 
ATOM     12  C   UNL     1      -1.455  -4.803   0.190  0.00  0.00    +0.121 A 
ATOM     13  C   UNL     1      -2.498  -4.080   0.748  0.00  0.00    +0.046 A 
ATOM     14  C   UNL     1      -2.486  -2.699   0.695  0.00  0.00    +0.010 A 
BRANCH  12  15
ATOM     15  O   UNL     1      -1.462  -6.161   0.246  0.00  0.00    -0.492 OA
BRANCH  15  16
ATOM     16  C   UNL     1      -2.576  -6.778   0.895  0.00  0.00    +0.225 C 
ATOM     17  C   UNL     1      -2.409  -8.298   0.859  0.00  0.00    +0.048 C 
ENDBRANCH  15  16
ENDBRANCH  12  15
ENDBRANCH   1   9
BRANCH   1  19
ATOM     18  C   UNL     1      -0.019   1.526   0.010  0.00  0.00    +0.007 C 
ATOM     19  C   UNL     1       0.002  -0.004   0.002  0.00  0.00    +0.037 C 
ENDBRANCH   1  19
BRANCH   4  20
ATOM     20  C   UNL     1      -4.210   1.363  -1.565  0.00  0.00    +0.104 C 
BRANCH  20  21
ATOM     21  C   UNL     1      -5.386   0.417  -1.816  0.00  0.00    -0.060 C 
ATOM     22  C   UNL     1      -6.426   1.117  -2.693  0.00  0.00    -0.009 C 
ATOM     23  C   UNL     1      -4.885  -0.842  -2.527  0.00  0.00    -0.009 C 
BRANCH  21  24
ATOM     24  N   UNL     1      -5.998   0.044  -0.533  0.00  0.00    +0.382 N 
ATOM     25  H   UNL     1      -6.328   0.874  -0.065  0.00  0.00    -0.089 HD
ATOM     26  H   UNL     1      -6.773  -0.580  -0.699  0.00  0.00    -0.089 HD
ATOM     27  H   UNL     1      -5.312  -0.418   0.045  0.00  0.00    -0.089 HD
ENDBRANCH  21  24
ENDBRANCH  20  21
ENDBRANCH   4  20
TORSDOF 7
