REMARK  Name = ZINC38797076
REMARK  6 active torsions:
REMARK  status: ('A' for Active; 'I' for Inactive)
REMARK    1  A    between atoms: C_1  and  C_2
REMARK    2  A    between atoms: C_6  and  N_12
REMARK    3  A    between atoms: C_9  and  C_11
REMARK    4  A    between atoms: C_13  and  C_15
REMARK    5  A    between atoms: C_15  and  N_16
REMARK    6  A    between atoms: C_21  and  C_23
REMARK                            x       y       z     vdW  Elec       q    Type
REMARK                         _______ _______ _______ _____ _____    ______ ____
ROOT
ATOM      1  N   UNL     1      -3.401  -2.952  -0.543  0.00  0.00    -0.288 N 
ATOM      2  C   UNL     1      -4.418  -3.827  -0.415  0.00  0.00    +0.199 C 
ATOM      3  O   UNL     1      -5.151  -3.768   0.550  0.00  0.00    -0.278 OA
ATOM      4  H   UNL     1      -2.815  -2.999  -1.315  0.00  0.00    +0.151 HD
ENDROOT
BRANCH   1   9
ATOM      5  C   UNL     1      -0.019   1.526   0.010  0.00  0.00    +0.030 C 
ATOM      6  C   UNL     1       0.002  -0.004   0.002  0.00  0.00    +0.099 C 
ATOM      7  C   UNL     1      -1.409  -0.528   0.019  0.00  0.00    -0.011 C 
ATOM      8  C   UNL     1      -1.717  -1.674   0.651  0.00  0.00    +0.065 C 
ATOM      9  C   UNL     1      -3.181  -1.929   0.482  0.00  0.00    +0.243 C 
ATOM     10  O   UNL     1      -3.752  -0.670   0.063  0.00  0.00    -0.347 OA
ATOM     11  C   UNL     1      -2.663   0.023  -0.586  0.00  0.00    +0.146 C 
ATOM     12  C   UNL     1      -2.687  -0.251  -2.091  0.00  0.00    +0.043 C 
ATOM     13  C   UNL     1      -0.670  -2.429   1.357  0.00  0.00    +0.258 C 
ATOM     14  O   UNL     1      -0.872  -3.538   1.815  0.00  0.00    -0.269 OA
ATOM     15  N   UNL     1       0.533  -1.813   1.465  0.00  0.00    -0.247 N 
ATOM     16  N   UNL     1       0.706  -0.493   1.194  0.00  0.00    -0.233 NA
ATOM     17  H   UNL     1       1.300  -2.335   1.746  0.00  0.00    +0.169 HD
ATOM     18  H   UNL     1       1.686  -0.255   1.159  0.00  0.00    +0.145 HD
ENDBRANCH   1   9
BRANCH   2  19
ATOM     19  C   UNL     1      -4.645  -4.879  -1.470  0.00  0.00    +0.020 C 
BRANCH  19  20
ATOM     20  N   UNL     1      -5.804  -5.701  -1.100  0.00  0.00    +0.393 N 
ATOM     21  C   UNL     1      -7.013  -4.864  -1.095  0.00  0.00    -0.072 C 
ATOM     22  C   UNL     1      -8.146  -5.643  -0.411  0.00  0.00    +0.023 C 
ATOM     23  C   UNL     1      -8.175  -7.028  -0.995  0.00  0.00    -0.018 C 
ATOM     24  C   UNL     1      -7.224  -7.576  -1.745  0.00  0.00    -0.069 C 
ATOM     25  C   UNL     1      -5.951  -6.797  -2.064  0.00  0.00    -0.009 C 
ATOM     26  C   UNL     1      -7.466  -8.968  -2.268  0.00  0.00    +0.041 C 
ATOM     27  C   UNL     1      -8.548  -9.703  -1.439  0.00  0.00    +0.078 C 
ATOM     28  S   UNL     1      -9.462  -8.235  -0.804  0.00  0.00    -0.129 S 
ATOM     29  H   UNL     1      -5.662  -6.085  -0.177  0.00  0.00    -0.080 HD
BRANCH  25  30
ATOM     30  C   UNL     1      -4.760  -7.715  -1.967  0.00  0.00    -0.057 A 
ATOM     31  C   UNL     1      -4.229  -8.031  -0.730  0.00  0.00    +0.002 A 
ATOM     32  C   UNL     1      -3.137  -8.874  -0.641  0.00  0.00    +0.000 A 
ATOM     33  C   UNL     1      -2.575  -9.401  -1.790  0.00  0.00    +0.000 A 
ATOM     34  C   UNL     1      -3.106  -9.085  -3.026  0.00  0.00    +0.000 A 
ATOM     35  C   UNL     1      -4.201  -8.246  -3.115  0.00  0.00    +0.002 A 
ENDBRANCH  25  30
ENDBRANCH  19  20
ENDBRANCH   2  19
TORSDOF 4
