REMARK  Name = ZINC42362430
REMARK  9 active torsions:
REMARK  status: ('A' for Active; 'I' for Inactive)
REMARK    1  A    between atoms: C_1  and  C_2
REMARK    2  A    between atoms: C_2  and  C_3
REMARK    3  A    between atoms: C_3  and  C_5
REMARK    4  A    between atoms: C_3  and  N_10
REMARK    5  A    between atoms: C_5  and  C_6
REMARK    6  A    between atoms: N_7  and  O_8
REMARK    7  A    between atoms: N_10  and  C_11
REMARK    8  A    between atoms: N_10  and  C_12
REMARK    9  A    between atoms: C_12  and  C_13
REMARK                            x       y       z     vdW  Elec       q    Type
REMARK                         _______ _______ _______ _____ _____    ______ ____
ROOT
ATOM      1  C   UNL     1      -1.422  -0.437   0.033  0.00  0.00    -0.062 C 
ENDROOT
BRANCH   1   2
ATOM      2  N   UNL     1      -1.841  -0.232   1.425  0.00  0.00    +0.383 N 
ATOM      3  C   UNL     1      -3.199  -0.761   1.611  0.00  0.00    -0.095 C 
ATOM      4  H   UNL     1      -1.833   0.755   1.637  0.00  0.00    -0.081 HD
BRANCH   2   5
ATOM      5  C   UNL     1      -0.915  -0.933   2.324  0.00  0.00    -0.042 C 
BRANCH   5   6
ATOM      6  C   UNL     1      -1.249  -0.594   3.754  0.00  0.00    -0.056 A 
ATOM      7  C   UNL     1      -0.662   0.495   4.372  0.00  0.00    +0.024 A 
ATOM      8  C   UNL     1      -0.985   0.772   5.660  0.00  0.00    +0.055 A 
ATOM      9  S   UNL     1      -2.151  -0.527   6.036  0.00  0.00    -0.090 S 
ATOM     10  C   UNL     1      -2.133  -1.348   4.451  0.00  0.00    +0.048 A 
ATOM     11 BR   UNL     1      -0.362   2.170   6.770  0.00  0.00    -0.043 Br
ENDBRANCH   5   6
ENDBRANCH   2   5
ENDBRANCH   1   2
BRANCH   1  13
ATOM     12  C   UNL     1      -0.236   1.761  -0.026  0.00  0.00    +0.002 C 
ATOM     13  C   UNL     1      -0.075   0.249  -0.201  0.00  0.00    -0.018 C 
ENDBRANCH   1  13
BRANCH   1  14
ATOM     14  C   UNL     1      -1.285  -1.936  -0.243  0.00  0.00    +0.059 C 
BRANCH  14  15
ATOM     15  C   UNL     1      -2.652  -2.537  -0.442  0.00  0.00    +0.130 C 
ATOM     16  N   UNL     1      -3.692  -1.773  -0.502  0.00  0.00    -0.077 NA
ATOM     17  N   UNL     1      -2.794  -3.902  -0.560  0.00  0.00    -0.344 N 
ATOM     18  H   UNL     1      -2.014  -4.476  -0.515  0.00  0.00    +0.143 HD
ATOM     19  H   UNL     1      -3.674  -4.289  -0.688  0.00  0.00    +0.143 HD
BRANCH  16  20
ATOM     20  O   UNL     1      -4.977  -2.337  -0.689  0.00  0.00    -0.408 OA
ATOM     21  H   UNL     1      -5.691  -1.687  -0.721  0.00  0.00    +0.328 HD
ENDBRANCH  16  20
ENDBRANCH  14  15
ENDBRANCH   1  14
TORSDOF 7
