REMARK  Name = ZINC54434695
REMARK  11 active torsions:
REMARK  status: ('A' for Active; 'I' for Inactive)
REMARK    1  A    between atoms: C_1  and  C_2
REMARK    2  A    between atoms: C_5  and  C_29
REMARK    3  A    between atoms: N_8  and  C_10
REMARK    4  A    between atoms: C_10  and  C_11
REMARK    5  A    between atoms: C_10  and  C_12
REMARK    6  A    between atoms: C_10  and  C_13
REMARK    7  A    between atoms: C_13  and  N_14
REMARK    8  A    between atoms: N_17  and  C_18
REMARK    9  A    between atoms: C_21  and  N_24
REMARK   10  A    between atoms: C_25  and  O_27
REMARK   11  A    between atoms: O_27  and  C_28
REMARK                            x       y       z     vdW  Elec       q    Type
REMARK                         _______ _______ _______ _____ _____    ______ ____
ROOT
ATOM      1  N   UNL     1       3.479  -2.440   0.897  0.00  0.00    -0.300 N 
ATOM      2  C   UNL     1       4.770  -2.235   0.571  0.00  0.00    +0.304 C 
ATOM      3  O   UNL     1       5.539  -1.773   1.391  0.00  0.00    -0.253 OA
ATOM      4  N   UNL     1       5.209  -2.542  -0.666  0.00  0.00    -0.269 N 
ATOM      5  H   UNL     1       2.865  -2.808   0.243  0.00  0.00    +0.150 HD
ATOM      6  H   UNL     1       4.613  -2.972  -1.299  0.00  0.00    +0.156 HD
ENDROOT
BRANCH   4   7
ATOM      7  C   UNL     1       6.527  -2.242  -1.036  0.00  0.00    +0.035 A 
ATOM      8  C   UNL     1       6.808  -1.840  -2.336  0.00  0.00    +0.025 A 
ATOM      9  C   UNL     1       8.106  -1.544  -2.701  0.00  0.00    +0.025 A 
ATOM     10  C   UNL     1       9.130  -1.647  -1.769  0.00  0.00    +0.037 A 
ATOM     11  C   UNL     1       8.849  -2.049  -0.470  0.00  0.00    +0.025 A 
ATOM     12  C   UNL     1       7.550  -2.340  -0.103  0.00  0.00    +0.025 A 
BRANCH  10  13
ATOM     13  N   UNL     1      10.448  -1.347  -2.140  0.00  0.00    -0.251 N 
ATOM     14  C   UNL     1      11.475  -2.019  -1.583  0.00  0.00    +0.404 C 
ATOM     15  O   UNL     1      11.256  -2.943  -0.825  0.00  0.00    -0.226 OA
ATOM     16  H   UNL     1      10.621  -0.655  -2.797  0.00  0.00    +0.158 HD
BRANCH  14  17
ATOM     17  O   UNL     1      12.743  -1.667  -1.867  0.00  0.00    -0.453 OA
ATOM     18  C   UNL     1      13.782  -2.423  -1.241  0.00  0.00    +0.282 C 
ENDBRANCH  14  17
ENDBRANCH  10  13
ENDBRANCH   4   7
BRANCH   1  19
ATOM     19  C   UNL     1       3.002  -2.105   2.242  0.00  0.00    +0.093 C 
BRANCH  19  20
ATOM     20  C   UNL     1       1.542  -2.539   2.387  0.00  0.00    -0.055 C 
ATOM     21  C   UNL     1       1.020  -2.121   3.763  0.00  0.00    -0.008 C 
ATOM     22  C   UNL     1       1.445  -4.059   2.245  0.00  0.00    -0.008 C 
BRANCH  20  28
ATOM     23  C   UNL     1       0.064   1.755   0.557  0.00  0.00    +0.005 C 
ATOM     24  C   UNL     1       0.011   0.236   0.377  0.00  0.00    -0.031 C 
ATOM     25  C   UNL     1      -1.446  -0.232   0.409  0.00  0.00    +0.003 C 
ATOM     26  C   UNL     1      -1.483  -1.760   0.306  0.00  0.00    -0.031 C 
ATOM     27  C   UNL     1      -0.655  -2.362   1.443  0.00  0.00    -0.075 C 
ATOM     28  N   UNL     1       0.734  -1.897   1.341  0.00  0.00    +0.384 N 
ATOM     29  C   UNL     1       0.785  -0.440   1.510  0.00  0.00    -0.075 C 
ATOM     30  C   UNL     1      -2.930  -2.244   0.415  0.00  0.00    +0.005 C 
ATOM     31  H   UNL     1       1.104  -2.143   0.435  0.00  0.00    -0.081 HD
ENDBRANCH  20  28
ENDBRANCH  19  20
ENDBRANCH   1  19
TORSDOF 6
