REMARK  Name = ZINC39941778
REMARK  6 active torsions:
REMARK  status: ('A' for Active; 'I' for Inactive)
REMARK    1  A    between atoms: C_8  and  C_13
REMARK    2  A    between atoms: N_14  and  N_15
REMARK    3  A    between atoms: C_16  and  C_18
REMARK    4  A    between atoms: N_20  and  C_21
REMARK    5  A    between atoms: C_26  and  C_27
REMARK    6  A    between atoms: N_29  and  C_30
REMARK                            x       y       z     vdW  Elec       q    Type
REMARK                         _______ _______ _______ _____ _____    ______ ____
ROOT
ATOM      1  C   UNL     1       3.223  -7.893   3.192  0.00  0.00    +0.305 C 
ATOM      2  O   UNL     1       3.262  -7.398   4.299  0.00  0.00    -0.265 OA
ATOM      3  N   UNL     1       3.306  -9.231   3.049  0.00  0.00    -0.277 N 
ATOM      4  H   UNL     1       3.209  -9.632   2.171  0.00  0.00    +0.155 HD
ENDROOT
BRANCH   3   5
ATOM      5  C   UNL     1       3.533 -10.037   4.160  0.00  0.00    +0.046 A 
ATOM      6  C   UNL     1       2.985  -9.698   5.391  0.00  0.00    +0.024 A 
ATOM      7  C   UNL     1       3.211 -10.499   6.492  0.00  0.00    +0.002 A 
ATOM      8  C   UNL     1       3.983 -11.644   6.380  0.00  0.00    +0.001 A 
ATOM      9  C   UNL     1       4.535 -11.996   5.167  0.00  0.00    +0.015 A 
ATOM     10  C   UNL     1       4.311 -11.199   4.042  0.00  0.00    +0.058 A 
BRANCH  10  11
ATOM     11  C   UNL     1       4.893 -11.572   2.739  0.00  0.00    +0.250 C 
ATOM     12  O   UNL     1       4.781 -10.825   1.786  0.00  0.00    -0.270 OA
ATOM     13  N   UNL     1       5.550 -12.742   2.605  0.00  0.00    -0.281 N 
ATOM     14  H   UNL     1       5.697 -13.307   3.380  0.00  0.00    +0.155 HD
BRANCH  13  15
ATOM     15  C   UNL     1       6.019 -13.141   1.349  0.00  0.00    +0.034 A 
ATOM     16  C   UNL     1       6.494 -12.194   0.451  0.00  0.00    +0.025 A 
ATOM     17  C   UNL     1       6.957 -12.590  -0.788  0.00  0.00    +0.022 A 
ATOM     18  C   UNL     1       6.947 -13.930  -1.136  0.00  0.00    +0.041 A 
ATOM     19  C   UNL     1       6.475 -14.875  -0.243  0.00  0.00    +0.022 A 
ATOM     20  C   UNL     1       6.016 -14.485   1.000  0.00  0.00    +0.025 A 
ATOM     21 CL   UNL     1       7.529 -14.425  -2.694  0.00  0.00    -0.084 Cl
ENDBRANCH  13  15
ENDBRANCH  10  11
ENDBRANCH   3   5
BRANCH   1  23
ATOM     22  N   UNL     1       2.998  -5.684   2.132  0.00  0.00    -0.199 N 
ATOM     23  C   UNL     1       3.082  -7.022   1.989  0.00  0.00    +0.318 C 
ATOM     24  O   UNL     1       3.042  -7.518   0.881  0.00  0.00    -0.263 OA
ATOM     25  H   UNL     1       3.030  -5.288   3.017  0.00  0.00    +0.178 HD
BRANCH  22  27
ATOM     26  C   UNL     1       2.786  -3.595   1.139  0.00  0.00    +0.120 C 
ATOM     27  N   UNL     1       2.865  -4.866   1.003  0.00  0.00    -0.191 NA
BRANCH  26  35
ATOM     28  C   UNL     1      -0.130   1.309  -0.006  0.00  0.00    +0.001 A 
ATOM     29  C   UNL     1       1.048   2.057  -0.040  0.00  0.00    +0.002 A 
ATOM     30  C   UNL     1       2.279   1.484  -0.073  0.00  0.00    +0.024 A 
ATOM     31  C   UNL     1       2.416   0.083  -0.074  0.00  0.00    +0.040 A 
ATOM     32  N   UNL     1       3.629  -0.468  -0.106  0.00  0.00    -0.284 N 
ATOM     33  C   UNL     1       3.828  -1.776  -0.109  0.00  0.00    +0.229 C 
ATOM     34  O   UNL     1       4.960  -2.221  -0.139  0.00  0.00    -0.274 OA
ATOM     35  C   UNL     1       2.643  -2.715  -0.076  0.00  0.00    +0.141 C 
ATOM     36  C   UNL     1       1.261  -2.093  -0.039  0.00  0.00    +0.001 C 
ATOM     37  C   UNL     1       1.188  -0.731  -0.039  0.00  0.00    -0.007 A 
ATOM     38  C   UNL     1      -0.105  -0.049  -0.004  0.00  0.00    +0.009 A 
ATOM     39  H   UNL     1       4.402   0.117  -0.128  0.00  0.00    +0.155 HD
ENDBRANCH  26  35
ENDBRANCH  22  27
ENDBRANCH   1  23
TORSDOF 6
