REMARK  Name = ZINC09543040
REMARK  8 active torsions:
REMARK  status: ('A' for Active; 'I' for Inactive)
REMARK    1  A    between atoms: C_1  and  O_2
REMARK    2  A    between atoms: O_2  and  C_3
REMARK    3  A    between atoms: C_6  and  C_9
REMARK    4  A    between atoms: C_11  and  C_23
REMARK    5  A    between atoms: C_13  and  C_16
REMARK    6  A    between atoms: C_21  and  O_22
REMARK    7  A    between atoms: C_26  and  O_30
REMARK    8  A    between atoms: O_30  and  C_31
REMARK                            x       y       z     vdW  Elec       q    Type
REMARK                         _______ _______ _______ _____ _____    ______ ____
ROOT
ATOM      1  C   UNL     1       1.248  -2.158  -0.021  0.00  0.00    +0.040 C 
ATOM      2  N   UNL     1       0.132  -2.788  -0.013  0.00  0.00    -0.299 NA
ATOM      3  C   UNL     1       0.013  -4.240  -0.009  0.00  0.00    +0.081 C 
ATOM      4  C   UNL     1       2.397  -4.323   0.347  0.00  0.00    -0.028 C 
ATOM      5  C   UNL     1       2.581  -2.852  -0.044  0.00  0.00    +0.044 C 
ATOM      6  N   UNL     1       1.272  -4.869  -0.437  0.00  0.00    +0.401 N 
ATOM      7  H   UNL     1       1.427  -4.677  -1.434  0.00  0.00    -0.081 HD
ATOM      8  H   UNL     1       1.213  -5.883  -0.289  0.00  0.00    -0.081 HD
ENDROOT
BRANCH   3   9
ATOM      9  C   UNL     1      -1.088  -4.650  -0.953  0.00  0.00    -0.039 A 
ATOM     10  C   UNL     1      -1.019  -5.866  -1.607  0.00  0.00    +0.007 A 
ATOM     11  C   UNL     1      -2.029  -6.247  -2.470  0.00  0.00    +0.047 A 
ATOM     12  C   UNL     1      -3.109  -5.404  -2.687  0.00  0.00    +0.134 A 
ATOM     13  C   UNL     1      -3.174  -4.182  -2.033  0.00  0.00    +0.060 A 
ATOM     14  C   UNL     1      -2.163  -3.808  -1.167  0.00  0.00    +0.022 A 
ATOM     15 BR   UNL     1      -4.644  -3.029  -2.325  0.00  0.00    -0.047 Br
BRANCH  12  16
ATOM     16  O   UNL     1      -4.101  -5.774  -3.538  0.00  0.00    -0.494 OA
ATOM     17  C   UNL     1      -3.968  -7.046  -4.176  0.00  0.00    +0.277 C 
ENDBRANCH  12  16
ENDBRANCH   3   9
BRANCH   1  21
ATOM     18  C   UNL     1       1.176   2.086   0.002  0.00  0.00    +0.120 A 
ATOM     19  C   UNL     1      -0.017   1.373   0.010  0.00  0.00    +0.046 A 
ATOM     20  C   UNL     1       0.002  -0.004   0.002  0.00  0.00    +0.013 A 
ATOM     21  C   UNL     1       1.223  -0.684  -0.013  0.00  0.00    -0.004 A 
ATOM     22  C   UNL     1       2.420   0.037  -0.021  0.00  0.00    +0.013 A 
ATOM     23  C   UNL     1       2.392   1.414  -0.013  0.00  0.00    +0.046 A 
BRANCH  18  25
ATOM     24  C   UNL     1       2.415   4.114   0.001  0.00  0.00    +0.277 C 
ATOM     25  O   UNL     1       1.153   3.444   0.010  0.00  0.00    -0.495 OA
ENDBRANCH  18  25
ENDBRANCH   1  21
BRANCH   4  26
ATOM     26  C   UNL     1       3.652  -5.094   0.031  0.00  0.00    -0.019 A 
ATOM     27  C   UNL     1       3.774  -5.752  -1.178  0.00  0.00    +0.005 A 
ATOM     28  C   UNL     1       4.928  -6.455  -1.470  0.00  0.00    +0.000 A 
ATOM     29  C   UNL     1       5.958  -6.511  -0.550  0.00  0.00    +0.004 A 
ATOM     30  C   UNL     1       5.840  -5.860   0.662  0.00  0.00    +0.045 A 
ATOM     31  C   UNL     1       4.685  -5.149   0.956  0.00  0.00    +0.118 A 
BRANCH  31  32
ATOM     32  O   UNL     1       4.565  -4.508   2.148  0.00  0.00    -0.507 OA
ATOM     33  H   UNL     1       4.174  -5.048   2.848  0.00  0.00    +0.292 HD
ENDBRANCH  31  32
ENDBRANCH   4  26
TORSDOF 6
