REMARK  Name = ZINC40348982
REMARK  7 active torsions:
REMARK  status: ('A' for Active; 'I' for Inactive)
REMARK    1  A    between atoms: C_1  and  C_2
REMARK    2  A    between atoms: C_5  and  N_21
REMARK    3  A    between atoms: C_6  and  C_20
REMARK    4  A    between atoms: C_7  and  S_8
REMARK    5  A    between atoms: S_8  and  N_11
REMARK    6  A    between atoms: N_11  and  C_12
REMARK    7  A    between atoms: N_17  and  C_19
REMARK                            x       y       z     vdW  Elec       q    Type
REMARK                         _______ _______ _______ _____ _____    ______ ____
ROOT
ATOM      1  S   UNL     1      -0.075  -0.109   0.227  0.00  0.00    +0.073 S 
ATOM      2  O   UNL     1       0.988  -0.684   0.974  0.00  0.00    -0.150 OA
ATOM      3  O   UNL     1       0.091   0.345  -1.110  0.00  0.00    -0.150 OA
ENDROOT
BRANCH   1  10
ATOM      4  C   UNL     1      -2.675   0.251  -1.272  0.00  0.00    +0.046 C 
ATOM      5  C   UNL     1      -2.527  -1.047  -0.520  0.00  0.00    -0.023 A 
ATOM      6  C   UNL     1      -3.545  -1.982  -0.551  0.00  0.00    +0.007 A 
ATOM      7  C   UNL     1      -3.413  -3.172   0.137  0.00  0.00    +0.023 A 
ATOM      8  C   UNL     1      -2.255  -3.429   0.861  0.00  0.00    +0.029 A 
ATOM      9  C   UNL     1      -1.235  -2.487   0.890  0.00  0.00    -0.003 A 
ATOM     10  C   UNL     1      -1.372  -1.301   0.196  0.00  0.00    +0.116 A 
ATOM     11  C   UNL     1       0.022  -2.761   1.675  0.00  0.00    +0.048 C 
BRANCH   8  12
ATOM     12  N   UNL     1      -2.118  -4.632   1.558  0.00  0.00    -0.358 N 
ATOM     13  H   UNL     1      -2.832  -5.289   1.537  0.00  0.00    +0.142 HD
ATOM     14  H   UNL     1      -1.310  -4.810   2.063  0.00  0.00    +0.142 HD
ENDBRANCH   8  12
ENDBRANCH   1  10
BRANCH   1  15
ATOM     15  N   UNL     1      -0.622   1.186   1.102  0.00  0.00    -0.215 N 
ATOM     16  H   UNL     1      -1.135   1.042   1.912  0.00  0.00    +0.174 HD
BRANCH  15  17
ATOM     17  C   UNL     1      -0.343   2.492   0.671  0.00  0.00    +0.064 A 
ATOM     18  C   UNL     1      -0.930   3.591   1.323  0.00  0.00    +0.031 A 
ATOM     19  C   UNL     1      -0.647   4.852   0.890  0.00  0.00    +0.072 A 
ATOM     20  C   UNL     1       0.224   5.029  -0.197  0.00  0.00    +0.251 A 
ATOM     21  O   UNL     1       0.483   6.155  -0.593  0.00  0.00    -0.268 OA
ATOM     22  N   UNL     1       0.773   3.961  -0.805  0.00  0.00    -0.316 N 
ATOM     23  C   UNL     1       0.500   2.699  -0.375  0.00  0.00    +0.113 A 
ATOM     24  C   UNL     1       1.680   4.159  -1.938  0.00  0.00    +0.152 C 
ENDBRANCH  15  17
ENDBRANCH   1  15
TORSDOF 4
