REMARK  Name = ZINC67298275
REMARK  5 active torsions:
REMARK  status: ('A' for Active; 'I' for Inactive)
REMARK    1  A    between atoms: C_1  and  C_2
REMARK    2  A    between atoms: C_5  and  C_23
REMARK    3  A    between atoms: C_6  and  N_8
REMARK    4  A    between atoms: C_10  and  C_20
REMARK    5  A    between atoms: C_15  and  O_19
REMARK                            x       y       z     vdW  Elec       q    Type
REMARK                         _______ _______ _______ _____ _____    ______ ____
ROOT
ATOM      1  N   UNL     1       0.234  -2.866   2.345  0.00  0.00    -0.325 N 
ATOM      2  C   UNL     1       0.259  -2.190   3.474  0.00  0.00    +0.212 A 
ATOM      3  C   UNL     1       0.303  -2.881   4.777  0.00  0.00    +0.097 A 
ATOM      4  C   UNL     1       0.855  -2.191   5.847  0.00  0.00    +0.030 A 
ATOM      5  C   UNL     1       1.308  -0.866   5.627  0.00  0.00    +0.018 A 
ATOM      6  C   UNL     1       2.053  -0.197   6.611  0.00  0.00    +0.015 A 
ATOM      7  C   UNL     1       2.519   1.062   6.372  0.00  0.00    +0.046 A 
ATOM      8  C   UNL     1       2.256   1.695   5.158  0.00  0.00    +0.120 A 
ATOM      9  C   UNL     1       1.506   1.058   4.181  0.00  0.00    +0.092 A 
ATOM     10  C   UNL     1       1.018  -0.217   4.410  0.00  0.00    +0.141 A 
ATOM     11  O   UNL     1       0.252  -0.832   3.479  0.00  0.00    -0.438 OA
ATOM     12  H   UNL     1       0.330  -3.831   2.356  0.00  0.00    +0.169 HD
ENDROOT
BRANCH   1  18
ATOM     13  C   UNL     1      -2.260   0.351  -0.374  0.00  0.00    +0.044 C 
ATOM     14  C   UNL     1      -1.134  -0.635  -0.202  0.00  0.00    -0.048 A 
ATOM     15  C   UNL     1      -0.261  -0.877  -1.248  0.00  0.00    +0.004 A 
ATOM     16  C   UNL     1       0.776  -1.780  -1.099  0.00  0.00    +0.005 A 
ATOM     17  C   UNL     1       0.947  -2.447   0.097  0.00  0.00    -0.027 A 
ATOM     18  C   UNL     1       0.070  -2.208   1.157  0.00  0.00    +0.045 A 
ATOM     19  C   UNL     1      -0.972  -1.291   1.001  0.00  0.00    +0.029 A 
ATOM     20  C   UNL     1       2.077  -3.432   0.257  0.00  0.00    +0.046 C 
ENDBRANCH   1  18
BRANCH   3  21
ATOM     21  C   UNL     1      -0.219  -4.248   4.936  0.00  0.00    +0.247 C 
ATOM     22  O   UNL     1      -0.691  -4.834   3.980  0.00  0.00    -0.270 OA
ATOM     23  N   UNL     1      -0.174  -4.851   6.141  0.00  0.00    -0.325 N 
ATOM     24  H   UNL     1       0.254  -4.407   6.889  0.00  0.00    +0.145 HD
ATOM     25  H   UNL     1      -0.570  -5.728   6.259  0.00  0.00    +0.145 HD
ENDBRANCH   3  21
BRANCH   8  26
ATOM     26  O   UNL     1       2.737   2.943   4.932  0.00  0.00    -0.507 OA
ATOM     27  H   UNL     1       3.614   2.959   4.526  0.00  0.00    +0.292 HD
ENDBRANCH   8  26
TORSDOF 3
