REMARK  Name = ZINC39679013
REMARK  14 active torsions:
REMARK  status: ('A' for Active; 'I' for Inactive)
REMARK    1  A    between atoms: C_1  and  C_2
REMARK    2  A    between atoms: C_2  and  C_3
REMARK    3  A    between atoms: C_3  and  C_4
REMARK    4  A    between atoms: C_4  and  C_5
REMARK    5  A    between atoms: C_5  and  C_6
REMARK    6  A    between atoms: C_6  and  C_7
REMARK    7  A    between atoms: C_11  and  C_20
REMARK    8  A    between atoms: N_22  and  C_23
REMARK    9  A    between atoms: C_23  and  C_24
REMARK   10  A    between atoms: C_24  and  C_25
REMARK   11  A    between atoms: C_25  and  C_26
REMARK   12  A    between atoms: C_26  and  N_27
REMARK   13  A    between atoms: N_27  and  C_28
REMARK   14  A    between atoms: N_27  and  C_29
REMARK                            x       y       z     vdW  Elec       q    Type
REMARK                         _______ _______ _______ _____ _____    ______ ____
ROOT
ATOM      1  C   UNL     1      -3.948  -4.674  -0.098  0.00  0.00    +0.216 C 
ATOM      2  O   UNL     1      -4.815  -3.825  -0.120  0.00  0.00    -0.276 OA
ATOM      3  N   UNL     1      -4.284  -5.979  -0.062  0.00  0.00    -0.300 N 
ATOM      4  C   UNL     1      -3.376  -7.149  -0.024  0.00  0.00    +0.121 C 
ATOM      5  C   UNL     1      -4.055  -8.139   0.949  0.00  0.00    +0.100 C 
ATOM      6  C   UNL     1      -5.544  -7.753   0.926  0.00  0.00    -0.004 C 
ATOM      7  C   UNL     1      -5.645  -6.567  -0.044  0.00  0.00    +0.115 C 
ATOM      8  C   UNL     1      -6.385  -8.922   0.422  0.00  0.00    -0.010 C 
ATOM      9  C   UNL     1      -7.866  -8.534   0.464  0.00  0.00    -0.082 C 
ATOM     10  N   UNL     1      -8.245  -8.189   1.839  0.00  0.00    +0.379 N 
ATOM     11  C   UNL     1      -7.497  -7.006   2.282  0.00  0.00    -0.082 C 
ATOM     12  C   UNL     1      -6.001  -7.329   2.318  0.00  0.00    -0.010 C 
ATOM     13  H   UNL     1      -9.234  -7.993   1.874  0.00  0.00    -0.086 HD
ATOM     14  H   UNL     1      -8.037  -8.965   2.449  0.00  0.00    -0.086 HD
ENDROOT
BRANCH   5  15
ATOM     15  C   UNL     1      -3.491  -7.980   2.337  0.00  0.00    +0.218 C 
ATOM     16  O   UNL     1      -3.080  -6.900   2.705  0.00  0.00    -0.275 OA
ATOM     17  N   UNL     1      -3.443  -9.038   3.170  0.00  0.00    -0.315 N 
ATOM     18  H   UNL     1      -3.772  -9.902   2.877  0.00  0.00    +0.149 HD
BRANCH  17  19
ATOM     19  C   UNL     1      -2.895  -8.884   4.520  0.00  0.00    +0.104 C 
BRANCH  19  20
ATOM     20  C   UNL     1      -2.957 -10.226   5.253  0.00  0.00    +0.017 C 
BRANCH  20  21
ATOM     21  C   UNL     1      -2.384 -10.064   6.662  0.00  0.00    -0.017 C 
BRANCH  21  22
ATOM     22  C   UNL     1      -2.446 -11.406   7.394  0.00  0.00    -0.080 C 
BRANCH  22  23
ATOM     23  N   UNL     1      -1.896 -11.251   8.748  0.00  0.00    +0.376 N 
ATOM     24  C   UNL     1      -2.064 -12.506   9.492  0.00  0.00    -0.097 C 
ATOM     25  C   UNL     1      -0.467 -10.921   8.661  0.00  0.00    -0.097 C 
ATOM     26  H   UNL     1      -2.384 -10.508   9.226  0.00  0.00    -0.083 HD
ENDBRANCH  22  23
ENDBRANCH  21  22
ENDBRANCH  20  21
ENDBRANCH  19  20
ENDBRANCH  17  19
ENDBRANCH   5  15
BRANCH   1  27
ATOM     27  C   UNL     1      -2.497  -4.269  -0.111  0.00  0.00    +0.096 C 
BRANCH  27  28
ATOM     28  C   UNL     1      -2.393  -2.744  -0.152  0.00  0.00    +0.009 C 
BRANCH  28  29
ATOM     29  C   UNL     1      -0.919  -2.333  -0.165  0.00  0.00    +0.000 C 
BRANCH  29  30
ATOM     30  C   UNL     1      -0.815  -0.807  -0.207  0.00  0.00    -0.000 C 
BRANCH  30  32
ATOM     31  C   UNL     1       0.762   1.130  -0.262  0.00  0.00    +0.004 C 
ATOM     32  C   UNL     1       0.658  -0.396  -0.220  0.00  0.00    -0.003 C 
ENDBRANCH  30  32
ENDBRANCH  29  30
ENDBRANCH  28  29
ENDBRANCH  27  28
ENDBRANCH   1  27
TORSDOF 11
