REMARK  Name = ZINC32842623
REMARK  13 active torsions:
REMARK  status: ('A' for Active; 'I' for Inactive)
REMARK    1  A    between atoms: C_1  and  C_2
REMARK    2  A    between atoms: C_2  and  O_3
REMARK    3  A    between atoms: O_3  and  C_4
REMARK    4  A    between atoms: C_4  and  C_6
REMARK    5  A    between atoms: C_10  and  N_11
REMARK    6  A    between atoms: C_12  and  C_14
REMARK    7  A    between atoms: C_14  and  O_15
REMARK    8  A    between atoms: O_15  and  C_16
REMARK    9  A    between atoms: C_21  and  C_22
REMARK   10  A    between atoms: C_25  and  C_31
REMARK   11  A    between atoms: C_25  and  C_32
REMARK   12  A    between atoms: C_27  and  C_29
REMARK   13  A    between atoms: C_27  and  C_30
REMARK                            x       y       z     vdW  Elec       q    Type
REMARK                         _______ _______ _______ _____ _____    ______ ____
ROOT
ATOM      1  C   UNL     1       1.496  -2.371   2.467  0.00  0.00    +0.091 A 
ATOM      2  C   UNL     1       0.805  -2.677   3.700  0.00  0.00    -0.024 A 
ATOM      3  C   UNL     1       1.594  -3.180   4.678  0.00  0.00    -0.016 A 
ATOM      4  S   UNL     1       3.205  -3.246   3.954  0.00  0.00    -0.079 S 
ATOM      5  C   UNL     1       2.862  -2.627   2.431  0.00  0.00    +0.086 A 
ATOM      6  C   UNL     1       1.161  -3.569   6.052  0.00  0.00    -0.041 C 
ATOM      7  N   UNL     1      -0.293  -3.536   6.205  0.00  0.00    +0.389 N 
ATOM      8  C   UNL     1      -1.080  -3.593   4.981  0.00  0.00    -0.069 C 
ATOM      9  C   UNL     1      -0.677  -2.498   3.985  0.00  0.00    +0.024 C 
ATOM     10  C   UNL     1      -0.959  -4.963   4.309  0.00  0.00    -0.010 C 
ATOM     11  C   UNL     1      -2.561  -3.375   5.347  0.00  0.00    -0.010 C 
ATOM     12  C   UNL     1       1.698  -4.969   6.381  0.00  0.00    -0.005 C 
ATOM     13  C   UNL     1       1.784  -2.576   7.053  0.00  0.00    -0.005 C 
ATOM     14  H   UNL     1      -0.574  -4.312   6.808  0.00  0.00    -0.084 HD
ATOM     15  H   UNL     1      -0.546  -2.687   6.715  0.00  0.00    -0.084 HD
ENDROOT
BRANCH   5  16
ATOM     16  N   UNL     1       3.739  -2.417   1.378  0.00  0.00    -0.277 N 
ATOM     17  C   UNL     1       5.044  -2.724   1.516  0.00  0.00    +0.255 C 
ATOM     18  O   UNL     1       5.451  -3.184   2.562  0.00  0.00    -0.272 OA
ATOM     19  H   UNL     1       3.413  -2.049   0.541  0.00  0.00    +0.155 HD
BRANCH  17  20
ATOM     20  C   UNL     1       5.997  -2.496   0.371  0.00  0.00    +0.324 C 
BRANCH  20  21
ATOM     21  O   UNL     1       7.312  -2.896   0.760  0.00  0.00    -0.482 OA
BRANCH  21  22
ATOM     22  C   UNL     1       8.297  -2.755  -0.163  0.00  0.00    +0.133 A 
ATOM     23  C   UNL     1       8.008  -2.237  -1.417  0.00  0.00    +0.046 A 
ATOM     24  C   UNL     1       9.010  -2.094  -2.355  0.00  0.00    +0.004 A 
ATOM     25  C   UNL     1      10.310  -2.466  -2.053  0.00  0.00    +0.001 A 
ATOM     26  C   UNL     1      10.616  -2.983  -0.813  0.00  0.00    +0.017 A 
ATOM     27  C   UNL     1       9.612  -3.127   0.148  0.00  0.00    +0.078 A 
BRANCH  27  28
ATOM     28  C   UNL     1       9.933  -3.674   1.480  0.00  0.00    +0.245 C 
ATOM     29  O   UNL     1       9.055  -3.803   2.312  0.00  0.00    -0.270 OA
ATOM     30  N   UNL     1      11.198  -4.030   1.775  0.00  0.00    -0.325 N 
ATOM     31  H   UNL     1      11.899  -3.927   1.112  0.00  0.00    +0.145 HD
ATOM     32  H   UNL     1      11.409  -4.390   2.651  0.00  0.00    +0.145 HD
ENDBRANCH  27  28
ENDBRANCH  21  22
ENDBRANCH  20  21
ENDBRANCH  17  20
ENDBRANCH   5  16
BRANCH   1  33
ATOM     33  C   UNL     1       0.801  -1.814   1.305  0.00  0.00    +0.342 C 
ATOM     34  O   UNL     1       0.321  -2.557   0.470  0.00  0.00    -0.245 OA
BRANCH  33  35
ATOM     35  O   UNL     1       0.693  -0.477   1.160  0.00  0.00    -0.461 OA
BRANCH  35  37
ATOM     36  C   UNL     1      -0.019   1.526   0.010  0.00  0.00    +0.048 C 
ATOM     37  C   UNL     1       0.002  -0.004   0.002  0.00  0.00    +0.229 C 
ENDBRANCH  35  37
ENDBRANCH  33  35
ENDBRANCH   1  33
TORSDOF 8
