REMARK  Name = ZINC41172505
REMARK  2 active torsions:
REMARK  status: ('A' for Active; 'I' for Inactive)
REMARK    1  A    between atoms: C_5  and  C_7
REMARK    2  A    between atoms: C_14  and  C_16
REMARK                            x       y       z     vdW  Elec       q    Type
REMARK                         _______ _______ _______ _____ _____    ______ ____
ROOT
ATOM      1  C   UNL     1       1.658  -2.243  -0.230  0.00  0.00    +0.167 C 
ATOM      2  C   UNL     1       1.476  -2.735   1.211  0.00  0.00    +0.144 C 
ATOM      3  N   UNL     1       1.347  -4.200   1.188  0.00  0.00    -0.290 N 
ATOM      4  C   UNL     1       0.372  -4.795   0.261  0.00  0.00    +0.136 C 
ATOM      5  C   UNL     1       0.608  -4.203  -1.133  0.00  0.00    +0.179 C 
ATOM      6  O   UNL     1       0.612  -2.776  -1.045  0.00  0.00    -0.369 OA
ATOM      7  C   UNL     1       2.101  -4.976   1.993  0.00  0.00    +0.282 C 
ATOM      8  O   UNL     1       2.986  -4.477   2.664  0.00  0.00    -0.267 OA
ENDROOT
BRANCH   1  13
ATOM      9  C   UNL     1       0.357   1.285  -0.566  0.00  0.00    +0.000 A 
ATOM     10  C   UNL     1       1.497   2.026  -0.312  0.00  0.00    +0.001 A 
ATOM     11  C   UNL     1       2.689   1.385  -0.032  0.00  0.00    +0.020 A 
ATOM     12  C   UNL     1       2.742   0.003  -0.005  0.00  0.00    +0.047 A 
ATOM     13  C   UNL     1       1.601  -0.737  -0.258  0.00  0.00    +0.001 A 
ATOM     14  C   UNL     1       0.409  -0.096  -0.539  0.00  0.00    +0.007 A 
ATOM     15 CL   UNL     1       4.239  -0.802   0.346  0.00  0.00    -0.083 Cl
ENDBRANCH   1  13
BRANCH   7  16
ATOM     16  C   UNL     1       1.855  -6.420   2.061  0.00  0.00    +0.189 A 
ATOM     17  C   UNL     1       2.626  -7.335   2.718  0.00  0.00    +0.054 A 
ATOM     18  C   UNL     1       2.023  -8.587   2.520  0.00  0.00    +0.042 A 
ATOM     19  C   UNL     1       0.924  -8.384   1.760  0.00  0.00    +0.196 A 
ATOM     20  O   UNL     1       0.824  -7.076   1.490  0.00  0.00    -0.458 OA
ENDBRANCH   7  16
TORSDOF 2
