REMARK  Name = ZINC19218595
REMARK  13 active torsions:
REMARK  status: ('A' for Active; 'I' for Inactive)
REMARK    1  A    between atoms: C_1  and  C_2
REMARK    2  A    between atoms: C_2  and  N_3
REMARK    3  A    between atoms: N_6  and  C_9
REMARK    4  A    between atoms: C_9  and  C_10
REMARK    5  A    between atoms: C_10  and  C_12
REMARK    6  A    between atoms: C_10  and  O_29
REMARK    7  A    between atoms: C_12  and  O_13
REMARK    8  A    between atoms: O_13  and  C_14
REMARK    9  A    between atoms: C_17  and  C_22
REMARK   10  A    between atoms: C_19  and  O_20
REMARK   11  A    between atoms: O_20  and  C_21
REMARK   12  A    between atoms: C_22  and  N_23
REMARK   13  A    between atoms: N_23  and  C_24
REMARK                            x       y       z     vdW  Elec       q    Type
REMARK                         _______ _______ _______ _____ _____    ______ ____
ROOT
ATOM      1  C   UNL     1       1.227  -2.526  -2.390  0.00  0.00    +0.162 A 
ATOM      2  C   UNL     1       1.871  -1.762  -3.350  0.00  0.00    +0.049 A 
ATOM      3  C   UNL     1       2.471  -2.377  -4.434  0.00  0.00    +0.005 A 
ATOM      4  C   UNL     1       2.430  -3.753  -4.562  0.00  0.00    -0.061 A 
ATOM      5  C   UNL     1       1.789  -4.520  -3.607  0.00  0.00    +0.051 A 
ATOM      6  C   UNL     1       1.190  -3.911  -2.516  0.00  0.00    +0.162 A 
ENDROOT
BRANCH   6   7
ATOM      7  O   UNL     1       0.564  -4.665  -1.573  0.00  0.00    -0.491 OA
ATOM      8  C   UNL     1       0.567  -6.080  -1.768  0.00  0.00    +0.277 C 
ENDBRANCH   6   7
BRANCH   1   9
ATOM      9  O   UNL     1       0.636  -1.923  -1.324  0.00  0.00    -0.486 OA
BRANCH   9  10
ATOM     10  C   UNL     1       0.718  -0.497  -1.257  0.00  0.00    +0.261 C 
BRANCH  10  11
ATOM     11  C   UNL     1       0.002  -0.004   0.002  0.00  0.00    +0.166 C 
BRANCH  11  12
ATOM     12  O   UNL     1       0.693  -0.477   1.160  0.00  0.00    -0.387 OA
ATOM     13  H   UNL     1       0.810  -1.558   1.327  0.00  0.00    +0.210 HD
ENDBRANCH  11  12
BRANCH  11  14
ATOM     14  C   UNL     1      -0.019   1.526   0.010  0.00  0.00    +0.119 C 
BRANCH  14  18
ATOM     15  N   UNL     1      -2.626   3.525   2.666  0.00  0.00    +0.381 N 
ATOM     16  C   UNL     1      -1.202   3.891   2.693  0.00  0.00    -0.063 C 
ATOM     17  C   UNL     1      -0.541   3.450   1.384  0.00  0.00    +0.066 C 
ATOM     18  N   UNL     1      -0.706   2.000   1.219  0.00  0.00    -0.303 NA
ATOM     19  C   UNL     1      -2.129   1.634   1.193  0.00  0.00    +0.066 C 
ATOM     20  C   UNL     1      -2.791   2.074   2.501  0.00  0.00    -0.063 C 
ATOM     21  H   UNL     1      -3.088   4.021   1.800  0.00  0.00    -0.082 HD
BRANCH  15  23
ATOM     22  C   UNL     1      -4.824   3.825   3.704  0.00  0.00    -0.017 C 
ATOM     23  C   UNL     1      -3.313   3.999   3.875  0.00  0.00    -0.082 C 
ENDBRANCH  15  23
ENDBRANCH  14  18
ENDBRANCH  11  14
ENDBRANCH  10  11
ENDBRANCH   9  10
ENDBRANCH   1   9
BRANCH   4  24
ATOM     24  C   UNL     1       3.086  -4.417  -5.745  0.00  0.00    -0.046 C 
BRANCH  24  25
ATOM     25  N   UNL     1       4.482  -4.735  -5.416  0.00  0.00    +0.384 N 
ATOM     26  H   UNL     1       5.021  -3.808  -5.170  0.00  0.00    -0.085 HD
ATOM     27  H   UNL     1       4.510  -5.415  -4.551  0.00  0.00    -0.085 HD
BRANCH  25  28
ATOM     28  C   UNL     1       5.155  -5.386  -6.548  0.00  0.00    -0.071 C 
ATOM     29  C   UNL     1       4.938  -6.912  -6.485  0.00  0.00    -0.016 C 
ATOM     30  C   UNL     1       6.282  -7.507  -6.973  0.00  0.00    -0.002 C 
ATOM     31  C   UNL     1       7.327  -6.547  -6.351  0.00  0.00    -0.002 C 
ATOM     32  C   UNL     1       6.674  -5.154  -6.463  0.00  0.00    -0.016 C 
ENDBRANCH  25  28
ENDBRANCH  24  25
ENDBRANCH   4  24
TORSDOF 11
