REMARK  Name = ZINC43290157
REMARK  9 active torsions:
REMARK  status: ('A' for Active; 'I' for Inactive)
REMARK    1  A    between atoms: C_1  and  C_2
REMARK    2  A    between atoms: C_2  and  C_3
REMARK    3  A    between atoms: C_3  and  C_5
REMARK    4  A    between atoms: C_3  and  N_21
REMARK    5  A    between atoms: C_5  and  C_7
REMARK    6  A    between atoms: C_5  and  O_13
REMARK    7  A    between atoms: O_13  and  C_14
REMARK    8  A    between atoms: C_14  and  C_15
REMARK    9  A    between atoms: C_15  and  C_16
REMARK                            x       y       z     vdW  Elec       q    Type
REMARK                         _______ _______ _______ _____ _____    ______ ____
ROOT
ATOM      1  C   UNL     1       0.979  -2.040  -1.142  0.00  0.00    +0.140 C 
ENDROOT
BRANCH   1   2
ATOM      2  C   UNL     1       1.921  -2.794  -2.046  0.00  0.00    +0.018 A 
ATOM      3  C   UNL     1       3.235  -3.075  -1.865  0.00  0.00    +0.029 A 
ATOM      4  C   UNL     1       3.907  -3.789  -2.840  0.00  0.00    +0.025 A 
ATOM      5  C   UNL     1       3.233  -4.186  -3.947  0.00  0.00    +0.060 A 
ATOM      6  S   UNL     1       1.594  -3.553  -3.628  0.00  0.00    -0.098 S 
ATOM      7 BR   UNL     1       5.740  -4.205  -2.632  0.00  0.00    -0.050 Br
ENDBRANCH   1   2
BRANCH   1   8
ATOM      8  C   UNL     1       0.819  -0.607  -1.653  0.00  0.00    -0.041 C 
BRANCH   8   9
ATOM      9  N   UNL     1       0.266  -0.632  -3.014  0.00  0.00    +0.382 N 
ATOM     10  H   UNL     1       0.160   0.313  -3.351  0.00  0.00    -0.090 HD
ATOM     11  H   UNL     1       0.891  -1.138  -3.623  0.00  0.00    -0.090 HD
ATOM     12  H   UNL     1      -0.634  -1.088  -3.003  0.00  0.00    -0.090 HD
ENDBRANCH   8   9
BRANCH   8  14
ATOM     13  C   UNL     1      -0.180   1.629  -1.159  0.00  0.00    +0.002 C 
ATOM     14  C   UNL     1      -0.130   0.160  -0.731  0.00  0.00    -0.017 C 
ENDBRANCH   8  14
ENDBRANCH   1   8
BRANCH   1  15
ATOM     15  O   UNL     1      -0.294  -2.688  -1.134  0.00  0.00    -0.373 OA
BRANCH  15  16
ATOM     16  C   UNL     1      -0.892  -2.779   0.160  0.00  0.00    +0.166 C 
BRANCH  16  17
ATOM     17  C   UNL     1      -2.278  -3.415   0.038  0.00  0.00    +0.070 C 
BRANCH  17  18
ATOM     18  C   UNL     1      -2.909  -3.511   1.404  0.00  0.00    -0.008 A 
ATOM     19  C   UNL     1      -3.697  -2.614   2.045  0.00  0.00    +0.011 A 
ATOM     20  C   UNL     1      -4.169  -2.918   3.308  0.00  0.00    +0.008 A 
ATOM     21  C   UNL     1      -3.830  -4.104   3.868  0.00  0.00    +0.045 A 
ATOM     22  S   UNL     1      -2.819  -4.839   2.593  0.00  0.00    -0.102 S 
ENDBRANCH  17  18
ENDBRANCH  16  17
ENDBRANCH  15  16
ENDBRANCH   1  15
TORSDOF 8
