REMARK  Name = ZINC57997035
REMARK  14 active torsions:
REMARK  status: ('A' for Active; 'I' for Inactive)
REMARK    1  A    between atoms: C_1  and  C_2
REMARK    2  A    between atoms: C_5  and  S_8
REMARK    3  A    between atoms: S_8  and  N_11
REMARK    4  A    between atoms: N_11  and  C_12
REMARK    5  A    between atoms: C_12  and  C_14
REMARK    6  A    between atoms: C_12  and  C_18
REMARK    7  A    between atoms: C_14  and  C_15
REMARK    8  A    between atoms: C_15  and  S_16
REMARK    9  A    between atoms: S_16  and  C_17
REMARK   10  A    between atoms: N_20  and  C_21
REMARK   11  A    between atoms: C_21  and  C_22
REMARK   12  A    between atoms: C_22  and  C_23
REMARK   13  A    between atoms: C_23  and  N_24
REMARK   14  A    between atoms: C_29  and  C_31
REMARK                            x       y       z     vdW  Elec       q    Type
REMARK                         _______ _______ _______ _____ _____    ______ ____
ROOT
ATOM      1  C   UNL     1       2.574  -4.629   1.053  0.00  0.00    +0.163 C 
ENDROOT
BRANCH   1   2
ATOM      2  C   UNL     1       3.933  -4.191   0.571  0.00  0.00    +0.232 C 
ATOM      3  O   UNL     1       4.190  -4.207  -0.614  0.00  0.00    -0.274 OA
ATOM      4  N   UNL     1       4.862  -3.781   1.456  0.00  0.00    -0.314 N 
ATOM      5  H   UNL     1       4.657  -3.768   2.404  0.00  0.00    +0.149 HD
BRANCH   4   6
ATOM      6  C   UNL     1       6.183  -3.355   0.988  0.00  0.00    +0.102 C 
BRANCH   6   7
ATOM      7  C   UNL     1       7.041  -2.943   2.186  0.00  0.00    +0.000 C 
BRANCH   7   8
ATOM      8  C   UNL     1       8.421  -2.498   1.696  0.00  0.00    -0.077 C 
BRANCH   8   9
ATOM      9  N   UNL     1       9.244  -2.102   2.846  0.00  0.00    +0.381 N 
ATOM     10  C   UNL     1       9.484  -3.272   3.700  0.00  0.00    -0.078 C 
ATOM     11  C   UNL     1      10.273  -2.849   4.941  0.00  0.00    -0.019 C 
ATOM     12  C   UNL     1      11.613  -2.248   4.507  0.00  0.00    -0.003 C 
ATOM     13  C   UNL     1      11.352  -1.075   3.558  0.00  0.00    -0.016 C 
ATOM     14  C   UNL     1      10.523  -1.563   2.368  0.00  0.00    -0.072 C 
ATOM     15  C   UNL     1      10.260  -0.395   1.417  0.00  0.00    -0.013 C 
ATOM     16  H   UNL     1       8.760  -1.394   3.378  0.00  0.00    -0.081 HD
ENDBRANCH   8   9
ENDBRANCH   7   8
ENDBRANCH   6   7
ENDBRANCH   4   6
ENDBRANCH   1   2
BRANCH   1  17
ATOM     17  N   UNL     1       1.752  -5.024  -0.094  0.00  0.00    -0.178 NA
ATOM     18  H   UNL     1       1.998  -5.799  -0.623  0.00  0.00    +0.149 HD
BRANCH  17  19
ATOM     19  S   UNL     1       0.404  -4.147  -0.488  0.00  0.00    +0.059 S 
ATOM     20  O   UNL     1      -0.333  -3.974   0.714  0.00  0.00    -0.153 OA
ATOM     21  O   UNL     1      -0.155  -4.758  -1.643  0.00  0.00    -0.153 OA
BRANCH  19  26
ATOM     22  C   UNL     1       2.269   1.339  -2.171  0.00  0.00    +0.044 C 
ATOM     23  C   UNL     1       1.803  -0.031  -1.751  0.00  0.00    -0.050 A 
ATOM     24  C   UNL     1       1.676  -1.036  -2.691  0.00  0.00    +0.005 A 
ATOM     25  C   UNL     1       1.249  -2.293  -2.305  0.00  0.00    +0.029 A 
ATOM     26  C   UNL     1       0.949  -2.545  -0.979  0.00  0.00    +0.105 A 
ATOM     27  C   UNL     1       1.077  -1.540  -0.039  0.00  0.00    +0.029 A 
ATOM     28  C   UNL     1       1.508  -0.284  -0.424  0.00  0.00    +0.005 A 
ENDBRANCH  19  26
ENDBRANCH  17  19
ENDBRANCH   1  17
BRANCH   1  29
ATOM     29  C   UNL     1       2.728  -5.818   2.003  0.00  0.00    +0.040 C 
BRANCH  29  30
ATOM     30  C   UNL     1       1.365  -6.178   2.596  0.00  0.00    +0.071 C 
BRANCH  30  31
ATOM     31  S   UNL     1       1.524  -7.670   3.615  0.00  0.00    -0.164 S 
ATOM     32  C   UNL     1      -0.156  -7.958   4.236  0.00  0.00    +0.084 C 
ENDBRANCH  30  31
ENDBRANCH  29  30
ENDBRANCH   1  29
TORSDOF 11
