REMARK  Name = ZINC02127492
REMARK  6 active torsions:
REMARK  status: ('A' for Active; 'I' for Inactive)
REMARK    1  A    between atoms: C_1  and  C_2
REMARK    2  A    between atoms: C_7  and  C_8
REMARK    3  A    between atoms: C_17  and  C_19
REMARK    4  A    between atoms: C_19  and  C_20
REMARK    5  A    between atoms: N_25  and  C_28
REMARK    6  A    between atoms: C_28  and  C_29
REMARK                            x       y       z     vdW  Elec       q    Type
REMARK                         _______ _______ _______ _____ _____    ______ ____
ROOT
ATOM      1  C   UNL     1       6.128   6.129   1.848  0.00  0.00    +0.044 C 
ATOM      2  C   UNL     1       4.863   5.356   1.573  0.00  0.00    -0.046 A 
ATOM      3  C   UNL     1       4.596   4.200   2.283  0.00  0.00    +0.004 A 
ATOM      4  C   UNL     1       3.435   3.490   2.030  0.00  0.00    +0.005 A 
ATOM      5  C   UNL     1       2.549   3.935   1.073  0.00  0.00    -0.027 A 
ATOM      6  C   UNL     1       2.808   5.099   0.355  0.00  0.00    +0.039 A 
ATOM      7  C   UNL     1       3.979   5.807   0.616  0.00  0.00    -0.026 A 
ATOM      8  C   UNL     1       4.280   7.068  -0.152  0.00  0.00    +0.046 C 
ATOM      9  N   UNL     1       1.773   5.348  -0.549  0.00  0.00    -0.286 N 
ATOM     10  C   UNL     1       0.809   4.408  -0.490  0.00  0.00    +0.211 C 
ATOM     11  O   UNL     1      -0.205   4.367  -1.154  0.00  0.00    -0.277 OA
ATOM     12  C   UNL     1       1.235   3.419   0.561  0.00  0.00    +0.050 C 
ATOM     13  C   UNL     1       0.195   3.311   1.683  0.00  0.00    +0.088 C 
ATOM     14  C   UNL     1      -0.635   2.047   1.325  0.00  0.00    +0.073 C 
ATOM     15  C   UNL     1      -0.019   1.526   0.010  0.00  0.00    -0.049 C 
ATOM     16  C   UNL     1      -0.310   1.087   2.446  0.00  0.00    +0.224 C 
ATOM     17  O   UNL     1      -0.745  -0.040   2.552  0.00  0.00    -0.275 OA
ATOM     18  N   UNL     1       0.533   1.673   3.304  0.00  0.00    -0.237 N 
ATOM     19  C   UNL     1       0.880   2.923   2.974  0.00  0.00    +0.225 C 
ATOM     20  O   UNL     1       1.627   3.634   3.612  0.00  0.00    -0.275 OA
ATOM     21  H   UNL     1       1.750   6.109  -1.150  0.00  0.00    +0.155 HD
ATOM     22  N   UNL     1       1.338   2.079   0.012  0.00  0.00    +0.394 N 
ATOM     23  H   UNL     1       1.955   1.502   0.595  0.00  0.00    -0.083 HD
ATOM     24  H   UNL     1       1.707   2.115  -0.946  0.00  0.00    -0.083 HD
ENDROOT
BRANCH  15  25
ATOM     25  C   UNL     1       0.002  -0.004   0.002  0.00  0.00    +0.080 C 
BRANCH  25  26
ATOM     26  C   UNL     1       0.564  -0.492  -1.309  0.00  0.00    +0.209 C 
ATOM     27  O   UNL     1       0.913   0.306  -2.153  0.00  0.00    -0.276 OA
ATOM     28  N   UNL     1       0.678  -1.814  -1.542  0.00  0.00    -0.329 N 
ATOM     29  H   UNL     1       0.399  -2.452  -0.867  0.00  0.00    +0.145 HD
ATOM     30  H   UNL     1       1.040  -2.128  -2.386  0.00  0.00    +0.145 HD
ENDBRANCH  25  26
ENDBRANCH  15  25
BRANCH  18  31
ATOM     31  C   UNL     1       1.035   1.003   4.506  0.00  0.00    +0.151 C 
BRANCH  31  32
ATOM     32  C   UNL     1       0.103   1.274   5.659  0.00  0.00    -0.030 A 
ATOM     33  C   UNL     1       0.311   2.373   6.472  0.00  0.00    +0.005 A 
ATOM     34  C   UNL     1      -0.547   2.625   7.526  0.00  0.00    +0.000 A 
ATOM     35  C   UNL     1      -1.607   1.772   7.773  0.00  0.00    +0.000 A 
ATOM     36  C   UNL     1      -1.812   0.671   6.964  0.00  0.00    +0.000 A 
ATOM     37  C   UNL     1      -0.957   0.422   5.906  0.00  0.00    +0.005 A 
ENDBRANCH  31  32
ENDBRANCH  18  31
TORSDOF 4
