REMARK  Name = ZINC25197333
REMARK  3 active torsions:
REMARK  status: ('A' for Active; 'I' for Inactive)
REMARK    1  A    between atoms: C_1  and  N_14
REMARK    2  A    between atoms: C_3  and  C_9
REMARK    3  A    between atoms: N_11  and  N_12
REMARK                            x       y       z     vdW  Elec       q    Type
REMARK                         _______ _______ _______ _____ _____    ______ ____
ROOT
ATOM      1  C   UNL     1      -0.017   1.389   0.010  0.00  0.00    +0.067 A 
ATOM      2  C   UNL     1       1.203   2.068   0.002  0.00  0.00    +0.094 A 
ATOM      3  C   UNL     1       2.384   1.333  -0.013  0.00  0.00    +0.148 A 
ATOM      4  N   UNL     1       2.354   0.004  -0.021  0.00  0.00    -0.228 NA
ATOM      5  C   UNL     1       1.220  -0.665  -0.014  0.00  0.00    +0.150 A 
ATOM      6  C   UNL     1       0.002  -0.004   0.002  0.00  0.00    +0.100 A 
ATOM      7 CL   UNL     1      -1.484  -0.902   0.011  0.00  0.00    -0.078 Cl
ATOM      8 CL   UNL     1       1.252  -2.401  -0.024  0.00  0.00    -0.060 Cl
ATOM      9 CL   UNL     1       1.245   3.804   0.010  0.00  0.00    -0.079 Cl
ENDROOT
BRANCH   3  10
ATOM     10  C   UNL     1       3.686   2.038  -0.022  0.00  0.00    +0.277 C 
ATOM     11  O   UNL     1       3.719   3.252  -0.016  0.00  0.00    -0.267 OA
ATOM     12  N   UNL     1       4.834   1.332  -0.037  0.00  0.00    -0.248 N 
ATOM     13  H   UNL     1       4.807   0.362  -0.042  0.00  0.00    +0.169 HD
BRANCH  12  14
ATOM     14  N   UNL     1       6.035   1.982  -0.045  0.00  0.00    -0.254 NA
ATOM     15  H   UNL     1       6.801   1.325  -0.056  0.00  0.00    +0.140 HD
ATOM     16  H   UNL     1       6.095   2.621  -0.824  0.00  0.00    +0.140 HD
ENDBRANCH  12  14
ENDBRANCH   3  10
BRANCH   1  17
ATOM     17  N   UNL     1      -1.223   2.087   0.031  0.00  0.00    -0.356 N 
ATOM     18  H   UNL     1      -2.063   1.603   0.040  0.00  0.00    +0.142 HD
ATOM     19  H   UNL     1      -1.222   3.057   0.036  0.00  0.00    +0.142 HD
ENDBRANCH   1  17
TORSDOF 3
