REMARK  Name = ZINC09358457
REMARK  7 active torsions:
REMARK  status: ('A' for Active; 'I' for Inactive)
REMARK    1  A    between atoms: C_1  and  O_2
REMARK    2  A    between atoms: O_2  and  C_3
REMARK    3  A    between atoms: C_3  and  C_4
REMARK    4  A    between atoms: C_4  and  N_5
REMARK    5  A    between atoms: C_8  and  C_14
REMARK    6  A    between atoms: C_9  and  O_13
REMARK    7  A    between atoms: C_11  and  S_12
REMARK                            x       y       z     vdW  Elec       q    Type
REMARK                         _______ _______ _______ _____ _____    ______ ____
ROOT
ATOM      1  C   UNL     1       3.619   4.892  -0.007  0.00  0.00    +0.018 C 
ATOM      2  C   UNL     1       2.879   3.574  -0.008  0.00  0.00    +0.011 A 
ATOM      3  C   UNL     1       1.533   3.489   0.003  0.00  0.00    -0.022 A 
ATOM      4  C   UNL     1       1.185   2.074   0.002  0.00  0.00    +0.003 A 
ATOM      5  C   UNL     1      -0.016   1.362   0.009  0.00  0.00    +0.010 A 
ATOM      6  C   UNL     1       0.002  -0.004   0.002  0.00  0.00    +0.001 A 
ATOM      7  C   UNL     1       1.207  -0.693  -0.012  0.00  0.00    +0.002 A 
ATOM      8  C   UNL     1       2.405  -0.013  -0.019  0.00  0.00    +0.026 A 
ATOM      9  C   UNL     1       2.410   1.378  -0.012  0.00  0.00    +0.047 A 
ATOM     10  N   UNL     1       3.417   2.320  -0.016  0.00  0.00    -0.359 N 
ATOM     11  H   UNL     1       4.366   2.121  -0.025  0.00  0.00    +0.166 HD
ATOM     12  C   UNL     1       0.618   4.686   0.011  0.00  0.00    +0.018 C 
ATOM     13  C   UNL     1       1.446   5.916  -0.386  0.00  0.00    -0.076 C 
ATOM     14  N   UNL     1       2.686   5.960   0.417  0.00  0.00    +0.388 N 
ATOM     15  H   UNL     1       3.138   6.873   0.292  0.00  0.00    -0.084 HD
ATOM     16  H   UNL     1       2.450   5.828   1.408  0.00  0.00    -0.084 HD
ENDROOT
BRANCH   1  20
ATOM     17  N   UNL     1       5.600   4.625   3.170  0.00  0.00    -0.285 N 
ATOM     18  C   UNL     1       4.541   4.680   2.335  0.00  0.00    +0.260 A 
ATOM     19  O   UNL     1       3.403   4.604   2.769  0.00  0.00    -0.267 OA
ATOM     20  C   UNL     1       4.771   4.827   0.962  0.00  0.00    +0.070 A 
ATOM     21  C   UNL     1       6.078   4.904   0.510  0.00  0.00    +0.222 A 
ATOM     22  N   UNL     1       7.087   4.848   1.383  0.00  0.00    -0.189 NA
ATOM     23  C   UNL     1       6.865   4.711   2.675  0.00  0.00    +0.172 A 
BRANCH  23  24
ATOM     24  S   UNL     1       8.233   4.637   3.783  0.00  0.00    -0.105 S 
ATOM     25  H   UNL     1       9.298   4.760   2.866  0.00  0.00    +0.110 HD
ENDBRANCH  23  24
BRANCH  21  26
ATOM     26  O   UNL     1       6.332   5.040  -0.813  0.00  0.00    -0.492 OA
ATOM     27  H   UNL     1       7.273   5.085  -1.030  0.00  0.00    +0.294 HD
ENDBRANCH  21  26
BRANCH  17  28
ATOM     28  C   UNL     1       5.387   4.473   4.612  0.00  0.00    +0.155 C 
BRANCH  28  29
ATOM     29  C   UNL     1       5.353   2.985   4.968  0.00  0.00    +0.181 C 
BRANCH  29  31
ATOM     30  C   UNL     1       6.710   1.010   5.012  0.00  0.00    +0.194 C 
ATOM     31  O   UNL     1       6.633   2.405   4.711  0.00  0.00    -0.381 OA
ENDBRANCH  29  31
ENDBRANCH  28  29
ENDBRANCH  17  28
ENDBRANCH   1  20
TORSDOF 6
