REMARK  Name = ZINC02955282
REMARK  4 active torsions:
REMARK  status: ('A' for Active; 'I' for Inactive)
REMARK    1  A    between atoms: C_3  and  N_35
REMARK    2  A    between atoms: C_6  and  C_7
REMARK    3  A    between atoms: C_18  and  S_31
REMARK    4  A    between atoms: S_31  and  N_34
REMARK                            x       y       z     vdW  Elec       q    Type
REMARK                         _______ _______ _______ _____ _____    ______ ____
ROOT
ATOM      1  C   UNL     1       2.157   5.154  -0.840  0.00  0.00    +0.108 C 
ATOM      2  C   UNL     1       1.127   5.913  -0.019  0.00  0.00    +0.029 C 
ATOM      3  C   UNL     1       1.601   6.045   1.445  0.00  0.00    +0.033 C 
ATOM      4  C   UNL     1       0.336   5.904   2.262  0.00  0.00    -0.030 C 
ATOM      5  C   UNL     1      -0.625   5.380   1.550  0.00  0.00    -0.023 C 
ATOM      6  C   UNL     1      -0.153   5.081   0.141  0.00  0.00    +0.049 C 
ATOM      7  C   UNL     1       0.105   3.605   0.022  0.00  0.00    -0.017 A 
ATOM      8  C   UNL     1      -1.007   2.773   0.026  0.00  0.00    +0.034 A 
ATOM      9  C   UNL     1      -0.859   1.405  -0.058  0.00  0.00    +0.106 A 
ATOM     10  C   UNL     1       0.404   0.857  -0.117  0.00  0.00    +0.034 A 
ATOM     11  C   UNL     1       1.527   1.674  -0.119  0.00  0.00    -0.017 A 
ATOM     12  C   UNL     1       1.375   3.054  -0.090  0.00  0.00    +0.038 A 
ATOM     13  N   UNL     1       2.491   3.891  -0.164  0.00  0.00    -0.322 N 
ATOM     14  C   UNL     1       3.610   3.249  -0.867  0.00  0.00    +0.110 C 
ATOM     15  C   UNL     1       4.029   1.992  -0.107  0.00  0.00    +0.021 C 
ATOM     16  C   UNL     1       2.863   0.991  -0.112  0.00  0.00    +0.048 C 
ATOM     17  C   UNL     1       3.049   0.175  -1.368  0.00  0.00    -0.023 C 
ATOM     18  C   UNL     1       4.263   0.308  -1.832  0.00  0.00    -0.030 C 
ATOM     19  C   UNL     1       5.079   1.235  -0.960  0.00  0.00    +0.033 C 
ENDROOT
BRANCH   1  25
ATOM     20  C   UNL     1       1.218   5.897  -3.038  0.00  0.00    +0.008 A 
ATOM     21  C   UNL     1       0.705   5.626  -4.292  0.00  0.00    +0.033 A 
ATOM     22  C   UNL     1       0.555   4.317  -4.710  0.00  0.00    +0.126 A 
ATOM     23  C   UNL     1       0.924   3.279  -3.875  0.00  0.00    +0.033 A 
ATOM     24  C   UNL     1       1.443   3.550  -2.623  0.00  0.00    +0.008 A 
ATOM     25  C   UNL     1       1.592   4.859  -2.205  0.00  0.00    -0.027 A 
BRANCH  22  26
ATOM     26  N   UNL     1      -0.000   4.027  -6.051  0.00  0.00    +0.056 N 
ATOM     27  O   UNL     1      -0.133   2.873  -6.419  0.00  0.00    -0.126 OA
ATOM     28  O   UNL     1      -0.326   4.941  -6.786  0.00  0.00    -0.126 OA
ENDBRANCH  22  26
ENDBRANCH   1  25
BRANCH   9  29
ATOM     29  S   UNL     1      -2.278   0.362  -0.083  0.00  0.00    +0.056 S 
ATOM     30  O   UNL     1      -3.356   1.152  -0.567  0.00  0.00    -0.153 OA
ATOM     31  O   UNL     1      -1.881  -0.850  -0.710  0.00  0.00    -0.153 OA
BRANCH  29  32
ATOM     32  N   UNL     1      -2.636  -0.015   1.490  0.00  0.00    -0.204 NA
ATOM     33  H   UNL     1      -2.089   0.337   2.209  0.00  0.00    +0.144 HD
ATOM     34  H   UNL     1      -3.393  -0.587   1.691  0.00  0.00    +0.144 HD
ENDBRANCH  29  32
ENDBRANCH   9  29
TORSDOF 4
