REMARK  Name = ZINC58866832
REMARK  11 active torsions:
REMARK  status: ('A' for Active; 'I' for Inactive)
REMARK    1  A    between atoms: C_1  and  C_2
REMARK    2  A    between atoms: C_6  and  C_29
REMARK    3  A    between atoms: C_7  and  N_8
REMARK    4  A    between atoms: C_9  and  C_11
REMARK    5  A    between atoms: C_11  and  N_12
REMARK    6  A    between atoms: N_12  and  C_13
REMARK    7  A    between atoms: C_13  and  C_14
REMARK    8  A    between atoms: C_14  and  N_15
REMARK    9  A    between atoms: N_15  and  C_16
REMARK   10  A    between atoms: C_19  and  C_25
REMARK   11  A    between atoms: C_21  and  N_22
REMARK                            x       y       z     vdW  Elec       q    Type
REMARK                         _______ _______ _______ _____ _____    ______ ____
ROOT
ATOM      1  C   UNL     1      -1.612   0.058   7.091  0.00  0.00    -0.063 C 
ENDROOT
BRANCH   1   2
ATOM      2  N   UNL     1      -1.755  -0.716   5.850  0.00  0.00    +0.386 N 
ATOM      3  H   UNL     1      -2.597  -1.270   5.894  0.00  0.00    -0.085 HD
ATOM      4  H   UNL     1      -0.957  -1.324   5.740  0.00  0.00    -0.085 HD
BRANCH   2   5
ATOM      5  C   UNL     1      -1.832   0.202   4.706  0.00  0.00    +0.015 C 
BRANCH   5   7
ATOM      6  N   UNL     1      -2.068   0.044   2.249  0.00  0.00    -0.287 N 
ATOM      7  C   UNL     1      -1.978  -0.592   3.434  0.00  0.00    +0.200 C 
ATOM      8  O   UNL     1      -2.014  -1.804   3.476  0.00  0.00    -0.278 OA
ATOM      9  H   UNL     1      -1.990   1.010   2.210  0.00  0.00    +0.155 HD
BRANCH   6  16
ATOM     10  C   UNL     1      -0.476   0.670  -0.025  0.00  0.00    +0.045 C 
ATOM     11  C   UNL     1      -1.519  -0.417  -0.058  0.00  0.00    -0.029 A 
ATOM     12  C   UNL     1      -1.721  -1.146  -1.213  0.00  0.00    +0.005 A 
ATOM     13  C   UNL     1      -2.678  -2.143  -1.244  0.00  0.00    +0.001 A 
ATOM     14  C   UNL     1      -3.436  -2.414  -0.119  0.00  0.00    +0.005 A 
ATOM     15  C   UNL     1      -3.239  -1.688   1.039  0.00  0.00    -0.029 A 
ATOM     16  C   UNL     1      -2.274  -0.689   1.075  0.00  0.00    +0.039 A 
ATOM     17  C   UNL     1      -4.066  -1.983   2.264  0.00  0.00    +0.045 C 
ENDBRANCH   6  16
ENDBRANCH   5   7
ENDBRANCH   2   5
ENDBRANCH   1   2
BRANCH   1  18
ATOM     18  C   UNL     1      -1.532  -0.898   8.282  0.00  0.00    +0.082 C 
BRANCH  18  19
ATOM     19  N   UNL     1      -1.390  -0.126   9.519  0.00  0.00    -0.344 N 
ATOM     20  H   UNL     1      -1.361   0.843   9.486  0.00  0.00    +0.146 HD
BRANCH  19  21
ATOM     21  C   UNL     1      -1.297  -0.785  10.747  0.00  0.00    +0.058 A 
ATOM     22  C   UNL     1      -1.474  -2.161  10.814  0.00  0.00    +0.026 A 
ATOM     23  C   UNL     1      -1.380  -2.810  12.029  0.00  0.00    +0.014 A 
ATOM     24  C   UNL     1      -1.110  -2.091  13.180  0.00  0.00    +0.057 A 
ATOM     25  C   UNL     1      -0.934  -0.721  13.117  0.00  0.00    +0.047 A 
ATOM     26  C   UNL     1      -1.020  -0.066  11.903  0.00  0.00    +0.147 A 
BRANCH  24  27
ATOM     27  C   UNL     1      -1.009  -2.802  14.504  0.00  0.00    +0.417 C 
ATOM     28  F   UNL     1      -1.223  -4.171  14.316  0.00  0.00    -0.166 F 
ATOM     29  F   UNL     1       0.265  -2.599  15.046  0.00  0.00    -0.166 F 
ATOM     30  F   UNL     1      -1.974  -2.295  15.381  0.00  0.00    -0.166 F 
ENDBRANCH  24  27
BRANCH  26  31
ATOM     31  N   UNL     1      -0.825   1.399  11.836  0.00  0.00    +0.058 N 
ATOM     32  O   UNL     1      -0.234   1.888  10.902  0.00  0.00    -0.126 OA
ATOM     33  O   UNL     1      -1.257   2.107  12.716  0.00  0.00    -0.126 OA
ENDBRANCH  26  31
ENDBRANCH  19  21
ENDBRANCH  18  19
ENDBRANCH   1  18
TORSDOF 9
