REMARK  Name = ZINC56520831
REMARK  9 active torsions:
REMARK  status: ('A' for Active; 'I' for Inactive)
REMARK    1  A    between atoms: C_1  and  C_2
REMARK    2  A    between atoms: C_2  and  C_4
REMARK    3  A    between atoms: C_2  and  N_12
REMARK    4  A    between atoms: C_13  and  C_15
REMARK    5  A    between atoms: C_15  and  N_16
REMARK    6  A    between atoms: N_16  and  C_17
REMARK    7  A    between atoms: N_16  and  C_18
REMARK    8  A    between atoms: C_18  and  C_19
REMARK    9  A    between atoms: C_23  and  C_25
REMARK                            x       y       z     vdW  Elec       q    Type
REMARK                         _______ _______ _______ _____ _____    ______ ____
ROOT
ATOM      1  C   UNL     1       0.780  -1.133   3.576  0.00  0.00    +0.019 C 
ENDROOT
BRANCH   1   3
ATOM      2  N   UNL     1       0.711  -0.489   1.189  0.00  0.00    -0.310 N 
ATOM      3  C   UNL     1       0.051  -0.633   2.355  0.00  0.00    +0.197 C 
ATOM      4  O   UNL     1      -1.129  -0.361   2.423  0.00  0.00    -0.278 OA
ATOM      5  H   UNL     1       1.654  -0.707   1.135  0.00  0.00    +0.149 HD
BRANCH   2   7
ATOM      6  C   UNL     1      -0.019   1.526   0.010  0.00  0.00    +0.033 C 
ATOM      7  C   UNL     1       0.002  -0.004   0.002  0.00  0.00    +0.100 C 
BRANCH   7   8
ATOM      8  C   UNL     1       0.707  -0.490  -1.238  0.00  0.00    -0.026 A 
ATOM      9  C   UNL     1       2.089  -0.511  -1.284  0.00  0.00    +0.007 A 
ATOM     10  C   UNL     1       2.737  -0.956  -2.420  0.00  0.00    +0.022 A 
ATOM     11  C   UNL     1       2.003  -1.381  -3.513  0.00  0.00    +0.059 A 
ATOM     12  C   UNL     1       0.620  -1.361  -3.467  0.00  0.00    +0.060 A 
ATOM     13  C   UNL     1      -0.027  -0.920  -2.327  0.00  0.00    +0.027 A 
ATOM     14 CL   UNL     1      -0.302  -1.895  -4.838  0.00  0.00    -0.082 Cl
ATOM     15 CL   UNL     1       2.817  -1.940  -4.941  0.00  0.00    -0.082 Cl
ENDBRANCH   7   8
ENDBRANCH   2   7
ENDBRANCH   1   3
BRANCH   1  16
ATOM     16  N   UNL     1      -0.152  -1.201   4.710  0.00  0.00    +0.386 N 
ATOM     17  C   UNL     1      -1.185  -2.209   4.434  0.00  0.00    -0.095 C 
ATOM     18  H   UNL     1      -0.588  -0.300   4.841  0.00  0.00    -0.081 HD
BRANCH  16  19
ATOM     19  C   UNL     1       0.582  -1.572   5.926  0.00  0.00    -0.043 C 
BRANCH  19  20
ATOM     20  C   UNL     1      -0.349  -1.523   7.110  0.00  0.00    -0.063 A 
ATOM     21  C   UNL     1      -0.493  -0.348   7.827  0.00  0.00    +0.002 A 
ATOM     22  C   UNL     1      -1.346  -0.294   8.914  0.00  0.00    +0.001 A 
ATOM     23  C   UNL     1      -2.059  -1.413   9.292  0.00  0.00    +0.013 A 
ATOM     24  C   UNL     1      -1.919  -2.601   8.573  0.00  0.00    +0.037 A 
ATOM     25  C   UNL     1      -1.061  -2.647   7.473  0.00  0.00    +0.014 A 
BRANCH  24  26
ATOM     26  C   UNL     1      -2.680  -3.804   8.972  0.00  0.00    +0.242 C 
ATOM     27  O   UNL     1      -2.555  -4.838   8.345  0.00  0.00    -0.270 OA
ATOM     28  N   UNL     1      -3.511  -3.756  10.032  0.00  0.00    -0.325 N 
ATOM     29  H   UNL     1      -3.610  -2.931  10.533  0.00  0.00    +0.145 HD
ATOM     30  H   UNL     1      -4.010  -4.545  10.294  0.00  0.00    +0.145 HD
ENDBRANCH  24  26
ENDBRANCH  19  20
ENDBRANCH  16  19
ENDBRANCH   1  16
TORSDOF 7
