REMARK  Name = ZINC52905377
REMARK  5 active torsions:
REMARK  status: ('A' for Active; 'I' for Inactive)
REMARK    1  A    between atoms: C_1  and  N_2
REMARK    2  A    between atoms: N_2  and  C_3
REMARK    3  A    between atoms: N_2  and  C_11
REMARK    4  A    between atoms: C_3  and  C_4
REMARK    5  A    between atoms: C_16  and  C_17
REMARK                            x       y       z     vdW  Elec       q    Type
REMARK                         _______ _______ _______ _____ _____    ______ ____
ROOT
ATOM      1  C   UNL     1      -0.104  -0.690  -1.168  0.00  0.00    +0.042 A 
ATOM      2  C   UNL     1      -1.336  -0.991  -1.735  0.00  0.00    +0.024 A 
ATOM      3  C   UNL     1      -1.418  -1.902  -2.768  0.00  0.00    +0.003 A 
ATOM      4  C   UNL     1      -0.276  -2.522  -3.249  0.00  0.00    +0.021 A 
ATOM      5  C   UNL     1       0.956  -2.236  -2.698  0.00  0.00    +0.053 A 
ATOM      6  C   UNL     1       1.055  -1.311  -1.655  0.00  0.00    +0.051 A 
ATOM      7 CL   UNL     1       2.382  -3.018  -3.305  0.00  0.00    -0.083 Cl
ENDROOT
BRANCH   6   8
ATOM      8  C   UNL     1       2.370  -0.995  -1.066  0.00  0.00    +0.097 C 
ATOM      9  N   UNL     1       3.295  -0.369  -1.796  0.00  0.00    -0.387 N 
ATOM     10  N   UNL     1       2.635  -1.335   0.196  0.00  0.00    -0.344 N 
ATOM     11  H   UNL     1       3.079  -0.057  -2.688  0.00  0.00    +0.157 HD
ATOM     12  H   UNL     1       1.962  -1.790   0.726  0.00  0.00    +0.144 HD
ATOM     13  H   UNL     1       3.499  -1.127   0.583  0.00  0.00    +0.144 HD
ATOM     14  H   UNL     1       4.183  -0.227  -1.434  0.00  0.00    +0.157 HD
ENDBRANCH   6   8
BRANCH   1  16
ATOM     15  C   UNL     1       0.067   1.660  -0.418  0.00  0.00    +0.129 C 
ATOM     16  N   UNL     1      -0.020   0.227  -0.127  0.00  0.00    -0.328 N 
BRANCH  16  17
ATOM     17  C   UNL     1      -0.019  -0.239   1.262  0.00  0.00    +0.141 C 
BRANCH  17  18
ATOM     18  C   UNL     1      -1.419  -0.173   1.815  0.00  0.00    -0.016 A 
ATOM     19  C   UNL     1      -1.829   0.939   2.526  0.00  0.00    +0.006 A 
ATOM     20  C   UNL     1      -3.114   1.000   3.034  0.00  0.00    +0.000 A 
ATOM     21  C   UNL     1      -3.988  -0.051   2.830  0.00  0.00    +0.001 A 
ATOM     22  C   UNL     1      -3.579  -1.163   2.119  0.00  0.00    +0.015 A 
ATOM     23  C   UNL     1      -2.295  -1.222   1.607  0.00  0.00    +0.023 A 
ATOM     24 BR   UNL     1      -1.737  -2.741   0.628  0.00  0.00    -0.050 Br
ENDBRANCH  17  18
ENDBRANCH  16  17
ENDBRANCH   1  16
TORSDOF 4
