REMARK  Name = ZINC39695916
REMARK  11 active torsions:
REMARK  status: ('A' for Active; 'I' for Inactive)
REMARK    1  A    between atoms: C_1  and  C_2
REMARK    2  A    between atoms: C_2  and  C_3
REMARK    3  A    between atoms: C_6  and  C_9
REMARK    4  A    between atoms: C_9  and  C_11
REMARK    5  A    between atoms: C_9  and  N_12
REMARK    6  A    between atoms: C_13  and  C_15
REMARK    7  A    between atoms: C_26  and  C_28
REMARK    8  A    between atoms: C_30  and  O_36
REMARK    9  A    between atoms: C_32  and  O_34
REMARK   10  A    between atoms: O_34  and  C_35
REMARK   11  A    between atoms: O_36  and  C_37
REMARK                            x       y       z     vdW  Elec       q    Type
REMARK                         _______ _______ _______ _____ _____    ______ ____
ROOT
ATOM      1  C   UNL     1       5.625  -5.124  -4.501  0.00  0.00    +0.100 C 
ATOM      2  C   UNL     1       4.830  -5.817  -3.372  0.00  0.00    +0.121 C 
ATOM      3  N   UNL     1       4.193  -6.984  -4.024  0.00  0.00    -0.296 N 
ATOM      4  C   UNL     1       5.226  -7.497  -4.955  0.00  0.00    +0.115 C 
ATOM      5  C   UNL     1       5.886  -6.231  -5.537  0.00  0.00    -0.004 C 
ATOM      6  C   UNL     1       7.386  -6.449  -5.711  0.00  0.00    -0.010 C 
ATOM      7  C   UNL     1       7.622  -7.512  -6.787  0.00  0.00    -0.082 C 
ATOM      8  N   UNL     1       7.021  -7.072  -8.052  0.00  0.00    +0.379 N 
ATOM      9  C   UNL     1       5.566  -6.954  -7.901  0.00  0.00    -0.082 C 
ATOM     10  C   UNL     1       5.243  -5.867  -6.872  0.00  0.00    -0.010 C 
ATOM     11  C   UNL     1       2.953  -7.471  -3.818  0.00  0.00    +0.247 C 
ATOM     12  O   UNL     1       2.172  -6.865  -3.111  0.00  0.00    -0.270 OA
ATOM     13  H   UNL     1       7.404  -6.175  -8.311  0.00  0.00    -0.086 HD
ATOM     14  H   UNL     1       7.230  -7.745  -8.774  0.00  0.00    -0.086 HD
ENDROOT
BRANCH  11  15
ATOM     15  C   UNL     1       2.542  -8.742  -4.453  0.00  0.00    +0.044 A 
ATOM     16  C   UNL     1       3.507  -9.650  -4.888  0.00  0.00    +0.059 A 
ATOM     17  C   UNL     1       3.118 -10.840  -5.481  0.00  0.00    +0.124 A 
ATOM     18  C   UNL     1       1.771 -11.128  -5.644  0.00  0.00    +0.091 A 
ATOM     19  C   UNL     1       0.808 -10.227  -5.213  0.00  0.00    +0.124 A 
ATOM     20  C   UNL     1       1.188  -9.038  -4.613  0.00  0.00    +0.059 A 
BRANCH  19  21
ATOM     21  O   UNL     1      -0.511 -10.515  -5.375  0.00  0.00    -0.495 OA
ATOM     22  C   UNL     1      -0.832 -11.761  -5.995  0.00  0.00    +0.277 C 
ENDBRANCH  19  21
BRANCH  17  23
ATOM     23  O   UNL     1       4.058 -11.726  -5.905  0.00  0.00    -0.495 OA
ATOM     24  C   UNL     1       3.586 -12.933  -6.508  0.00  0.00    +0.277 C 
ENDBRANCH  17  23
ENDBRANCH  11  15
BRANCH   1  26
ATOM     25  N   UNL     1       5.423  -2.996  -5.747  0.00  0.00    -0.308 N 
ATOM     26  C   UNL     1       4.808  -4.015  -5.113  0.00  0.00    +0.219 C 
ATOM     27  O   UNL     1       3.598  -4.040  -5.036  0.00  0.00    -0.275 OA
ATOM     28  H   UNL     1       6.390  -2.977  -5.809  0.00  0.00    +0.149 HD
BRANCH  25  29
ATOM     29  C   UNL     1       4.628  -1.918  -6.341  0.00  0.00    +0.100 C 
ATOM     30  C   UNL     1       4.182  -2.329  -7.746  0.00  0.00    +0.033 C 
BRANCH  29  34
ATOM     31  C   UNL     1       6.997   1.629  -6.578  0.00  0.00    -0.048 A 
ATOM     32  C   UNL     1       5.665   1.710  -6.217  0.00  0.00    +0.004 A 
ATOM     33  C   UNL     1       4.899   0.562  -6.141  0.00  0.00    +0.006 A 
ATOM     34  C   UNL     1       5.464  -0.667  -6.426  0.00  0.00    -0.027 A 
ATOM     35  C   UNL     1       6.796  -0.748  -6.787  0.00  0.00    +0.006 A 
ATOM     36  C   UNL     1       7.561   0.400  -6.868  0.00  0.00    +0.004 A 
BRANCH  31  38
ATOM     37  C   UNL     1       7.744   3.459  -8.075  0.00  0.00    +0.009 C 
ATOM     38  C   UNL     1       7.833   2.880  -6.662  0.00  0.00    +0.032 C 
ENDBRANCH  31  38
ENDBRANCH  29  34
ENDBRANCH  25  29
ENDBRANCH   1  26
TORSDOF 7
