REMARK  Name = ZINC12583745
REMARK  7 active torsions:
REMARK  status: ('A' for Active; 'I' for Inactive)
REMARK    1  A    between atoms: C_5  and  C_6
REMARK    2  A    between atoms: C_6  and  N_41
REMARK    3  A    between atoms: C_7  and  C_8
REMARK    4  A    between atoms: C_7  and  N_41
REMARK    5  A    between atoms: C_8  and  O_19
REMARK    6  A    between atoms: N_12  and  C_15
REMARK    7  A    between atoms: C_15  and  C_16
REMARK                            x       y       z     vdW  Elec       q    Type
REMARK                         _______ _______ _______ _____ _____    ______ ____
ROOT
ATOM      1  C   UNL     1      -1.361   3.562  -0.003  0.00  0.00    +0.127 C 
ATOM      2  C   UNL     1      -0.040   4.217   0.410  0.00  0.00    +0.044 C 
ATOM      3  C   UNL     1       1.092   3.579  -0.404  0.00  0.00    +0.022 C 
ATOM      4  C   UNL     1       1.249   2.122   0.032  0.00  0.00    +0.108 C 
ATOM      5  N   UNL     1      -0.040   1.441   0.008  0.00  0.00    -0.299 N 
ATOM      6  C   UNL     1      -1.217   2.067   0.008  0.00  0.00    +0.245 C 
ATOM      7  O   UNL     1      -2.225   1.394   0.022  0.00  0.00    -0.273 OA
ENDROOT
BRANCH   1   8
ATOM      8  O   UNL     1      -1.712   3.991  -1.320  0.00  0.00    -0.381 OA
ATOM      9  H   UNL     1      -2.540   3.615  -1.648  0.00  0.00    +0.211 HD
ENDBRANCH   1   8
BRANCH   1  10
ATOM     10  C   UNL     1      -2.461   3.975   0.976  0.00  0.00    -0.037 C 
BRANCH  10  11
ATOM     11  N   UNL     1      -2.545   5.448   1.016  0.00  0.00    +0.384 N 
ATOM     12  H   UNL     1      -1.618   5.834   1.231  0.00  0.00    -0.085 HD
ATOM     13  H   UNL     1      -2.855   5.794   0.100  0.00  0.00    -0.085 HD
BRANCH  11  14
ATOM     14  C   UNL     1      -3.504   5.879   2.050  0.00  0.00    -0.039 C 
BRANCH  14  19
ATOM     15  C   UNL     1      -4.382   8.211   1.366  0.00  0.00    +0.011 A 
ATOM     16  C   UNL     1      -4.264   9.577   1.543  0.00  0.00    +0.028 A 
ATOM     17  C   UNL     1      -3.336  10.049   2.414  0.00  0.00    +0.078 A 
ATOM     18  S   UNL     1      -2.599   8.540   3.021  0.00  0.00    -0.084 S 
ATOM     19  C   UNL     1      -3.569   7.384   2.067  0.00  0.00    -0.026 A 
ATOM     20 CL   UNL     1      -2.966  11.692   2.834  0.00  0.00    -0.076 Cl
ENDBRANCH  14  19
ENDBRANCH  11  14
ENDBRANCH  10  11
ENDBRANCH   1  10
BRANCH   5  21
ATOM     21  C   UNL     1      -0.041  -0.024  -0.025  0.00  0.00    +0.111 C 
BRANCH  21  22
ATOM     22  C   UNL     1      -0.052  -0.566   1.406  0.00  0.00    +0.006 C 
ATOM     23  C   UNL     1       1.160  -1.379   1.862  0.00  0.00    +0.005 C 
ATOM     24  C   UNL     1      -0.172  -2.081   1.586  0.00  0.00    +0.005 C 
ENDBRANCH  21  22
ENDBRANCH   5  21
TORSDOF 7
