REMARK  Name = ZINC39631446
REMARK  12 active torsions:
REMARK  status: ('A' for Active; 'I' for Inactive)
REMARK    1  A    between atoms: C_1  and  C_2
REMARK    2  A    between atoms: C_2  and  C_4
REMARK    3  A    between atoms: C_2  and  N_11
REMARK    4  A    between atoms: C_4  and  C_5
REMARK    5  A    between atoms: C_5  and  C_6
REMARK    6  A    between atoms: C_6  and  C_7
REMARK    7  A    between atoms: C_7  and  C_8
REMARK    8  A    between atoms: C_7  and  C_9
REMARK    9  A    between atoms: C_7  and  O_10
REMARK   10  A    between atoms: C_12  and  C_14
REMARK   11  A    between atoms: C_25  and  C_27
REMARK   12  A    between atoms: C_30  and  C_34
REMARK                            x       y       z     vdW  Elec       q    Type
REMARK                         _______ _______ _______ _____ _____    ______ ____
ROOT
ATOM      1  C   UNL     1       2.674  -1.468  -1.942  0.00  0.00    +0.100 C 
ATOM      2  C   UNL     1       2.332  -2.853  -2.534  0.00  0.00    +0.121 C 
ATOM      3  N   UNL     1       3.619  -3.363  -3.063  0.00  0.00    -0.296 N 
ATOM      4  C   UNL     1       4.623  -2.946  -2.055  0.00  0.00    +0.115 C 
ATOM      5  C   UNL     1       4.178  -1.533  -1.628  0.00  0.00    -0.004 C 
ATOM      6  C   UNL     1       4.415  -1.335  -0.134  0.00  0.00    -0.010 C 
ATOM      7  C   UNL     1       5.920  -1.345   0.146  0.00  0.00    -0.082 C 
ATOM      8  N   UNL     1       6.569  -0.274  -0.619  0.00  0.00    +0.379 N 
ATOM      9  C   UNL     1       6.417  -0.522  -2.058  0.00  0.00    -0.082 C 
ATOM     10  C   UNL     1       4.932  -0.477  -2.431  0.00  0.00    -0.010 C 
ATOM     11  C   UNL     1       3.830  -4.049  -4.204  0.00  0.00    +0.247 C 
ATOM     12  O   UNL     1       2.917  -4.221  -4.987  0.00  0.00    -0.270 OA
ATOM     13  H   UNL     1       6.144   0.610  -0.385  0.00  0.00    -0.086 HD
ATOM     14  H   UNL     1       7.551  -0.244  -0.387  0.00  0.00    -0.086 HD
ENDROOT
BRANCH  11  15
ATOM     15  C   UNL     1       5.172  -4.593  -4.502  0.00  0.00    +0.040 A 
ATOM     16  C   UNL     1       6.087  -4.807  -3.469  0.00  0.00    +0.014 A 
ATOM     17  C   UNL     1       7.338  -5.315  -3.752  0.00  0.00    +0.016 A 
ATOM     18  C   UNL     1       7.688  -5.614  -5.057  0.00  0.00    +0.090 A 
ATOM     19  C   UNL     1       6.786  -5.404  -6.088  0.00  0.00    +0.136 A 
ATOM     20  C   UNL     1       5.528  -4.901  -5.816  0.00  0.00    +0.052 A 
ATOM     21  F   UNL     1       7.135  -5.697  -7.359  0.00  0.00    -0.205 F 
BRANCH  18  22
ATOM     22  C   UNL     1       9.056  -6.169  -5.359  0.00  0.00    +0.420 C 
ATOM     23  F   UNL     1       9.782  -6.291  -4.169  0.00  0.00    -0.166 F 
ATOM     24  F   UNL     1       8.928  -7.426  -5.958  0.00  0.00    -0.166 F 
ATOM     25  F   UNL     1       9.729  -5.304  -6.229  0.00  0.00    -0.166 F 
ENDBRANCH  18  22
ENDBRANCH  11  15
BRANCH   1  27
ATOM     26  N   UNL     1       1.562   0.030  -0.319  0.00  0.00    -0.312 N 
ATOM     27  C   UNL     1       1.885  -1.227  -0.682  0.00  0.00    +0.218 C 
ATOM     28  O   UNL     1       1.539  -2.164   0.006  0.00  0.00    -0.275 OA
ATOM     29  H   UNL     1       1.838   0.780  -0.869  0.00  0.00    +0.149 HD
BRANCH  26  31
ATOM     30  C   UNL     1       1.747   0.321   2.103  0.00  0.00    +0.028 C 
ATOM     31  C   UNL     1       0.794   0.265   0.907  0.00  0.00    +0.070 C 
BRANCH  31  32
ATOM     32  C   UNL     1       0.043   1.593   0.792  0.00  0.00    +0.022 C 
BRANCH  32  33
ATOM     33  C   UNL     1      -0.998   1.494  -0.325  0.00  0.00    +0.005 C 
BRANCH  33  34
ATOM     34  C   UNL     1      -1.750   2.821  -0.441  0.00  0.00    +0.034 C 
BRANCH  34  35
ATOM     35  C   UNL     1      -2.791   2.722  -1.558  0.00  0.00    +0.061 C 
ATOM     36  C   UNL     1      -3.457   4.085  -1.757  0.00  0.00    +0.041 C 
ATOM     37  C   UNL     1      -2.106   2.294  -2.857  0.00  0.00    +0.041 C 
BRANCH  35  38
ATOM     38  O   UNL     1      -3.782   1.756  -1.201  0.00  0.00    -0.389 OA
ATOM     39  H   UNL     1      -4.258   1.964  -0.385  0.00  0.00    +0.210 HD
ENDBRANCH  35  38
ENDBRANCH  34  35
ENDBRANCH  33  34
ENDBRANCH  32  33
ENDBRANCH  31  32
ENDBRANCH  26  31
ENDBRANCH   1  27
TORSDOF 9
