REMARK  Name = ZINC09074772
REMARK  9 active torsions:
REMARK  status: ('A' for Active; 'I' for Inactive)
REMARK    1  A    between atoms: C_1  and  C_2
REMARK    2  A    between atoms: C_2  and  C_4
REMARK    3  A    between atoms: C_2  and  N_10
REMARK    4  A    between atoms: C_11  and  C_13
REMARK    5  A    between atoms: C_18  and  N_19
REMARK    6  A    between atoms: C_20  and  C_22
REMARK    7  A    between atoms: C_22  and  O_23
REMARK    8  A    between atoms: O_23  and  C_24
REMARK    9  A    between atoms: C_24  and  C_26
REMARK                            x       y       z     vdW  Elec       q    Type
REMARK                         _______ _______ _______ _____ _____    ______ ____
ROOT
ATOM      1  N   UNL     1       8.524  -0.226  -0.094  0.00  0.00    -0.282 N 
ATOM      2  C   UNL     1       7.356   0.135  -0.659  0.00  0.00    +0.255 C 
ATOM      3  O   UNL     1       7.249   1.220  -1.192  0.00  0.00    -0.272 OA
ATOM      4  H   UNL     1       8.591  -1.066   0.388  0.00  0.00    +0.155 HD
ENDROOT
BRANCH   1  10
ATOM      5  C   UNL     1      10.920   0.054  -0.328  0.00  0.00    +0.058 A 
ATOM      6  C   UNL     1      12.027   0.899  -0.435  0.00  0.00    +0.015 A 
ATOM      7  C   UNL     1      11.852   2.266  -0.414  0.00  0.00    +0.001 A 
ATOM      8  C   UNL     1      10.583   2.808  -0.289  0.00  0.00    +0.002 A 
ATOM      9  C   UNL     1       9.480   1.985  -0.187  0.00  0.00    +0.024 A 
ATOM     10  C   UNL     1       9.636   0.606  -0.201  0.00  0.00    +0.046 A 
BRANCH   5  12
ATOM     11  N   UNL     1      12.340  -1.937  -0.361  0.00  0.00    -0.305 N 
ATOM     12  C   UNL     1      11.099  -1.410  -0.349  0.00  0.00    +0.246 C 
ATOM     13  O   UNL     1      10.128  -2.142  -0.355  0.00  0.00    -0.270 OA
ATOM     14  H   UNL     1      13.114  -1.353  -0.356  0.00  0.00    +0.150 HD
BRANCH  11  16
ATOM     15  C   UNL     1      12.450  -3.892  -1.826  0.00  0.00    +0.033 C 
ATOM     16  C   UNL     1      12.518  -3.391  -0.382  0.00  0.00    +0.100 C 
BRANCH  16  17
ATOM     17  C   UNL     1      13.860  -3.741   0.208  0.00  0.00    -0.027 A 
ATOM     18  C   UNL     1      14.966  -2.965  -0.083  0.00  0.00    +0.005 A 
ATOM     19  C   UNL     1      16.196  -3.284   0.463  0.00  0.00    +0.000 A 
ATOM     20  C   UNL     1      16.321  -4.383   1.291  0.00  0.00    +0.000 A 
ATOM     21  C   UNL     1      15.215  -5.162   1.578  0.00  0.00    +0.000 A 
ATOM     22  C   UNL     1      13.985  -4.841   1.036  0.00  0.00    +0.005 A 
ENDBRANCH  16  17
ENDBRANCH  11  16
ENDBRANCH   5  12
ENDBRANCH   1  10
BRANCH   2  23
ATOM     23  C   UNL     1       6.181  -0.808  -0.630  0.00  0.00    +0.328 C 
BRANCH  23  24
ATOM     24  O   UNL     1       5.049  -0.193  -1.299  0.00  0.00    -0.452 OA
BRANCH  24  25
ATOM     25  C   UNL     1       3.910  -0.910  -1.361  0.00  0.00    +0.340 C 
ATOM     26  O   UNL     1       3.864  -2.021  -0.869  0.00  0.00    -0.245 OA
BRANCH  25  27
ATOM     27  C   UNL     1       2.720  -0.349  -2.025  0.00  0.00    +0.061 A 
ATOM     28  C   UNL     1       2.775   0.929  -2.591  0.00  0.00    +0.016 A 
ATOM     29  C   UNL     1       1.661   1.449  -3.213  0.00  0.00    +0.017 A 
ATOM     30  C   UNL     1       0.489   0.707  -3.278  0.00  0.00    +0.030 A 
ATOM     31  C   UNL     1       0.420  -0.571  -2.712  0.00  0.00    +0.048 A 
ATOM     32  C   UNL     1       1.540  -1.095  -2.088  0.00  0.00    +0.039 A 
ATOM     33  N   UNL     1      -0.751  -1.324  -2.758  0.00  0.00    -0.284 N 
ATOM     34  C   UNL     1      -1.750  -1.174  -3.624  0.00  0.00    +0.227 C 
ATOM     35  O   UNL     1      -2.701  -1.923  -3.537  0.00  0.00    -0.275 OA
ATOM     36  C   UNL     1      -1.766  -0.128  -4.704  0.00  0.00    +0.170 C 
ATOM     37  S   UNL     1      -0.935   1.366  -4.085  0.00  0.00    -0.114 S 
ATOM     38  H   UNL     1      -0.847  -2.026  -2.096  0.00  0.00    +0.155 HD
ENDBRANCH  25  27
ENDBRANCH  24  25
ENDBRANCH  23  24
ENDBRANCH   2  23
TORSDOF 8
