REMARK  Name = ZINC65404735
REMARK  3 active torsions:
REMARK  status: ('A' for Active; 'I' for Inactive)
REMARK    1  A    between atoms: C_1  and  C_2
REMARK    2  A    between atoms: C_2  and  C_4
REMARK    3  A    between atoms: C_2  and  N_12
REMARK                            x       y       z     vdW  Elec       q    Type
REMARK                         _______ _______ _______ _____ _____    ______ ____
ROOT
ATOM      1  N   UNL     1       1.005  -0.912   0.574  0.00  0.00    +0.387 N 
ATOM      2  C   UNL     1       2.328  -0.278   0.513  0.00  0.00    -0.075 C 
ATOM      3  C   UNL     1       3.362  -1.185   1.184  0.00  0.00    +0.016 C 
ATOM      4  C   UNL     1       3.403  -2.530   0.455  0.00  0.00    +0.106 C 
ATOM      5  C   UNL     1       2.003  -3.147   0.453  0.00  0.00    +0.016 C 
ATOM      6  C   UNL     1       1.018  -2.167  -0.188  0.00  0.00    -0.075 C 
ATOM      7  C   UNL     1       4.365  -3.455   1.152  0.00  0.00    +0.241 C 
ATOM      8  O   UNL     1       4.518  -3.367   2.352  0.00  0.00    -0.273 OA
ATOM      9  N   UNL     1       5.058  -4.378   0.459  0.00  0.00    -0.282 N 
ATOM     10  C   UNL     1       4.939  -4.466  -0.933  0.00  0.00    +0.055 A 
ATOM     11  C   UNL     1       5.415  -5.573  -1.617  0.00  0.00    +0.025 A 
ATOM     12  C   UNL     1       5.293  -5.638  -2.993  0.00  0.00    +0.002 A 
ATOM     13  C   UNL     1       4.697  -4.604  -3.691  0.00  0.00    +0.002 A 
ATOM     14  C   UNL     1       4.216  -3.495  -3.017  0.00  0.00    +0.025 A 
ATOM     15  C   UNL     1       4.334  -3.425  -1.641  0.00  0.00    +0.049 A 
ATOM     16  N   UNL     1       3.848  -2.319  -0.929  0.00  0.00    -0.329 N 
ATOM     17  H   UNL     1       5.647  -4.989   0.929  0.00  0.00    +0.155 HD
ATOM     18  H   UNL     1       3.807  -1.441  -1.339  0.00  0.00    +0.147 HD
ATOM     19  H   UNL     1       0.772  -1.107   1.536  0.00  0.00    -0.081 HD
ENDROOT
BRANCH   1  21
ATOM     20  C   UNL     1       0.012   1.318   0.773  0.00  0.00    -0.004 C 
ATOM     21  C   UNL     1       0.002  -0.004   0.002  0.00  0.00    +0.016 C 
BRANCH  21  22
ATOM     22  C   UNL     1      -1.363  -0.635   0.104  0.00  0.00    +0.205 C 
ATOM     23  O   UNL     1      -1.596  -1.436   0.984  0.00  0.00    -0.277 OA
ATOM     24  N   UNL     1      -2.324  -0.309  -0.782  0.00  0.00    -0.266 N 
ATOM     25  C   UNL     1      -3.583  -0.890  -0.688  0.00  0.00    +0.164 A 
ATOM     26  N   UNL     1      -4.015  -1.765   0.194  0.00  0.00    -0.233 NA
ATOM     27  C   UNL     1      -5.251  -2.227   0.149  0.00  0.00    +0.120 A 
ATOM     28  C   UNL     1      -6.047  -1.759  -0.844  0.00  0.00    +0.068 A 
ATOM     29  S   UNL     1      -4.927  -0.641  -1.670  0.00  0.00    -0.061 S 
ATOM     30  H   UNL     1      -2.137   0.332  -1.486  0.00  0.00    +0.157 HD
ENDBRANCH  21  22
ENDBRANCH   1  21
TORSDOF 2
