REMARK  Name = ZINC20189084
REMARK  7 active torsions:
REMARK  status: ('A' for Active; 'I' for Inactive)
REMARK    1  A    between atoms: C_4  and  C_19
REMARK    2  A    between atoms: C_6  and  S_7
REMARK    3  A    between atoms: S_7  and  N_10
REMARK    4  A    between atoms: N_10  and  C_11
REMARK    5  A    between atoms: C_11  and  C_12
REMARK    6  A    between atoms: C_12  and  C_13
REMARK    7  A    between atoms: C_19  and  N_20
REMARK                            x       y       z     vdW  Elec       q    Type
REMARK                         _______ _______ _______ _____ _____    ______ ____
ROOT
ATOM      1  S   UNL     1      -0.017   1.417   0.010  0.00  0.00    +0.058 S 
ATOM      2  O   UNL     1       0.002  -0.004   0.002  0.00  0.00    -0.153 OA
ATOM      3  O   UNL     1       1.172   2.195   0.003  0.00  0.00    -0.153 OA
ENDROOT
BRANCH   1   9
ATOM      4  C   UNL     1      -0.717   3.145   2.003  0.00  0.00    +0.031 A 
ATOM      5  C   UNL     1      -1.433   3.527   3.122  0.00  0.00    +0.040 A 
ATOM      6  C   UNL     1      -2.354   2.659   3.684  0.00  0.00    +0.125 A 
ATOM      7  C   UNL     1      -2.559   1.410   3.121  0.00  0.00    -0.028 A 
ATOM      8  C   UNL     1      -1.846   1.032   2.000  0.00  0.00    +0.033 A 
ATOM      9  C   UNL     1      -0.927   1.900   1.439  0.00  0.00    +0.106 A 
ATOM     10  F   UNL     1      -3.051   3.029   4.780  0.00  0.00    -0.205 F 
BRANCH   7  11
ATOM     11  C   UNL     1      -3.561   0.464   3.731  0.00  0.00    -0.048 C 
BRANCH  11  12
ATOM     12  N   UNL     1      -3.005  -0.111   4.963  0.00  0.00    +0.381 N 
ATOM     13  H   UNL     1      -3.736  -0.801   5.408  0.00  0.00    -0.090 HD
ATOM     14  H   UNL     1      -2.782   0.697   5.676  0.00  0.00    -0.090 HD
ATOM     15  H   UNL     1      -2.080  -0.658   4.727  0.00  0.00    -0.090 HD
ENDBRANCH  11  12
ENDBRANCH   7  11
ENDBRANCH   1   9
BRANCH   1  16
ATOM     16  N   UNL     1      -0.897   1.885  -1.312  0.00  0.00    -0.190 NA
ATOM     17  H   UNL     1      -1.442   1.126  -1.892  0.00  0.00    +0.148 HD
BRANCH  16  18
ATOM     18  C   UNL     1      -1.125   3.309  -1.574  0.00  0.00    +0.110 C 
BRANCH  18  19
ATOM     19  C   UNL     1      -1.622   3.491  -3.009  0.00  0.00    +0.047 C 
BRANCH  19  20
ATOM     20  C   UNL     1      -1.855   4.955  -3.279  0.00  0.00    -0.072 C 
ATOM     21  C   UNL     1      -0.903   5.629  -3.839  0.00  0.00    -0.028 C 
ATOM     22  C   UNL     1      -0.984   7.092  -4.160  0.00  0.00    +0.027 C 
ATOM     23  C   UNL     1      -2.442   7.557  -4.135  0.00  0.00    +0.004 C 
ATOM     24  C   UNL     1      -3.085   7.067  -2.831  0.00  0.00    +0.005 C 
ATOM     25  C   UNL     1      -3.181   5.540  -2.886  0.00  0.00    +0.030 C 
ENDBRANCH  19  20
ENDBRANCH  18  19
ENDBRANCH  16  18
ENDBRANCH   1  16
TORSDOF 7
