REMARK  Name = ZINC08788868
REMARK  6 active torsions:
REMARK  status: ('A' for Active; 'I' for Inactive)
REMARK    1  A    between atoms: C_1  and  O_2
REMARK    2  A    between atoms: O_2  and  C_3
REMARK    3  A    between atoms: C_6  and  C_9
REMARK    4  A    between atoms: C_9  and  N_10
REMARK    5  A    between atoms: C_15  and  C_32
REMARK    6  A    between atoms: C_32  and  C_33
REMARK                            x       y       z     vdW  Elec       q    Type
REMARK                         _______ _______ _______ _____ _____    ______ ____
ROOT
ATOM      1  N   UNL     1       3.820  -2.887   1.748  0.00  0.00    -0.237 N 
ATOM      2  C   UNL     1       3.462  -2.235   0.636  0.00  0.00    +0.224 C 
ATOM      3  O   UNL     1       3.925  -1.177   0.264  0.00  0.00    -0.275 OA
ATOM      4  C   UNL     1       2.392  -3.021  -0.085  0.00  0.00    +0.073 C 
ATOM      5  C   UNL     1       1.058  -2.248  -0.020  0.00  0.00    -0.049 C 
ATOM      6  C   UNL     1       0.750  -4.107   1.360  0.00  0.00    +0.050 C 
ATOM      7  C   UNL     1       2.180  -4.261   0.828  0.00  0.00    +0.088 C 
ATOM      8  C   UNL     1       3.166  -4.053   1.956  0.00  0.00    +0.225 C 
ATOM      9  O   UNL     1       3.334  -4.810   2.888  0.00  0.00    -0.275 OA
ATOM     10  C   UNL     1      -0.223  -4.940   0.575  0.00  0.00    -0.026 A 
ATOM     11  C   UNL     1      -0.581  -4.978  -0.754  0.00  0.00    +0.024 A 
ATOM     12  C   UNL     1      -1.535  -5.883  -1.189  0.00  0.00    +0.041 A 
ATOM     13  C   UNL     1      -2.126  -6.747  -0.284  0.00  0.00    +0.022 A 
ATOM     14  C   UNL     1      -1.770  -6.712   1.048  0.00  0.00    +0.025 A 
ATOM     15  C   UNL     1      -0.811  -5.805   1.493  0.00  0.00    +0.036 A 
ATOM     16  N   UNL     1      -0.290  -5.581   2.770  0.00  0.00    -0.286 N 
ATOM     17  C   UNL     1       0.633  -4.600   2.776  0.00  0.00    +0.211 C 
ATOM     18  O   UNL     1       1.252  -4.194   3.738  0.00  0.00    -0.277 OA
ATOM     19 CL   UNL     1      -1.987  -5.933  -2.865  0.00  0.00    -0.084 Cl
ATOM     20  H   UNL     1      -0.561  -6.075   3.559  0.00  0.00    +0.155 HD
ATOM     21  N   UNL     1       0.453  -2.691   1.238  0.00  0.00    +0.394 N 
ATOM     22  H   UNL     1      -0.563  -2.542   1.215  0.00  0.00    -0.083 HD
ATOM     23  H   UNL     1       0.857  -2.174   2.028  0.00  0.00    -0.083 HD
ENDROOT
BRANCH   1  24
ATOM     24  C   UNL     1       4.845  -2.384   2.666  0.00  0.00    +0.151 C 
BRANCH  24  28
ATOM     25  C   UNL     1       3.010   0.084   5.633  0.00  0.00    +0.120 A 
ATOM     26  C   UNL     1       3.151  -1.278   5.853  0.00  0.00    +0.046 A 
ATOM     27  C   UNL     1       3.745  -2.074   4.892  0.00  0.00    +0.009 A 
ATOM     28  C   UNL     1       4.198  -1.514   3.712  0.00  0.00    -0.029 A 
ATOM     29  C   UNL     1       4.064  -0.155   3.493  0.00  0.00    +0.009 A 
ATOM     30  C   UNL     1       3.467   0.644   4.449  0.00  0.00    +0.046 A 
BRANCH  25  32
ATOM     31  C   UNL     1       2.316   2.263   6.283  0.00  0.00    +0.277 C 
ATOM     32  O   UNL     1       2.427   0.869   6.577  0.00  0.00    -0.495 OA
ENDBRANCH  25  32
ENDBRANCH  24  28
ENDBRANCH   1  24
BRANCH   5  33
ATOM     33  C   UNL     1       1.317  -0.740  -0.015  0.00  0.00    +0.080 C 
BRANCH  33  34
ATOM     34  C   UNL     1       0.002  -0.004   0.002  0.00  0.00    +0.209 C 
ATOM     35  O   UNL     1      -1.040  -0.625   0.009  0.00  0.00    -0.276 OA
ATOM     36  N   UNL     1      -0.016   1.344   0.009  0.00  0.00    -0.329 N 
ATOM     37  H   UNL     1       0.817   1.840   0.004  0.00  0.00    +0.145 HD
ATOM     38  H   UNL     1      -0.863   1.817   0.016  0.00  0.00    +0.145 HD
ENDBRANCH  33  34
ENDBRANCH   5  33
TORSDOF 5
