REMARK  Name = ZINC39605094
REMARK  13 active torsions:
REMARK  status: ('A' for Active; 'I' for Inactive)
REMARK    1  A    between atoms: C_1  and  C_2
REMARK    2  A    between atoms: C_2  and  C_3
REMARK    3  A    between atoms: C_2  and  O_4
REMARK    4  A    between atoms: O_4  and  C_5
REMARK    5  A    between atoms: C_5  and  C_6
REMARK    6  A    between atoms: C_6  and  C_7
REMARK    7  A    between atoms: C_7  and  N_8
REMARK    8  A    between atoms: C_9  and  C_11
REMARK    9  A    between atoms: C_22  and  C_24
REMARK   10  A    between atoms: C_27  and  O_32
REMARK   11  A    between atoms: C_29  and  O_30
REMARK   12  A    between atoms: O_30  and  C_31
REMARK   13  A    between atoms: O_32  and  C_33
REMARK                            x       y       z     vdW  Elec       q    Type
REMARK                         _______ _______ _______ _____ _____    ______ ____
ROOT
ATOM      1  C   UNL     1      -6.372  -5.530  -1.689  0.00  0.00    +0.100 C 
ATOM      2  C   UNL     1      -6.763  -5.871  -0.234  0.00  0.00    +0.121 C 
ATOM      3  N   UNL     1      -7.683  -7.026  -0.354  0.00  0.00    -0.296 N 
ATOM      4  C   UNL     1      -7.094  -7.856  -1.433  0.00  0.00    +0.115 C 
ATOM      5  C   UNL     1      -6.590  -6.835  -2.473  0.00  0.00    -0.004 C 
ATOM      6  C   UNL     1      -5.275  -7.311  -3.083  0.00  0.00    -0.010 C 
ATOM      7  C   UNL     1      -5.529  -8.578  -3.905  0.00  0.00    -0.082 C 
ATOM      8  N   UNL     1      -6.506  -8.291  -4.962  0.00  0.00    +0.379 N 
ATOM      9  C   UNL     1      -7.796  -7.923  -4.364  0.00  0.00    -0.082 C 
ATOM     10  C   UNL     1      -7.638  -6.629  -3.562  0.00  0.00    -0.010 C 
ATOM     11  C   UNL     1      -8.802  -7.268   0.357  0.00  0.00    +0.250 C 
ATOM     12  O   UNL     1      -9.212  -6.439   1.147  0.00  0.00    -0.270 OA
ATOM     13  H   UNL     1      -6.171  -7.527  -5.530  0.00  0.00    -0.086 HD
ATOM     14  H   UNL     1      -6.626  -9.109  -5.540  0.00  0.00    -0.086 HD
ENDROOT
BRANCH  11  15
ATOM     15  C   UNL     1      -9.529  -8.537   0.177  0.00  0.00    +0.079 A 
ATOM     16  C   UNL     1      -8.826  -9.718  -0.080  0.00  0.00    +0.020 A 
ATOM     17  C   UNL     1      -9.509 -10.901  -0.247  0.00  0.00    +0.046 A 
ATOM     18  C   UNL     1     -10.898 -10.927  -0.162  0.00  0.00    +0.124 A 
ATOM     19  C   UNL     1     -11.604  -9.761   0.091  0.00  0.00    +0.092 A 
ATOM     20  C   UNL     1     -10.929  -8.565   0.268  0.00  0.00    +0.136 A 
BRANCH  20  21
ATOM     21  O   UNL     1     -11.618  -7.425   0.522  0.00  0.00    -0.494 OA
ATOM     22  C   UNL     1     -13.041  -7.530   0.601  0.00  0.00    +0.277 C 
ENDBRANCH  20  21
BRANCH  18  23
ATOM     23  O   UNL     1     -11.563 -12.098  -0.329  0.00  0.00    -0.495 OA
ATOM     24  C   UNL     1     -10.775 -13.261  -0.588  0.00  0.00    +0.277 C 
ENDBRANCH  18  23
ENDBRANCH  11  15
BRANCH   1  26
ATOM     25  N   UNL     1      -4.484  -4.389  -2.808  0.00  0.00    -0.315 N 
ATOM     26  C   UNL     1      -4.926  -5.111  -1.760  0.00  0.00    +0.218 C 
ATOM     27  O   UNL     1      -4.160  -5.425  -0.873  0.00  0.00    -0.275 OA
ATOM     28  H   UNL     1      -5.096  -4.138  -3.517  0.00  0.00    +0.149 HD
BRANCH  25  29
ATOM     29  C   UNL     1      -3.078  -3.982  -2.877  0.00  0.00    +0.106 C 
BRANCH  29  30
ATOM     30  C   UNL     1      -2.842  -3.178  -4.157  0.00  0.00    +0.047 C 
BRANCH  30  31
ATOM     31  C   UNL     1      -1.374  -2.753  -4.229  0.00  0.00    +0.161 C 
BRANCH  31  32
ATOM     32  O   UNL     1      -1.153  -2.003  -5.425  0.00  0.00    -0.377 OA
BRANCH  32  34
ATOM     33  C   UNL     1       0.520  -1.460  -7.082  0.00  0.00    +0.037 C 
ATOM     34  C   UNL     1       0.194  -1.555  -5.590  0.00  0.00    +0.112 C 
ATOM     35  C   UNL     1       0.356  -0.178  -4.944  0.00  0.00    +0.037 C 
ENDBRANCH  32  34
ENDBRANCH  31  32
ENDBRANCH  30  31
ENDBRANCH  29  30
ENDBRANCH  25  29
ENDBRANCH   1  26
TORSDOF 9
