REMARK  Name = ZINC45368836
REMARK  14 active torsions:
REMARK  status: ('A' for Active; 'I' for Inactive)
REMARK    1  A    between atoms: C_1  and  N_2
REMARK    2  A    between atoms: C_6  and  C_8
REMARK    3  A    between atoms: C_9  and  O_13
REMARK    4  A    between atoms: O_13  and  C_14
REMARK    5  A    between atoms: C_14  and  C_15
REMARK    6  A    between atoms: C_15  and  C_16
REMARK    7  A    between atoms: C_16  and  C_17
REMARK    8  A    between atoms: C_17  and  N_18
REMARK    9  A    between atoms: N_18  and  C_19
REMARK   10  A    between atoms: C_19  and  C_20
REMARK   11  A    between atoms: C_20  and  C_21
REMARK   12  A    between atoms: C_21  and  C_22
REMARK   13  A    between atoms: C_22  and  N_23
REMARK   14  A    between atoms: N_23  and  C_24
REMARK                            x       y       z     vdW  Elec       q    Type
REMARK                         _______ _______ _______ _____ _____    ______ ____
ROOT
ATOM      1  N   UNL     1      -9.509 -11.516   2.346  0.00  0.00    +0.379 N 
ATOM      2  H   UNL     1      -8.895 -10.718   2.286  0.00  0.00    -0.086 HD
ATOM      3  H   UNL     1      -9.469 -11.902   3.278  0.00  0.00    -0.086 HD
ENDROOT
BRANCH   1   4
ATOM      4  C   UNL     1     -10.885 -11.099   2.048  0.00  0.00    -0.083 C 
BRANCH   4   5
ATOM      5  C   UNL     1     -11.327 -10.038   3.058  0.00  0.00    -0.016 C 
BRANCH   5   6
ATOM      6  C   UNL     1     -12.760  -9.603   2.747  0.00  0.00    +0.039 C 
BRANCH   6   7
ATOM      7  C   UNL     1     -13.202  -8.542   3.757  0.00  0.00    +0.231 C 
BRANCH   7   8
ATOM      8  O   UNL     1     -14.541  -8.136   3.467  0.00  0.00    -0.475 OA
BRANCH   8  10
ATOM      9  C   UNL     1     -16.384  -6.714   4.097  0.00  0.00    +0.137 A 
ATOM     10  C   UNL     1     -15.088  -7.192   4.276  0.00  0.00    +0.250 A 
ATOM     11  N   UNL     1     -14.434  -6.663   5.287  0.00  0.00    -0.154 NA
ATOM     12  S   UNL     1     -15.527  -5.583   5.943  0.00  0.00    +0.119 S 
ATOM     13  N   UNL     1     -16.786  -5.794   4.953  0.00  0.00    -0.187 NA
BRANCH   9  19
ATOM     14  C   UNL     1     -17.387  -9.963   0.500  0.00  0.00    -0.096 C 
ATOM     15  N   UNL     1     -17.896  -8.967   1.452  0.00  0.00    +0.381 N 
ATOM     16  C   UNL     1     -18.634  -7.922   0.724  0.00  0.00    -0.075 C 
ATOM     17  C   UNL     1     -19.371  -7.046   1.740  0.00  0.00    +0.009 C 
ATOM     18  C   UNL     1     -18.416  -6.615   2.819  0.00  0.00    -0.025 C 
ATOM     19  C   UNL     1     -17.254  -7.203   3.008  0.00  0.00    -0.037 C 
ATOM     20  C   UNL     1     -16.773  -8.349   2.165  0.00  0.00    -0.041 C 
ATOM     21  H   UNL     1     -18.511  -9.417   2.114  0.00  0.00    -0.082 HD
ENDBRANCH   9  19
ENDBRANCH   8  10
ENDBRANCH   7   8
ENDBRANCH   6   7
ENDBRANCH   5   6
ENDBRANCH   4   5
ENDBRANCH   1   4
BRANCH   1  22
ATOM     22  C   UNL     1      -9.085 -12.535   1.377  0.00  0.00    -0.083 C 
BRANCH  22  23
ATOM     23  C   UNL     1      -7.651 -12.970   1.687  0.00  0.00    -0.018 C 
BRANCH  23  24
ATOM     24  C   UNL     1      -7.210 -14.031   0.677  0.00  0.00    +0.017 C 
BRANCH  24  25
ATOM     25  C   UNL     1      -5.776 -14.466   0.988  0.00  0.00    +0.101 C 
BRANCH  25  26
ATOM     26  N   UNL     1      -5.353 -15.482   0.021  0.00  0.00    -0.343 N 
ATOM     27  H   UNL     1      -4.884 -15.217  -0.786  0.00  0.00    +0.146 HD
BRANCH  26  28
ATOM     28  C   UNL     1      -5.624 -16.820   0.259  0.00  0.00    +0.041 A 
ATOM     29  C   UNL     1      -6.815 -17.413  -0.218  0.00  0.00    +0.019 A 
ATOM     30  C   UNL     1      -7.762 -16.678  -0.944  0.00  0.00    +0.012 A 
ATOM     31  C   UNL     1      -8.896 -17.291  -1.385  0.00  0.00    +0.001 A 
ATOM     32  C   UNL     1      -9.126 -18.640  -1.123  0.00  0.00    +0.002 A 
ATOM     33  C   UNL     1      -8.226 -19.381  -0.421  0.00  0.00    +0.026 A 
ATOM     34  C   UNL     1      -7.045 -18.783   0.052  0.00  0.00    +0.048 A 
ATOM     35  N   UNL     1      -6.145 -19.481   0.746  0.00  0.00    -0.358 N 
ATOM     36  C   UNL     1      -5.025 -18.945   1.201  0.00  0.00    +0.021 A 
ATOM     37  C   UNL     1      -4.727 -17.613   0.967  0.00  0.00    -0.007 A 
ATOM     38  C   UNL     1      -3.455 -16.966   1.447  0.00  0.00    +0.039 C 
ATOM     39  C   UNL     1      -2.803 -17.810   2.541  0.00  0.00    +0.005 C 
ATOM     40  C   UNL     1      -2.692 -19.253   2.035  0.00  0.00    +0.006 C 
ATOM     41  C   UNL     1      -4.101 -19.848   1.979  0.00  0.00    +0.053 C 
ATOM     42  H   UNL     1      -6.319 -20.418   0.924  0.00  0.00    +0.166 HD
ENDBRANCH  26  28
ENDBRANCH  25  26
ENDBRANCH  24  25
ENDBRANCH  23  24
ENDBRANCH  22  23
ENDBRANCH   1  22
TORSDOF 13
