REMARK  Name = ZINC01614121
REMARK  14 active torsions:
REMARK  status: ('A' for Active; 'I' for Inactive)
REMARK    1  A    between atoms: C_1  and  N_59
REMARK    2  A    between atoms: C_2  and  N_59
REMARK    3  A    between atoms: C_3  and  C_4
REMARK    4  A    between atoms: C_3  and  N_59
REMARK    5  A    between atoms: C_4  and  S_5
REMARK    6  A    between atoms: S_5  and  C_6
REMARK    7  A    between atoms: C_9  and  C_12
REMARK    8  A    between atoms: C_15  and  C_18
REMARK    9  A    between atoms: C_21  and  S_24
REMARK   10  A    between atoms: S_24  and  C_25
REMARK   11  A    between atoms: C_25  and  C_26
REMARK   12  A    between atoms: C_26  and  N_61
REMARK   13  A    between atoms: C_27  and  N_61
REMARK   14  A    between atoms: C_28  and  N_61
REMARK                            x       y       z     vdW  Elec       q    Type
REMARK                         _______ _______ _______ _____ _____    ______ ____
ROOT
ATOM      1  C   UNL     1       1.136  -0.695  -0.013  0.00  0.00    +0.093 A 
ATOM      2  C   UNL     1       2.362  -0.022  -0.021  0.00  0.00    +0.032 A 
ATOM      3  C   UNL     1       2.344   1.361  -0.013  0.00  0.00    +0.032 A 
ATOM      4  C   UNL     1       1.099   2.001   0.002  0.00  0.00    +0.093 A 
ATOM      5  N   UNL     1      -0.015   1.279   0.009  0.00  0.00    -0.149 NA
ATOM      6  N   UNL     1       0.002  -0.004   0.002  0.00  0.00    -0.149 NA
ENDROOT
BRANCH   1  10
ATOM      7  C   UNL     1       1.040  -4.947  -0.033  0.00  0.00    +0.008 A 
ATOM      8  C   UNL     1      -0.150  -4.225  -0.018  0.00  0.00    +0.015 A 
ATOM      9  C   UNL     1      -0.121  -2.848  -0.011  0.00  0.00    +0.011 A 
ATOM     10  C   UNL     1       1.102  -2.176  -0.020  0.00  0.00    +0.002 A 
ATOM     11  C   UNL     1       2.294  -2.902  -0.041  0.00  0.00    +0.011 A 
ATOM     12  C   UNL     1       2.260  -4.279  -0.042  0.00  0.00    +0.015 A 
BRANCH   7  13
ATOM     13  S   UNL     1       1.000  -6.708  -0.040  0.00  0.00    -0.127 S 
BRANCH  13  14
ATOM     14  C   UNL     1       2.749  -7.187  -0.059  0.00  0.00    +0.056 C 
BRANCH  14  15
ATOM     15  C   UNL     1       2.861  -8.713  -0.067  0.00  0.00    -0.068 C 
BRANCH  15  18
ATOM     16  C   UNL     1       4.944  -8.708   1.166  0.00  0.00    -0.097 C 
ATOM     17  C   UNL     1       4.427 -10.541  -0.329  0.00  0.00    -0.097 C 
ATOM     18  N   UNL     1       4.290  -9.086  -0.104  0.00  0.00    +0.376 N 
ATOM     19  H   UNL     1       4.746  -8.585  -0.876  0.00  0.00    -0.083 HD
ENDBRANCH  15  18
ENDBRANCH  14  15
ENDBRANCH  13  14
ENDBRANCH   7  13
ENDBRANCH   1  10
BRANCH   4  20
ATOM     20  C   UNL     1       1.026   3.481   0.011  0.00  0.00    +0.002 A 
ATOM     21  C   UNL     1       2.197   4.239   0.009  0.00  0.00    +0.011 A 
ATOM     22  C   UNL     1       2.126   5.615   0.011  0.00  0.00    +0.015 A 
ATOM     23  C   UNL     1       0.888   6.248   0.025  0.00  0.00    +0.008 A 
ATOM     24  C   UNL     1      -0.282   5.495   0.033  0.00  0.00    +0.015 A 
ATOM     25  C   UNL     1      -0.215   4.118   0.025  0.00  0.00    +0.011 A 
BRANCH  23  26
ATOM     26  S   UNL     1       0.800   8.008   0.034  0.00  0.00    -0.127 S 
BRANCH  26  27
ATOM     27  C   UNL     1       2.536   8.534   0.020  0.00  0.00    +0.056 C 
BRANCH  27  28
ATOM     28  C   UNL     1       2.606  10.063   0.027  0.00  0.00    -0.068 C 
BRANCH  28  31
ATOM     29  C   UNL     1       4.665  10.114  -1.246  0.00  0.00    -0.097 C 
ATOM     30  C   UNL     1       4.126  11.933   0.259  0.00  0.00    -0.097 C 
ATOM     31  N   UNL     1       4.025  10.475   0.036  0.00  0.00    +0.376 N 
ATOM     32  H   UNL     1       4.509   9.987   0.799  0.00  0.00    -0.083 HD
ENDBRANCH  28  31
ENDBRANCH  27  28
ENDBRANCH  26  27
ENDBRANCH  23  26
ENDBRANCH   4  20
TORSDOF 10
