REMARK  Name = ZINC03416403
REMARK  11 active torsions:
REMARK  status: ('A' for Active; 'I' for Inactive)
REMARK    1  A    between atoms: C_1  and  C_2
REMARK    2  A    between atoms: C_6  and  C_30
REMARK    3  A    between atoms: C_7  and  N_8
REMARK    4  A    between atoms: C_9  and  C_11
REMARK    5  A    between atoms: C_11  and  N_58
REMARK    6  A    between atoms: C_12  and  N_58
REMARK    7  A    between atoms: C_13  and  C_14
REMARK    8  A    between atoms: C_13  and  N_58
REMARK    9  A    between atoms: N_16  and  C_17
REMARK   10  A    between atoms: C_22  and  S_23
REMARK   11  A    between atoms: S_23  and  C_24
REMARK                            x       y       z     vdW  Elec       q    Type
REMARK                         _______ _______ _______ _____ _____    ______ ____
ROOT
ATOM      1  C   UNL     1      -2.029  -4.592   0.459  0.00  0.00    +0.019 C 
ENDROOT
BRANCH   1   2
ATOM      2  C   UNL     1      -3.452  -5.086   0.500  0.00  0.00    +0.201 C 
ATOM      3  O   UNL     1      -4.369  -4.308   0.339  0.00  0.00    -0.278 OA
ATOM      4  N   UNL     1      -3.706  -6.392   0.715  0.00  0.00    -0.286 N 
ATOM      5  H   UNL     1      -2.975  -7.005   0.892  0.00  0.00    +0.155 HD
BRANCH   4   6
ATOM      6  C   UNL     1      -5.025  -6.864   0.683  0.00  0.00    +0.047 A 
ATOM      7  C   UNL     1      -6.076  -6.010   0.982  0.00  0.00    +0.024 A 
ATOM      8  C   UNL     1      -7.377  -6.478   0.949  0.00  0.00    +0.002 A 
ATOM      9  C   UNL     1      -7.634  -7.796   0.620  0.00  0.00    +0.001 A 
ATOM     10  C   UNL     1      -6.593  -8.654   0.320  0.00  0.00    +0.017 A 
ATOM     11  C   UNL     1      -5.285  -8.192   0.346  0.00  0.00    +0.034 A 
BRANCH  11  12
ATOM     12  S   UNL     1      -3.956  -9.282  -0.043  0.00  0.00    -0.088 S 
BRANCH  12  13
ATOM     13  C   UNL     1      -3.430  -8.761  -1.641  0.00  0.00    +0.013 A 
ATOM     14  C   UNL     1      -4.032  -7.666  -2.250  0.00  0.00    +0.015 A 
ATOM     15  C   UNL     1      -3.614  -7.256  -3.501  0.00  0.00    +0.001 A 
ATOM     16  C   UNL     1      -2.604  -7.941  -4.152  0.00  0.00    +0.000 A 
ATOM     17  C   UNL     1      -2.007  -9.035  -3.552  0.00  0.00    +0.001 A 
ATOM     18  C   UNL     1      -2.416  -9.447  -2.300  0.00  0.00    +0.015 A 
ENDBRANCH  12  13
ENDBRANCH  11  12
ENDBRANCH   4   6
ENDBRANCH   1   2
BRANCH   1  20
ATOM     19  C   UNL     1      -2.611  -2.414   1.341  0.00  0.00    -0.095 C 
ATOM     20  N   UNL     1      -2.036  -3.139   0.189  0.00  0.00    +0.389 N 
ATOM     21  H   UNL     1      -2.613  -2.957  -0.641  0.00  0.00    -0.081 HD
BRANCH  20  22
ATOM     22  C   UNL     1      -0.660  -2.666  -0.069  0.00  0.00    +0.019 C 
BRANCH  22  24
ATOM     23  N   UNL     1       0.417  -0.591  -0.877  0.00  0.00    -0.287 N 
ATOM     24  C   UNL     1      -0.719  -1.241  -0.555  0.00  0.00    +0.201 C 
ATOM     25  O   UNL     1      -1.789  -0.678  -0.657  0.00  0.00    -0.278 OA
ATOM     26  H   UNL     1       1.263  -1.065  -0.879  0.00  0.00    +0.155 HD
BRANCH  23  33
ATOM     27  C   UNL     1      -1.262   0.218  -3.027  0.00  0.00    +0.045 C 
ATOM     28  C   UNL     1      -0.430   1.206  -2.251  0.00  0.00    -0.029 A 
ATOM     29  C   UNL     1      -0.473   2.549  -2.572  0.00  0.00    +0.005 A 
ATOM     30  C   UNL     1       0.294   3.455  -1.864  0.00  0.00    +0.001 A 
ATOM     31  C   UNL     1       1.103   3.021  -0.830  0.00  0.00    +0.005 A 
ATOM     32  C   UNL     1       1.146   1.681  -0.500  0.00  0.00    -0.029 A 
ATOM     33  C   UNL     1       0.376   0.768  -1.209  0.00  0.00    +0.039 A 
ATOM     34  C   UNL     1       2.027   1.209   0.628  0.00  0.00    +0.045 C 
ENDBRANCH  23  33
ENDBRANCH  22  24
ENDBRANCH  20  22
ENDBRANCH   1  20
TORSDOF 8
