REMARK  Name = ZINC39858806
REMARK  13 active torsions:
REMARK  status: ('A' for Active; 'I' for Inactive)
REMARK    1  A    between atoms: C_1  and  C_2
REMARK    2  A    between atoms: C_2  and  O_3
REMARK    3  A    between atoms: O_3  and  C_4
REMARK    4  A    between atoms: C_4  and  C_6
REMARK    5  A    between atoms: C_9  and  N_12
REMARK    6  A    between atoms: C_13  and  C_15
REMARK    7  A    between atoms: C_15  and  C_38
REMARK    8  A    between atoms: C_16  and  C_17
REMARK    9  A    between atoms: C_18  and  O_29
REMARK   10  A    between atoms: C_21  and  C_28
REMARK   11  A    between atoms: O_29  and  C_30
REMARK   12  A    between atoms: C_34  and  C_37
REMARK   13  A    between atoms: C_35  and  C_36
REMARK                            x       y       z     vdW  Elec       q    Type
REMARK                         _______ _______ _______ _____ _____    ______ ____
ROOT
ATOM      1  C   UNL     1       3.896  -7.923   6.181  0.00  0.00    +0.103 A 
ATOM      2  C   UNL     1       3.907  -9.329   6.353  0.00  0.00    +0.235 A 
ATOM      3  N   UNL     1       3.565 -10.111   5.344  0.00  0.00    -0.194 NA
ATOM      4  C   UNL     1       3.208  -9.613   4.159  0.00  0.00    +0.147 A 
ATOM      5  C   UNL     1       2.855 -10.497   3.125  0.00  0.00    -0.007 A 
ATOM      6  C   UNL     1       2.488  -9.999   1.909  0.00  0.00    +0.008 A 
ATOM      7  C   UNL     1       2.468  -8.612   1.708  0.00  0.00    +0.019 A 
ATOM      8  C   UNL     1       2.811  -7.777   2.715  0.00  0.00    +0.096 A 
ATOM      9  N   UNL     1       3.178  -8.266   3.933  0.00  0.00    -0.267 N 
ATOM     10  C   UNL     1       3.509  -7.403   4.918  0.00  0.00    +0.269 A 
ATOM     11  O   UNL     1       3.480  -6.201   4.725  0.00  0.00    -0.266 OA
ATOM     12  C   UNL     1       2.882 -11.986   3.357  0.00  0.00    +0.047 C 
ENDROOT
BRANCH   1  14
ATOM     13  C   UNL     1       5.509  -6.470   7.251  0.00  0.00    +0.114 C 
ATOM     14  C   UNL     1       4.255  -7.065   7.236  0.00  0.00    +0.042 C 
BRANCH  13  16
ATOM     15  N   UNL     1       7.629  -6.070   6.117  0.00  0.00    -0.281 N 
ATOM     16  C   UNL     1       6.464  -6.745   6.173  0.00  0.00    +0.259 C 
ATOM     17  O   UNL     1       6.204  -7.582   5.328  0.00  0.00    -0.269 OA
ATOM     18  H   UNL     1       7.859  -5.441   6.818  0.00  0.00    +0.155 HD
BRANCH  15  22
ATOM     19  C   UNL     1      10.242  -6.690   2.935  0.00  0.00    +0.059 A 
ATOM     20  C   UNL     1      10.141  -5.425   3.522  0.00  0.00    +0.017 A 
ATOM     21  C   UNL     1       9.276  -5.224   4.573  0.00  0.00    +0.024 A 
ATOM     22  C   UNL     1       8.503  -6.277   5.052  0.00  0.00    +0.034 A 
ATOM     23  C   UNL     1       8.602  -7.538   4.471  0.00  0.00    +0.024 A 
ATOM     24  C   UNL     1       9.460  -7.745   3.414  0.00  0.00    +0.017 A 
BRANCH  19  25
ATOM     25  C   UNL     1      11.168  -6.909   1.808  0.00  0.00    +0.339 C 
ATOM     26  O   UNL     1      11.252  -8.008   1.296  0.00  0.00    -0.245 OA
BRANCH  25  27
ATOM     27  O   UNL     1      11.921  -5.891   1.347  0.00  0.00    -0.461 OA
BRANCH  27  29
ATOM     28  C   UNL     1      13.563  -4.908  -0.129  0.00  0.00    +0.048 C 
ATOM     29  C   UNL     1      12.796  -6.175   0.253  0.00  0.00    +0.229 C 
ENDBRANCH  27  29
ENDBRANCH  25  27
ENDBRANCH  19  25
ENDBRANCH  15  22
ENDBRANCH  13  16
BRANCH  13  30
ATOM     30  C   UNL     1       5.870  -5.588   8.320  0.00  0.00    +0.104 C 
ATOM     31  N   UNL     1       6.157  -4.889   9.169  0.00  0.00    -0.191 NA
ENDBRANCH  13  30
ENDBRANCH   1  14
BRANCH   2  32
ATOM     32  O   UNL     1       4.264  -9.867   7.541  0.00  0.00    -0.437 OA
BRANCH  32  33
ATOM     33  C   UNL     1       4.341 -11.221   7.631  0.00  0.00    +0.134 A 
ATOM     34  C   UNL     1       5.561 -11.860   7.456  0.00  0.00    +0.046 A 
ATOM     35  C   UNL     1       5.637 -13.236   7.548  0.00  0.00    +0.004 A 
ATOM     36  C   UNL     1       4.499 -13.976   7.814  0.00  0.00    +0.004 A 
ATOM     37  C   UNL     1       3.283 -13.342   7.987  0.00  0.00    -0.044 A 
ATOM     38  C   UNL     1       3.203 -11.965   7.902  0.00  0.00    -0.005 A 
ATOM     39  C   UNL     1       1.878 -11.274   8.098  0.00  0.00    +0.048 C 
ATOM     40  C   UNL     1       2.046 -14.152   8.276  0.00  0.00    +0.044 C 
ENDBRANCH  32  33
ENDBRANCH   2  32
TORSDOF 9
