REMARK  Name = ZINC03333261
REMARK  9 active torsions:
REMARK  status: ('A' for Active; 'I' for Inactive)
REMARK    1  A    between atoms: C_1  and  C_2
REMARK    2  A    between atoms: C_2  and  C_7
REMARK    3  A    between atoms: C_7  and  O_9
REMARK    4  A    between atoms: O_9  and  C_10
REMARK    5  A    between atoms: C_10  and  C_11
REMARK    6  A    between atoms: C_11  and  C_13
REMARK    7  A    between atoms: C_14  and  N_23
REMARK    8  A    between atoms: N_15  and  C_22
REMARK    9  A    between atoms: N_18  and  C_21
REMARK                            x       y       z     vdW  Elec       q    Type
REMARK                         _______ _______ _______ _____ _____    ______ ____
ROOT
ATOM      1  C   UNL     1      -1.032  -4.987   3.550  0.00  0.00    +0.123 A 
ATOM      2  C   UNL     1      -1.080  -6.386   3.422  0.00  0.00    +0.116 A 
ATOM      3  N   UNL     1      -1.384  -7.140   4.521  0.00  0.00    -0.284 N 
ATOM      4  C   UNL     1      -1.646  -6.569   5.707  0.00  0.00    +0.333 A 
ATOM      5  O   UNL     1      -1.916  -7.283   6.653  0.00  0.00    -0.246 OA
ATOM      6  N   UNL     1      -1.619  -5.239   5.888  0.00  0.00    -0.263 N 
ATOM      7  C   UNL     1      -1.324  -4.408   4.867  0.00  0.00    +0.269 A 
ATOM      8  O   UNL     1      -1.302  -3.202   5.034  0.00  0.00    -0.267 OA
ATOM      9  C   UNL     1      -1.915  -4.683   7.210  0.00  0.00    +0.157 C 
ATOM     10  C   UNL     1      -1.433  -8.599   4.399  0.00  0.00    +0.155 C 
ENDROOT
BRANCH   2  11
ATOM     11  N   UNL     1      -0.824  -6.981   2.226  0.00  0.00    -0.344 N 
ATOM     12  H   UNL     1      -0.527  -6.447   1.472  0.00  0.00    +0.144 HD
ATOM     13  H   UNL     1      -0.937  -7.939   2.126  0.00  0.00    +0.144 HD
ENDBRANCH   2  11
BRANCH   1  14
ATOM     14  C   UNL     1      -0.717  -4.166   2.446  0.00  0.00    +0.209 C 
ATOM     15  O   UNL     1      -0.379  -4.668   1.393  0.00  0.00    -0.288 OA
BRANCH  14  16
ATOM     16  C   UNL     1      -0.800  -2.667   2.574  0.00  0.00    +0.311 C 
BRANCH  16  17
ATOM     17  O   UNL     1      -0.431  -2.052   1.312  0.00  0.00    -0.456 OA
BRANCH  17  18
ATOM     18  C   UNL     1      -0.454  -0.711   1.258  0.00  0.00    +0.316 C 
ATOM     19  O   UNL     1      -0.772  -0.072   2.233  0.00  0.00    -0.250 OA
BRANCH  18  21
ATOM     20  C   UNL     1      -0.479  -0.719  -1.311  0.00  0.00    +0.026 C 
ATOM     21  C   UNL     1      -0.083  -0.002  -0.019  0.00  0.00    +0.100 C 
ATOM     22  C   UNL     1       1.219   0.802  -0.028  0.00  0.00    +0.060 C 
ATOM     23  C   UNL     1      -0.128   1.527  -0.017  0.00  0.00    +0.135 C 
ATOM     24 CL   UNL     1      -0.645   2.347  -1.538  0.00  0.00    -0.100 Cl
ATOM     25 CL   UNL     1      -0.622   2.343   1.513  0.00  0.00    -0.100 Cl
ENDBRANCH  18  21
ENDBRANCH  17  18
ENDBRANCH  16  17
ENDBRANCH  14  16
ENDBRANCH   1  14
TORSDOF 6
