REMARK  Name = ZINC59170459
REMARK  12 active torsions:
REMARK  status: ('A' for Active; 'I' for Inactive)
REMARK    1  A    between atoms: C_1  and  C_2
REMARK    2  A    between atoms: C_5  and  S_8
REMARK    3  A    between atoms: S_8  and  N_11
REMARK    4  A    between atoms: N_11  and  N_12
REMARK    5  A    between atoms: C_14  and  C_28
REMARK    6  A    between atoms: C_18  and  C_24
REMARK    7  A    between atoms: C_20  and  O_23
REMARK    8  A    between atoms: C_24  and  C_25
REMARK    9  A    between atoms: C_24  and  C_26
REMARK   10  A    between atoms: C_24  and  C_27
REMARK   11  A    between atoms: N_30  and  C_31
REMARK   12  A    between atoms: C_36  and  C_37
REMARK                            x       y       z     vdW  Elec       q    Type
REMARK                         _______ _______ _______ _____ _____    ______ ____
ROOT
ATOM      1  N   UNL     1       2.930  -3.929   0.130  0.00  0.00    -0.260 N 
ATOM      2  C   UNL     1       4.145  -4.399   0.167  0.00  0.00    +0.225 A 
ATOM      3  C   UNL     1       4.985  -4.250   1.378  0.00  0.00    +0.099 A 
ATOM      4  C   UNL     1       5.969  -5.189   1.579  0.00  0.00    +0.030 A 
ATOM      5  C   UNL     1       6.104  -6.258   0.582  0.00  0.00    +0.022 A 
ATOM      6  C   UNL     1       6.888  -7.386   0.848  0.00  0.00    +0.016 A 
ATOM      7  C   UNL     1       6.999  -8.379  -0.101  0.00  0.00    -0.038 A 
ATOM      8  C   UNL     1       6.340  -8.268  -1.315  0.00  0.00    +0.053 A 
ATOM      9  C   UNL     1       5.561  -7.155  -1.593  0.00  0.00    +0.160 A 
ATOM     10  C   UNL     1       5.438  -6.143  -0.649  0.00  0.00    +0.179 A 
ATOM     11  O   UNL     1       4.681  -5.048  -0.907  0.00  0.00    -0.434 OA
ATOM     12  H   UNL     1       2.535  -3.541   0.927  0.00  0.00    +0.189 HD
ENDROOT
BRANCH   7  13
ATOM     13  C   UNL     1       7.844  -9.595   0.183  0.00  0.00    -0.013 C 
ATOM     14  C   UNL     1       7.299 -10.317   1.417  0.00  0.00    +0.015 C 
ATOM     15  C   UNL     1       7.801 -10.538  -1.020  0.00  0.00    +0.015 C 
ATOM     16  C   UNL     1       9.289  -9.162   0.442  0.00  0.00    +0.015 C 
ENDBRANCH   7  13
BRANCH   3  17
ATOM     17  C   UNL     1       4.776  -3.143   2.325  0.00  0.00    +0.253 C 
ATOM     18  O   UNL     1       3.855  -2.366   2.159  0.00  0.00    -0.270 OA
ATOM     19  N   UNL     1       5.604  -2.991   3.378  0.00  0.00    -0.281 N 
ATOM     20  H   UNL     1       6.377  -3.569   3.474  0.00  0.00    +0.155 HD
BRANCH  19  21
ATOM     21  C   UNL     1       5.349  -1.999   4.330  0.00  0.00    +0.037 A 
ATOM     22  C   UNL     1       4.076  -1.456   4.446  0.00  0.00    +0.023 A 
ATOM     23  C   UNL     1       3.828  -0.477   5.388  0.00  0.00    +0.002 A 
ATOM     24  C   UNL     1       4.846  -0.038   6.216  0.00  0.00    +0.000 A 
ATOM     25  C   UNL     1       6.114  -0.577   6.103  0.00  0.00    +0.005 A 
ATOM     26  C   UNL     1       6.367  -1.560   5.167  0.00  0.00    -0.029 A 
ATOM     27  C   UNL     1       7.749  -2.151   5.048  0.00  0.00    +0.045 C 
ENDBRANCH  19  21
ENDBRANCH   3  17
BRANCH   1  28
ATOM     28  N   UNL     1       2.193  -3.985  -1.060  0.00  0.00    -0.157 N 
ATOM     29  H   UNL     1       2.558  -4.438  -1.836  0.00  0.00    +0.194 HD
BRANCH  28  30
ATOM     30  S   UNL     1       0.699  -3.276  -1.143  0.00  0.00    +0.085 S 
ATOM     31  O   UNL     1      -0.053  -3.784  -0.049  0.00  0.00    -0.149 OA
ATOM     32  O   UNL     1       0.263  -3.402  -2.490  0.00  0.00    -0.149 OA
BRANCH  30  37
ATOM     33  C   UNL     1       1.458   2.622  -0.120  0.00  0.00    +0.044 C 
ATOM     34  C   UNL     1       1.268   1.149  -0.376  0.00  0.00    -0.050 A 
ATOM     35  C   UNL     1       1.444   0.639  -1.649  0.00  0.00    +0.005 A 
ATOM     36  C   UNL     1       1.270  -0.712  -1.883  0.00  0.00    +0.029 A 
ATOM     37  C   UNL     1       0.921  -1.554  -0.844  0.00  0.00    +0.110 A 
ATOM     38  C   UNL     1       0.746  -1.045   0.429  0.00  0.00    +0.029 A 
ATOM     39  C   UNL     1       0.924   0.305   0.664  0.00  0.00    +0.005 A 
ENDBRANCH  30  37
ENDBRANCH  28  30
ENDBRANCH   1  28
BRANCH   9  40
ATOM     40  O   UNL     1       4.918  -7.055  -2.787  0.00  0.00    -0.503 OA
ATOM     41  H   UNL     1       4.028  -7.433  -2.788  0.00  0.00    +0.292 HD
ENDBRANCH   9  40
TORSDOF 7
