REMARK  Name = ZINC20575569
REMARK  12 active torsions:
REMARK  status: ('A' for Active; 'I' for Inactive)
REMARK    1  A    between atoms: C_1  and  C_2
REMARK    2  A    between atoms: C_2  and  C_3
REMARK    3  A    between atoms: C_2  and  C_4
REMARK    4  A    between atoms: C_2  and  O_5
REMARK    5  A    between atoms: O_5  and  C_6
REMARK    6  A    between atoms: C_11  and  C_14
REMARK    7  A    between atoms: C_15  and  C_26
REMARK    8  A    between atoms: N_18  and  C_19
REMARK    9  A    between atoms: N_28  and  C_29
REMARK   10  A    between atoms: C_29  and  C_30
REMARK   11  A    between atoms: C_30  and  N_31
REMARK   12  A    between atoms: N_34  and  C_37
REMARK                            x       y       z     vdW  Elec       q    Type
REMARK                         _______ _______ _______ _____ _____    ______ ____
ROOT
ATOM      1  C   UNL     1       2.495   5.245  -0.111  0.00  0.00    +0.060 A 
ATOM      2  C   UNL     1       3.849   5.495  -0.206  0.00  0.00    +0.078 A 
ATOM      3  C   UNL     1       4.516   4.263  -0.019  0.00  0.00    +0.148 A 
ATOM      4  N   UNL     1       3.614   3.342   0.180  0.00  0.00    -0.174 NA
ATOM      5  N   UNL     1       2.345   3.930   0.130  0.00  0.00    -0.234 N 
ENDROOT
BRANCH   1  11
ATOM      6  C   UNL     1       0.401  10.204  -0.824  0.00  0.00    +0.403 C 
ATOM      7  O   UNL     1       0.426  10.960   0.128  0.00  0.00    -0.226 OA
ATOM      8  N   UNL     1       0.372   8.872  -0.625  0.00  0.00    -0.267 N 
ATOM      9  C   UNL     1       0.371   8.317   0.735  0.00  0.00    +0.112 C 
ATOM     10  C   UNL     1       1.517   7.308   0.858  0.00  0.00    +0.029 C 
ATOM     11  C   UNL     1       1.388   6.259  -0.249  0.00  0.00    +0.042 C 
ATOM     12  C   UNL     1       1.489   6.941  -1.615  0.00  0.00    +0.029 C 
ATOM     13  C   UNL     1       0.342   7.946  -1.766  0.00  0.00    +0.112 C 
BRANCH   6  14
ATOM     14  O   UNL     1       0.402  10.699  -2.076  0.00  0.00    -0.445 OA
BRANCH  14  16
ATOM     15  C   UNL     1       1.701  12.691  -1.555  0.00  0.00    +0.055 C 
ATOM     16  C   UNL     1       0.433  12.144  -2.214  0.00  0.00    +0.107 C 
ATOM     17  C   UNL     1       0.430  12.515  -3.699  0.00  0.00    +0.055 C 
ATOM     18  C   UNL     1      -0.797  12.748  -1.534  0.00  0.00    +0.055 C 
ENDBRANCH  14  16
ENDBRANCH   6  14
ENDBRANCH   1  11
BRANCH   5  19
ATOM     19  C   UNL     1       1.124   3.262   0.297  0.00  0.00    +0.084 A 
ATOM     20  C   UNL     1       0.170   3.764   1.171  0.00  0.00    +0.029 A 
ATOM     21  C   UNL     1      -1.032   3.104   1.333  0.00  0.00    +0.002 A 
ATOM     22  C   UNL     1      -1.284   1.939   0.631  0.00  0.00    +0.002 A 
ATOM     23  C   UNL     1      -0.338   1.438  -0.244  0.00  0.00    +0.022 A 
ATOM     24  C   UNL     1       0.867   2.095  -0.411  0.00  0.00    +0.066 A 
ATOM     25 CL   UNL     1       2.058   1.461  -1.504  0.00  0.00    -0.081 Cl
ENDBRANCH   5  19
BRANCH   2  26
ATOM     26  C   UNL     1       4.482   6.802  -0.461  0.00  0.00    +0.247 C 
ATOM     27  O   UNL     1       3.802   7.810  -0.498  0.00  0.00    -0.270 OA
ATOM     28  N   UNL     1       5.814   6.880  -0.654  0.00  0.00    -0.310 N 
ATOM     29  H   UNL     1       6.428   5.969  -0.620  0.00  0.00    +0.149 HD
BRANCH  28  30
ATOM     30  C   UNL     1       6.442   8.179  -0.907  0.00  0.00    +0.120 C 
BRANCH  30  31
ATOM     31  C   UNL     1       7.949   7.989  -1.089  0.00  0.00    +0.103 C 
BRANCH  31  32
ATOM     32  N   UNL     1       8.580   9.292  -1.343  0.00  0.00    -0.304 NA
ATOM     33  C   UNL     1       8.143   9.846  -2.632  0.00  0.00    +0.066 C 
ATOM     34  C   UNL     1       8.758  11.234  -2.822  0.00  0.00    -0.064 C 
ATOM     35  N   UNL     1      10.222  11.130  -2.767  0.00  0.00    +0.379 N 
ATOM     36  C   UNL     1      10.660  10.576  -1.478  0.00  0.00    -0.064 C 
ATOM     37  C   UNL     1      10.045   9.187  -1.288  0.00  0.00    +0.066 C 
ATOM     38  C   UNL     1      10.853  12.432  -3.021  0.00  0.00    -0.096 C 
ATOM     39  H   UNL     1      10.544  10.440  -3.560  0.00  0.00    -0.082 HD
ENDBRANCH  31  32
ENDBRANCH  30  31
ENDBRANCH  28  30
ENDBRANCH   2  26
TORSDOF 8
