REMARK  Name = ZINC04155564
REMARK  9 active torsions:
REMARK  status: ('A' for Active; 'I' for Inactive)
REMARK    1  A    between atoms: C_1  and  C_2
REMARK    2  A    between atoms: C_7  and  C_8
REMARK    3  A    between atoms: C_8  and  C_9
REMARK    4  A    between atoms: C_20  and  C_21
REMARK    5  A    between atoms: C_20  and  N_53
REMARK    6  A    between atoms: C_21  and  C_23
REMARK    7  A    between atoms: C_21  and  O_27
REMARK    8  A    between atoms: C_23  and  C_24
REMARK    9  A    between atoms: C_24  and  C_25
REMARK                            x       y       z     vdW  Elec       q    Type
REMARK                         _______ _______ _______ _____ _____    ______ ____
ROOT
ATOM      1  C   UNL     1       8.815   6.220  -2.780  0.00  0.00    +0.114 A 
ATOM      2  N   UNL     1       8.739   5.052  -2.112  0.00  0.00    -0.310 N 
ATOM      3  H   UNL     1       9.568   4.625  -1.751  0.00  0.00    +0.170 HD
ATOM      4  C   UNL     1       7.540   4.460  -1.933  0.00  0.00    +0.253 A 
ATOM      5  O   UNL     1       7.452   3.403  -1.332  0.00  0.00    -0.268 OA
ATOM      6  C   UNL     1       6.387   5.089  -2.456  0.00  0.00    +0.022 A 
ATOM      7  C   UNL     1       6.529   6.266  -3.114  0.00  0.00    +0.048 A 
ATOM      8  N   UNL     1       7.750   6.800  -3.260  0.00  0.00    -0.238 NA
ATOM      9  C   UNL     1       5.346   7.000  -3.691  0.00  0.00    +0.037 C 
ATOM     10  C   UNL     1       4.147   6.057  -3.797  0.00  0.00    -0.072 C 
ATOM     11  C   UNL     1       5.050   4.426  -2.269  0.00  0.00    -0.036 C 
ATOM     12  N   UNL     1       3.969   5.404  -2.485  0.00  0.00    +0.384 N 
ATOM     13  H   UNL     1       4.008   6.117  -1.748  0.00  0.00    -0.081 HD
ENDROOT
BRANCH   1  14
ATOM     14  C   UNL     1      10.160   6.870  -2.977  0.00  0.00    +0.109 C 
BRANCH  14  21
ATOM     15  C   UNL     1       9.494   9.310  -1.581  0.00  0.00    +0.044 C 
ATOM     16  C   UNL     1       9.671   9.322  -3.078  0.00  0.00    -0.047 A 
ATOM     17  C   UNL     1       9.515  10.501  -3.782  0.00  0.00    +0.003 A 
ATOM     18  C   UNL     1       9.677  10.513  -5.155  0.00  0.00    +0.000 A 
ATOM     19  C   UNL     1       9.996   9.345  -5.823  0.00  0.00    +0.000 A 
ATOM     20  C   UNL     1      10.157   8.167  -5.118  0.00  0.00    +0.004 A 
ATOM     21  C   UNL     1       9.990   8.155  -3.745  0.00  0.00    -0.037 A 
ENDBRANCH  14  21
ENDBRANCH   1  14
BRANCH  12  22
ATOM     22  C   UNL     1       2.654   4.725  -2.429  0.00  0.00    -0.047 C 
BRANCH  22  23
ATOM     23  C   UNL     1       2.597   3.838  -1.184  0.00  0.00    +0.098 C 
BRANCH  23  24
ATOM     24  O   UNL     1       2.673   4.654  -0.013  0.00  0.00    -0.394 OA
ATOM     25  H   UNL     1       1.957   5.300   0.063  0.00  0.00    +0.210 HD
ENDBRANCH  23  24
BRANCH  23  26
ATOM     26  C   UNL     1       1.282   3.055  -1.175  0.00  0.00    +0.033 C 
BRANCH  26  27
ATOM     27  C   UNL     1       1.279   2.077   0.001  0.00  0.00    +0.029 C 
BRANCH  27  28
ATOM     28  C   UNL     1      -0.016   1.306   0.009  0.00  0.00    -0.034 C 
ATOM     29  C   UNL     1       0.002  -0.004   0.002  0.00  0.00    +0.004 C 
ENDBRANCH  27  28
ENDBRANCH  26  27
ENDBRANCH  23  26
ENDBRANCH  22  23
ENDBRANCH  12  22
TORSDOF 8
