REMARK  Name = ZINC10139604
REMARK  8 active torsions:
REMARK  status: ('A' for Active; 'I' for Inactive)
REMARK    1  A    between atoms: C_1  and  C_2
REMARK    2  A    between atoms: C_2  and  C_3
REMARK    3  A    between atoms: C_2  and  C_4
REMARK    4  A    between atoms: C_4  and  C_6
REMARK    5  A    between atoms: C_4  and  N_51
REMARK    6  A    between atoms: C_13  and  C_14
REMARK    7  A    between atoms: C_13  and  N_51
REMARK    8  A    between atoms: C_18  and  C_27
REMARK                            x       y       z     vdW  Elec       q    Type
REMARK                         _______ _______ _______ _____ _____    ______ ____
ROOT
ATOM      1  C   UNL     1       2.988   1.667  -3.404  0.00  0.00    +0.203 C 
ATOM      2  O   UNL     1       3.614   0.633  -3.314  0.00  0.00    -0.277 OA
ATOM      3  N   UNL     1       3.099   2.429  -4.510  0.00  0.00    -0.266 N 
ATOM      4  C   UNL     1       2.421   3.732  -4.610  0.00  0.00    +0.168 C 
ATOM      5  C   UNL     1       1.828   3.840  -6.023  0.00  0.00    +0.276 C 
ATOM      6  O   UNL     1       2.885   3.707  -6.976  0.00  0.00    -0.476 OA
ATOM      7  C   UNL     1       3.739   2.660  -6.832  0.00  0.00    +0.143 A 
ATOM      8  C   UNL     1       3.871   2.009  -5.607  0.00  0.00    +0.078 A 
ATOM      9  C   UNL     1       4.745   0.944  -5.476  0.00  0.00    +0.027 A 
ATOM     10  C   UNL     1       5.495   0.529  -6.561  0.00  0.00    +0.002 A 
ATOM     11  C   UNL     1       5.369   1.175  -7.777  0.00  0.00    +0.004 A 
ATOM     12  C   UNL     1       4.495   2.237  -7.915  0.00  0.00    +0.047 A 
ENDROOT
BRANCH   5  13
ATOM     13  C   UNL     1       1.163   5.182  -6.190  0.00  0.00    +0.253 C 
ATOM     14  O   UNL     1       1.603   5.981  -6.989  0.00  0.00    -0.272 OA
ATOM     15  N   UNL     1       0.079   5.493  -5.452  0.00  0.00    -0.326 N 
ATOM     16  H   UNL     1      -0.273   4.854  -4.814  0.00  0.00    +0.145 HD
ATOM     17  H   UNL     1      -0.350   6.356  -5.560  0.00  0.00    +0.145 HD
ENDBRANCH   5  13
BRANCH   1  18
ATOM     18  C   UNL     1       2.085   2.102  -2.278  0.00  0.00    +0.016 C 
BRANCH  18  19
ATOM     19  N   UNL     1       2.235   1.165  -1.149  0.00  0.00    +0.389 N 
ATOM     20  H   UNL     1       1.901   0.236  -1.432  0.00  0.00    -0.084 HD
ATOM     21  H   UNL     1       3.226   1.106  -0.887  0.00  0.00    -0.084 HD
BRANCH  19  22
ATOM     22  C   UNL     1       1.452   1.631   0.011  0.00  0.00    -0.038 C 
BRANCH  22  23
ATOM     23  C   UNL     1       2.217   2.707   0.736  0.00  0.00    -0.061 A 
ATOM     24  C   UNL     1       3.585   2.591   0.900  0.00  0.00    +0.003 A 
ATOM     25  C   UNL     1       4.289   3.581   1.560  0.00  0.00    +0.020 A 
ATOM     26  C   UNL     1       3.622   4.682   2.067  0.00  0.00    +0.041 A 
ATOM     27  C   UNL     1       2.252   4.794   1.909  0.00  0.00    +0.020 A 
ATOM     28  C   UNL     1       1.551   3.807   1.243  0.00  0.00    +0.003 A 
ATOM     29 CL   UNL     1       4.504   5.922   2.904  0.00  0.00    -0.084 Cl
ENDBRANCH  22  23
BRANCH  22  31
ATOM     30  C   UNL     1       0.329  -0.588   0.259  0.00  0.00    +0.006 C 
ATOM     31  C   UNL     1       1.207   0.453   0.957  0.00  0.00    -0.027 C 
ATOM     32  C   UNL     1       0.501   0.952   2.219  0.00  0.00    +0.006 C 
ENDBRANCH  22  31
ENDBRANCH  19  22
ENDBRANCH  18  19
ENDBRANCH   1  18
TORSDOF 6
