REMARK  Name = ZINC58988130
REMARK  10 active torsions:
REMARK  status: ('A' for Active; 'I' for Inactive)
REMARK    1  A    between atoms: C_1  and  C_2
REMARK    2  A    between atoms: N_8  and  C_9
REMARK    3  A    between atoms: C_9  and  C_10
REMARK    4  A    between atoms: N_12  and  C_13
REMARK    5  A    between atoms: C_17  and  N_19
REMARK    6  A    between atoms: C_20  and  C_22
REMARK    7  A    between atoms: C_22  and  C_23
REMARK    8  A    between atoms: C_22  and  C_24
REMARK    9  A    between atoms: C_22  and  O_25
REMARK   10  A    between atoms: O_25  and  C_26
REMARK                            x       y       z     vdW  Elec       q    Type
REMARK                         _______ _______ _______ _____ _____    ______ ____
ROOT
ATOM      1  C   UNL     1       0.995  -1.283   6.149  0.00  0.00    +0.035 A 
ATOM      2  C   UNL     1       2.170  -2.022   6.181  0.00  0.00    +0.026 A 
ATOM      3  C   UNL     1       2.837  -2.211   7.376  0.00  0.00    +0.042 A 
ATOM      4  C   UNL     1       2.337  -1.665   8.544  0.00  0.00    +0.145 A 
ATOM      5  C   UNL     1       1.161  -0.924   8.518  0.00  0.00    +0.071 A 
ATOM      6  C   UNL     1       0.493  -0.728   7.317  0.00  0.00    +0.049 A 
ATOM      7  F   UNL     1       2.992  -1.851   9.711  0.00  0.00    -0.204 F 
ENDROOT
BRANCH   1  10
ATOM      8  C   UNL     1       0.298  -2.077   4.016  0.00  0.00    +0.201 C 
ATOM      9  O   UNL     1       0.920  -3.100   4.207  0.00  0.00    -0.278 OA
ATOM     10  N   UNL     1       0.319  -1.093   4.937  0.00  0.00    -0.287 N 
ATOM     11  H   UNL     1      -0.134  -0.254   4.761  0.00  0.00    +0.155 HD
BRANCH   8  12
ATOM     12  C   UNL     1      -0.499  -1.905   2.748  0.00  0.00    +0.019 C 
BRANCH  12  19
ATOM     13  C   UNL     1      -0.458  -1.650  -0.048  0.00  0.00    -0.013 C 
ATOM     14  C   UNL     1      -1.037  -2.893   0.632  0.00  0.00    -0.071 C 
ATOM     15  C   UNL     1      -0.826  -4.111  -0.270  0.00  0.00    -0.016 C 
ATOM     16  C   UNL     1      -1.407  -5.352   0.414  0.00  0.00    -0.003 C 
ATOM     17  C   UNL     1      -0.747  -5.524   1.785  0.00  0.00    -0.019 C 
ATOM     18  C   UNL     1      -0.961  -4.253   2.611  0.00  0.00    -0.078 C 
ATOM     19  N   UNL     1      -0.360  -3.108   1.916  0.00  0.00    +0.387 N 
ATOM     20  H   UNL     1       0.619  -3.290   1.753  0.00  0.00    -0.081 HD
ENDBRANCH  12  19
ENDBRANCH   8  12
ENDBRANCH   1  10
BRANCH   5  21
ATOM     21  N   UNL     1       0.653  -0.371   9.700  0.00  0.00    -0.280 N 
ATOM     22  C   UNL     1      -0.678  -0.262   9.876  0.00  0.00    +0.261 C 
ATOM     23  O   UNL     1      -1.436  -0.580   8.984  0.00  0.00    -0.271 OA
ATOM     24  H   UNL     1       1.261  -0.066  10.392  0.00  0.00    +0.155 HD
BRANCH  22  25
ATOM     25  C   UNL     1      -1.226   0.255  11.181  0.00  0.00    +0.180 C 
ATOM     26  C   UNL     1      -0.776  -0.660  12.322  0.00  0.00    +0.065 C 
ATOM     27  C   UNL     1      -0.704   1.672  11.428  0.00  0.00    +0.065 C 
BRANCH  25  28
ATOM     28  O   UNL     1      -2.654   0.278  11.123  0.00  0.00    -0.477 OA
BRANCH  28  29
ATOM     29  C   UNL     1      -3.220   1.061  10.168  0.00  0.00    +0.122 A 
ATOM     30  C   UNL     1      -2.422   1.702   9.232  0.00  0.00    +0.047 A 
ATOM     31  C   UNL     1      -3.000   2.498   8.262  0.00  0.00    +0.023 A 
ATOM     32  C   UNL     1      -4.374   2.657   8.225  0.00  0.00    +0.041 A 
ATOM     33  C   UNL     1      -5.172   2.019   9.158  0.00  0.00    +0.023 A 
ATOM     34  C   UNL     1      -4.598   1.216  10.125  0.00  0.00    +0.047 A 
ATOM     35 CL   UNL     1      -5.098   3.658   7.005  0.00  0.00    -0.084 Cl
ENDBRANCH  28  29
ENDBRANCH  25  28
ENDBRANCH  22  25
ENDBRANCH   5  21
TORSDOF 7
