REMARK  Name = ZINC12996189
REMARK  8 active torsions:
REMARK  status: ('A' for Active; 'I' for Inactive)
REMARK    1  A    between atoms: C_1  and  C_2
REMARK    2  A    between atoms: C_4  and  S_23
REMARK    3  A    between atoms: C_6  and  N_9
REMARK    4  A    between atoms: C_7  and  C_8
REMARK    5  A    between atoms: C_10  and  C_12
REMARK    6  A    between atoms: C_12  and  N_49
REMARK    7  A    between atoms: C_20  and  C_22
REMARK    8  A    between atoms: S_23  and  N_26
REMARK                            x       y       z     vdW  Elec       q    Type
REMARK                         _______ _______ _______ _____ _____    ______ ____
ROOT
ATOM      1  N   UNL     1      -1.231   4.787   3.696  0.00  0.00    -0.287 N 
ATOM      2  C   UNL     1      -0.265   5.595   3.215  0.00  0.00    +0.201 C 
ATOM      3  O   UNL     1       0.364   5.267   2.231  0.00  0.00    -0.278 OA
ATOM      4  H   UNL     1      -1.788   5.083   4.433  0.00  0.00    +0.155 HD
ENDROOT
BRANCH   1  10
ATOM      5  C   UNL     1      -4.208   0.982   2.786  0.00  0.00    +0.044 C 
ATOM      6  C   UNL     1      -2.863   1.654   2.678  0.00  0.00    -0.044 A 
ATOM      7  C   UNL     1      -1.825   1.019   2.021  0.00  0.00    +0.032 A 
ATOM      8  C   UNL     1      -0.590   1.633   1.919  0.00  0.00    +0.107 A 
ATOM      9  C   UNL     1      -0.388   2.880   2.478  0.00  0.00    +0.052 A 
ATOM     10  C   UNL     1      -1.431   3.522   3.133  0.00  0.00    +0.038 A 
ATOM     11  C   UNL     1      -2.670   2.903   3.234  0.00  0.00    -0.026 A 
ATOM     12  C   UNL     1      -3.803   3.594   3.948  0.00  0.00    +0.046 C 
BRANCH   8  13
ATOM     13  S   UNL     1       0.730   0.820   1.081  0.00  0.00    +0.056 S 
ATOM     14  O   UNL     1       0.444  -0.571   1.126  0.00  0.00    -0.153 OA
ATOM     15  O   UNL     1       1.936   1.367   1.597  0.00  0.00    -0.153 OA
BRANCH  13  16
ATOM     16  N   UNL     1       0.650   1.269  -0.511  0.00  0.00    -0.204 NA
ATOM     17  H   UNL     1       0.526   0.596  -1.199  0.00  0.00    +0.144 HD
ATOM     18  H   UNL     1       0.726   2.204  -0.756  0.00  0.00    +0.144 HD
ENDBRANCH  13  16
ENDBRANCH   8  13
ENDBRANCH   1  10
BRANCH   2  19
ATOM     19  C   UNL     1       0.033   6.904   3.898  0.00  0.00    +0.020 C 
BRANCH  19  29
ATOM     20  C   UNL     1       0.691   7.992   1.837  0.00  0.00    -0.072 C 
ATOM     21  C   UNL     1       1.939   8.321   1.000  0.00  0.00    +0.024 C 
ATOM     22  C   UNL     1       2.823   9.197   1.828  0.00  0.00    -0.010 A 
ATOM     23  C   UNL     1       2.723   9.419   3.168  0.00  0.00    -0.051 A 
ATOM     24  C   UNL     1       3.663  10.282   3.727  0.00  0.00    +0.010 A 
ATOM     25  C   UNL     1       4.613  10.847   2.946  0.00  0.00    +0.045 A 
ATOM     26  S   UNL     1       4.216  10.174   1.338  0.00  0.00    -0.101 S 
ATOM     27  C   UNL     1       1.619   8.731   3.966  0.00  0.00    -0.039 C 
ATOM     28  C   UNL     1       2.182   8.233   5.298  0.00  0.00    -0.008 C 
ATOM     29  N   UNL     1       1.141   7.566   3.184  0.00  0.00    +0.390 N 
ATOM     30  H   UNL     1       1.915   6.899   3.079  0.00  0.00    -0.080 HD
ENDBRANCH  19  29
ENDBRANCH   2  19
TORSDOF 5
