REMARK  Name = ZINC49060885
REMARK  7 active torsions:
REMARK  status: ('A' for Active; 'I' for Inactive)
REMARK    1  A    between atoms: C_1  and  C_2
REMARK    2  A    between atoms: C_2  and  C_3
REMARK    3  A    between atoms: C_3  and  N_4
REMARK    4  A    between atoms: N_4  and  C_5
REMARK    5  A    between atoms: C_8  and  N_11
REMARK    6  A    between atoms: N_11  and  S_12
REMARK    7  A    between atoms: S_12  and  C_15
REMARK                            x       y       z     vdW  Elec       q    Type
REMARK                         _______ _______ _______ _____ _____    ______ ____
ROOT
ATOM      1  C   UNL     1      -2.865  -2.993  -0.489  0.00  0.00    -0.072 C 
ATOM      2  C   UNL     1      -3.599  -2.397   0.715  0.00  0.00    -0.014 C 
ATOM      3  C   UNL     1      -5.016  -2.968   0.782  0.00  0.00    +0.019 C 
ATOM      4  C   UNL     1      -4.947  -4.489   0.929  0.00  0.00    +0.076 C 
ATOM      5  C   UNL     1      -4.214  -5.085  -0.274  0.00  0.00    +0.019 C 
ATOM      6  C   UNL     1      -2.796  -4.514  -0.341  0.00  0.00    -0.014 C 
ENDROOT
BRANCH   1   7
ATOM      7  N   UNL     1      -1.504  -2.445  -0.553  0.00  0.00    +0.381 N 
ATOM      8  H   UNL     1      -0.994  -2.898  -1.296  0.00  0.00    -0.086 HD
ATOM      9  H   UNL     1      -1.034  -2.607   0.325  0.00  0.00    -0.086 HD
BRANCH   7  10
ATOM     10  C   UNL     1      -1.570  -1.000  -0.814  0.00  0.00    -0.082 C 
BRANCH  10  12
ATOM     11  C   UNL     1      -0.220   1.075  -1.154  0.00  0.00    +0.002 C 
ATOM     12  C   UNL     1      -0.152  -0.429  -0.882  0.00  0.00    -0.022 C 
ENDBRANCH  10  12
ENDBRANCH   7  10
ENDBRANCH   1   7
BRANCH   4  13
ATOM     13  N   UNL     1      -4.225  -4.829   2.158  0.00  0.00    -0.186 NA
ATOM     14  H   UNL     1      -3.477  -4.283   2.447  0.00  0.00    +0.148 HD
BRANCH  13  15
ATOM     15  S   UNL     1      -4.686  -6.143   3.053  0.00  0.00    +0.066 S 
ATOM     16  O   UNL     1      -4.824  -7.226   2.143  0.00  0.00    -0.153 OA
ATOM     17  O   UNL     1      -3.815  -6.197   4.174  0.00  0.00    -0.153 OA
BRANCH  15  18
ATOM     18  C   UNL     1      -6.297  -5.806   3.683  0.00  0.00    +0.156 A 
ATOM     19  C   UNL     1      -7.101  -6.596   4.437  0.00  0.00    +0.051 A 
ATOM     20  C   UNL     1      -8.340  -6.117   4.821  0.00  0.00    +0.025 A 
ATOM     21  C   UNL     1      -8.713  -4.872   4.434  0.00  0.00    +0.048 A 
ATOM     22  S   UNL     1      -7.289  -4.333   3.502  0.00  0.00    -0.076 S 
ATOM     23 BR   UNL     1      -6.538  -8.325   4.953  0.00  0.00    -0.048 Br
ENDBRANCH  15  18
ENDBRANCH  13  15
ENDBRANCH   4  13
TORSDOF 6
