REMARK  Name = ZINC67323745
REMARK  3 active torsions:
REMARK  status: ('A' for Active; 'I' for Inactive)
REMARK    1  A    between atoms: C_1  and  S_2
REMARK    2  A    between atoms: S_2  and  C_5
REMARK    3  A    between atoms: C_8  and  N_11
REMARK                            x       y       z     vdW  Elec       q    Type
REMARK                         _______ _______ _______ _____ _____    ______ ____
ROOT
ATOM      1  N   UNL     1       2.840  -1.462  -4.995  0.00  0.00    -0.264 N 
ATOM      2  C   UNL     1       4.257  -1.490  -4.856  0.00  0.00    +0.152 C 
ATOM      3  C   UNL     1       5.099  -1.778  -6.060  0.00  0.00    +0.013 A 
ATOM      4  C   UNL     1       6.471  -1.842  -5.766  0.00  0.00    +0.028 A 
ATOM      5  C   UNL     1       7.399  -2.151  -6.732  0.00  0.00    +0.042 A 
ATOM      6  C   UNL     1       6.963  -2.412  -8.020  0.00  0.00    +0.023 A 
ATOM      7  C   UNL     1       5.626  -2.329  -8.307  0.00  0.00    +0.047 A 
ATOM      8  C   UNL     1       4.672  -1.976  -7.321  0.00  0.00    +0.126 A 
ATOM      9  O   UNL     1       3.452  -1.826  -7.916  0.00  0.00    -0.482 OA
ATOM     10  C   UNL     1       2.267  -2.312  -7.318  0.00  0.00    +0.325 C 
ATOM     11  C   UNL     1       2.060  -1.691  -5.972  0.00  0.00    +0.258 C 
ATOM     12  O   UNL     1       0.919  -1.329  -5.777  0.00  0.00    -0.272 OA
ATOM     13 CL   UNL     1       9.090  -2.210  -6.344  0.00  0.00    -0.084 Cl
ENDROOT
BRANCH   1  17
ATOM     14  C   UNL     1       0.847  -0.436  -1.483  0.00  0.00    +0.088 A 
ATOM     15  C   UNL     1       1.054  -1.767  -1.795  0.00  0.00    +0.029 A 
ATOM     16  C   UNL     1       1.714  -2.110  -2.958  0.00  0.00    +0.025 A 
ATOM     17  C   UNL     1       2.170  -1.117  -3.815  0.00  0.00    +0.037 A 
ATOM     18  C   UNL     1       1.960   0.219  -3.499  0.00  0.00    +0.025 A 
ATOM     19  C   UNL     1       1.294   0.555  -2.337  0.00  0.00    +0.029 A 
BRANCH  14  21
ATOM     20  C   UNL     1      -1.749   0.067  -0.459  0.00  0.00    +0.200 C 
ATOM     21  S   UNL     1       0.004  -0.002   0.003  0.00  0.00    -0.006 S 
ATOM     22  O   UNL     1       0.478   1.299   0.322  0.00  0.00    -0.170 OA
ATOM     23  O   UNL     1       0.235  -1.093   0.883  0.00  0.00    -0.170 OA
ENDBRANCH  14  21
ENDBRANCH   1  17
TORSDOF 2
