REMARK  Name = ZINC66940161
REMARK  9 active torsions:
REMARK  status: ('A' for Active; 'I' for Inactive)
REMARK    1  A    between atoms: C_1  and  C_2
REMARK    2  A    between atoms: C_2  and  C_4
REMARK    3  A    between atoms: C_2  and  N_16
REMARK    4  A    between atoms: C_7  and  O_10
REMARK    5  A    between atoms: O_10  and  C_11
REMARK    6  A    between atoms: C_11  and  C_12
REMARK    7  A    between atoms: N_16  and  C_17
REMARK    8  A    between atoms: C_17  and  C_19
REMARK    9  A    between atoms: C_17  and  C_26
REMARK                            x       y       z     vdW  Elec       q    Type
REMARK                         _______ _______ _______ _____ _____    ______ ____
ROOT
ATOM      1  N   UNL     1      -1.376  -0.512   0.012  0.00  0.00    +0.394 N 
ATOM      2  H   UNL     1      -1.363  -1.518   0.090  0.00  0.00    -0.083 HD
ATOM      3  H   UNL     1      -1.873  -0.121   0.799  0.00  0.00    -0.083 HD
ENDROOT
BRANCH   1   5
ATOM      4  C   UNL     1      -0.019   1.526   0.010  0.00  0.00    -0.009 C 
ATOM      5  C   UNL     1       0.002  -0.004   0.002  0.00  0.00    -0.043 C 
BRANCH   5   6
ATOM      6  C   UNL     1       0.731  -0.503   1.223  0.00  0.00    -0.061 A 
ATOM      7  C   UNL     1       0.080  -0.558   2.441  0.00  0.00    +0.005 A 
ATOM      8  C   UNL     1       0.746  -1.015   3.562  0.00  0.00    +0.046 A 
ATOM      9  C   UNL     1       2.069  -1.419   3.464  0.00  0.00    +0.121 A 
ATOM     10  C   UNL     1       2.720  -1.364   2.240  0.00  0.00    +0.046 A 
ATOM     11  C   UNL     1       2.048  -0.911   1.122  0.00  0.00    +0.005 A 
BRANCH   9  12
ATOM     12  O   UNL     1       2.727  -1.869   4.565  0.00  0.00    -0.483 OA
BRANCH  12  13
ATOM     13  C   UNL     1       4.087  -2.268   4.390  0.00  0.00    +0.342 C 
BRANCH  13  14
ATOM     14  C   UNL     1       4.656  -2.741   5.730  0.00  0.00    +0.424 C 
ATOM     15  F   UNL     1       3.908  -3.826   6.198  0.00  0.00    -0.167 F 
ATOM     16  F   UNL     1       5.989  -3.132   5.558  0.00  0.00    -0.167 F 
ATOM     17  F   UNL     1       4.593  -1.696   6.658  0.00  0.00    -0.167 F 
ENDBRANCH  13  14
ENDBRANCH  12  13
ENDBRANCH   9  12
ENDBRANCH   5   6
ENDBRANCH   1   5
BRANCH   1  18
ATOM     18  C   UNL     1      -2.050  -0.126  -1.234  0.00  0.00    +0.047 C 
BRANCH  18  19
ATOM     19  C   UNL     1      -3.498  -0.540  -1.172  0.00  0.00    -0.053 A 
ATOM     20  C   UNL     1      -3.845  -1.754  -0.608  0.00  0.00    +0.005 A 
ATOM     21  C   UNL     1      -5.173  -2.134  -0.550  0.00  0.00    +0.038 A 
ATOM     22  C   UNL     1      -6.154  -1.300  -1.057  0.00  0.00    +0.123 A 
ATOM     23  C   UNL     1      -5.805  -0.085  -1.621  0.00  0.00    +0.038 A 
ATOM     24  C   UNL     1      -4.478   0.296  -1.673  0.00  0.00    +0.005 A 
ATOM     25  F   UNL     1      -7.452  -1.671  -1.001  0.00  0.00    -0.205 F 
ENDBRANCH  18  19
BRANCH  18  26
ATOM     26  C   UNL     1      -1.382  -0.810  -2.399  0.00  0.00    +0.201 C 
ATOM     27  O   UNL     1      -0.437  -1.546  -2.210  0.00  0.00    -0.277 OA
ATOM     28  N   UNL     1      -1.834  -0.603  -3.652  0.00  0.00    -0.330 N 
ATOM     29  H   UNL     1      -2.589  -0.013  -3.804  0.00  0.00    +0.145 HD
ATOM     30  H   UNL     1      -1.404  -1.042  -4.402  0.00  0.00    +0.145 HD
ENDBRANCH  18  26
ENDBRANCH   1  18
TORSDOF 8
