REMARK  Name = ZINC37852766
REMARK  12 active torsions:
REMARK  status: ('A' for Active; 'I' for Inactive)
REMARK    1  A    between atoms: C_1  and  C_2
REMARK    2  A    between atoms: C_2  and  C_3
REMARK    3  A    between atoms: C_3  and  C_4
REMARK    4  A    between atoms: C_4  and  C_6
REMARK    5  A    between atoms: C_4  and  N_7
REMARK    6  A    between atoms: N_7  and  C_8
REMARK    7  A    between atoms: C_8  and  C_9
REMARK    8  A    between atoms: C_9  and  C_11
REMARK    9  A    between atoms: C_9  and  O_21
REMARK   10  A    between atoms: C_11  and  O_12
REMARK   11  A    between atoms: O_12  and  C_13
REMARK   12  A    between atoms: C_16  and  C_20
REMARK                            x       y       z     vdW  Elec       q    Type
REMARK                         _______ _______ _______ _____ _____    ______ ____
ROOT
ATOM      1  C   UNL     1      -2.057  -4.529  -1.378  0.00  0.00    +0.135 C 
ENDROOT
BRANCH   1   2
ATOM      2  O   UNL     1      -2.564  -4.253  -2.686  0.00  0.00    -0.390 OA
ATOM      3  H   UNL     1      -2.052  -4.657  -3.399  0.00  0.00    +0.210 HD
ENDBRANCH   1   2
BRANCH   1   4
ATOM      4  C   UNL     1      -0.626  -4.000  -1.263  0.00  0.00    -0.047 C 
BRANCH   4   5
ATOM      5  N   UNL     1      -0.635  -2.535  -1.375  0.00  0.00    +0.382 N 
ATOM      6  H   UNL     1      -1.198  -2.144  -0.635  0.00  0.00    -0.085 HD
ATOM      7  H   UNL     1      -1.022  -2.268  -2.269  0.00  0.00    -0.085 HD
BRANCH   5   8
ATOM      8  C   UNL     1       0.739  -2.027  -1.265  0.00  0.00    -0.075 C 
ATOM      9  C   UNL     1       1.562  -2.520  -2.457  0.00  0.00    -0.014 C 
BRANCH   8  10
ATOM     10  C   UNL     1       0.718  -0.497  -1.257  0.00  0.00    -0.016 C 
BRANCH  10  12
ATOM     11  C   UNL     1      -0.019   1.526   0.010  0.00  0.00    +0.004 C 
ATOM     12  C   UNL     1       0.002  -0.004   0.002  0.00  0.00    -0.005 C 
ENDBRANCH  10  12
ENDBRANCH   8  10
ENDBRANCH   5   8
ENDBRANCH   4   5
ENDBRANCH   1   4
BRANCH   1  13
ATOM     13  C   UNL     1      -2.064  -6.040  -1.137  0.00  0.00    +0.258 C 
BRANCH  13  14
ATOM     14  O   UNL     1      -3.411  -6.515  -1.129  0.00  0.00    -0.488 OA
BRANCH  14  15
ATOM     15  C   UNL     1      -3.595  -7.846  -0.926  0.00  0.00    +0.135 A 
ATOM     16  C   UNL     1      -2.501  -8.677  -0.733  0.00  0.00    +0.047 A 
ATOM     17  C   UNL     1      -2.689 -10.030  -0.526  0.00  0.00    +0.007 A 
ATOM     18  C   UNL     1      -3.968 -10.557  -0.512  0.00  0.00    -0.049 A 
ATOM     19  C   UNL     1      -5.060  -9.732  -0.704  0.00  0.00    +0.022 A 
ATOM     20  C   UNL     1      -4.877  -8.376  -0.906  0.00  0.00    +0.060 A 
ATOM     21 BR   UNL     1      -6.372  -7.247  -1.160  0.00  0.00    -0.047 Br
ATOM     22  C   UNL     1      -4.170 -12.033  -0.287  0.00  0.00    +0.044 C 
ENDBRANCH  14  15
ENDBRANCH  13  14
ENDBRANCH   1  13
TORSDOF 9
