REMARK  Name = ZINC19347799
REMARK  6 active torsions:
REMARK  status: ('A' for Active; 'I' for Inactive)
REMARK    1  A    between atoms: C_4  and  N_11
REMARK    2  A    between atoms: C_5  and  C_7
REMARK    3  A    between atoms: C_12  and  C_14
REMARK    4  A    between atoms: C_14  and  N_15
REMARK    5  A    between atoms: C_24  and  N_26
REMARK    6  A    between atoms: C_27  and  C_29
REMARK                            x       y       z     vdW  Elec       q    Type
REMARK                         _______ _______ _______ _____ _____    ______ ____
ROOT
ATOM      1  N   UNL     1       7.178   0.263  -0.382  0.00  0.00    +0.389 N 
ATOM      2  C   UNL     1       7.276   1.077   0.828  0.00  0.00    -0.066 C 
ATOM      3  C   UNL     1       7.591   0.237   2.054  0.00  0.00    -0.015 C 
ATOM      4  C   UNL     1       8.829  -0.630   1.864  0.00  0.00    -0.003 C 
ATOM      5  C   UNL     1       8.832  -1.339   0.516  0.00  0.00    -0.015 C 
ATOM      6  C   UNL     1       8.450  -0.413  -0.628  0.00  0.00    -0.066 C 
ATOM      7  C   UNL     1       9.543   0.612  -0.908  0.00  0.00    +0.007 C 
ATOM      8  C   UNL     1       9.661   1.646   0.205  0.00  0.00    +0.070 C 
ATOM      9  C   UNL     1       8.301   2.188   0.631  0.00  0.00    +0.007 C 
ATOM     10  H   UNL     1       6.990   0.881  -1.167  0.00  0.00    -0.080 HD
ENDROOT
BRANCH   8  11
ATOM     11  N   UNL     1      10.479   2.772  -0.287  0.00  0.00    -0.312 N 
ATOM     12  C   UNL     1      11.151   3.549   0.586  0.00  0.00    +0.216 C 
ATOM     13  O   UNL     1      11.082   3.323   1.776  0.00  0.00    -0.276 OA
ATOM     14  H   UNL     1      10.534   2.952  -1.239  0.00  0.00    +0.149 HD
BRANCH  12  15
ATOM     15  C   UNL     1      11.986   4.698   0.084  0.00  0.00    +0.075 C 
ATOM     16  C   UNL     1      13.075   4.166  -0.851  0.00  0.00    +0.013 C 
ATOM     17  C   UNL     1      13.923   5.333  -1.361  0.00  0.00    +0.001 C 
ATOM     18  C   UNL     1      14.574   6.047  -0.175  0.00  0.00    +0.000 C 
ATOM     19  C   UNL     1      13.486   6.578   0.760  0.00  0.00    +0.001 C 
ATOM     20  C   UNL     1      12.637   5.412   1.270  0.00  0.00    +0.013 C 
ENDBRANCH  12  15
ENDBRANCH   8  11
BRANCH   1  21
ATOM     21  C   UNL     1       6.083  -0.701  -0.278  0.00  0.00    +0.020 C 
BRANCH  21  23
ATOM     22  N   UNL     1       3.622  -0.651  -0.037  0.00  0.00    -0.287 N 
ATOM     23  C   UNL     1       4.775   0.037  -0.147  0.00  0.00    +0.201 C 
ATOM     24  O   UNL     1       4.761   1.250  -0.141  0.00  0.00    -0.278 OA
ATOM     25  H   UNL     1       3.639  -1.618   0.038  0.00  0.00    +0.155 HD
BRANCH  22  29
ATOM     26  C   UNL     1      -0.019   1.375  -0.023  0.00  0.00    +0.001 A 
ATOM     27  C   UNL     1       1.087   1.947  -0.626  0.00  0.00    +0.002 A 
ATOM     28  C   UNL     1       2.295   1.278  -0.633  0.00  0.00    +0.024 A 
ATOM     29  C   UNL     1       2.399   0.030  -0.032  0.00  0.00    +0.045 A 
ATOM     30  C   UNL     1       1.287  -0.541   0.573  0.00  0.00    +0.076 A 
ATOM     31  C   UNL     1       0.082   0.133   0.576  0.00  0.00    +0.014 A 
BRANCH  30  32
ATOM     32  C   UNL     1       1.396  -1.895   1.226  0.00  0.00    +0.419 C 
ATOM     33  F   UNL     1       0.155  -2.255   1.761  0.00  0.00    -0.166 F 
ATOM     34  F   UNL     1       1.785  -2.842   0.273  0.00  0.00    -0.166 F 
ATOM     35  F   UNL     1       2.349  -1.845   2.249  0.00  0.00    -0.166 F 
ENDBRANCH  30  32
ENDBRANCH  22  29
ENDBRANCH  21  23
ENDBRANCH   1  21
TORSDOF 6
