REMARK  Name = ZINC40912364
REMARK  7 active torsions:
REMARK  status: ('A' for Active; 'I' for Inactive)
REMARK    1  A    between atoms: C_1  and  C_2
REMARK    2  A    between atoms: C_2  and  C_3
REMARK    3  A    between atoms: C_2  and  C_4
REMARK    4  A    between atoms: C_2  and  N_7
REMARK    5  A    between atoms: N_10  and  C_11
REMARK    6  A    between atoms: C_11  and  C_12
REMARK    7  A    between atoms: C_12  and  C_13
REMARK                            x       y       z     vdW  Elec       q    Type
REMARK                         _______ _______ _______ _____ _____    ______ ____
ROOT
ATOM      1  N   UNL     1       0.688  -0.476  -1.203  0.00  0.00    -0.284 N 
ATOM      2  C   UNL     1       1.972  -0.132  -1.427  0.00  0.00    +0.300 C 
ATOM      3  O   UNL     1       2.561   0.570  -0.628  0.00  0.00    -0.253 OA
ATOM      4  N   UNL     1       2.602  -0.567  -2.536  0.00  0.00    -0.299 N 
ATOM      5  H   UNL     1       0.218  -1.037  -1.840  0.00  0.00    +0.151 HD
ATOM      6  H   UNL     1       2.132  -1.127  -3.173  0.00  0.00    +0.150 HD
ENDROOT
BRANCH   1   8
ATOM      7  C   UNL     1      -0.019   1.526   0.010  0.00  0.00    +0.043 C 
ATOM      8  C   UNL     1       0.002  -0.004   0.002  0.00  0.00    +0.131 C 
ATOM      9  C   UNL     1       0.742  -0.511   1.242  0.00  0.00    +0.043 C 
BRANCH   8  10
ATOM     10  C   UNL     1      -1.412  -0.526   0.013  0.00  0.00    +0.378 C 
ATOM     11  O   UNL     1      -1.810  -1.227  -0.902  0.00  0.00    -0.244 OA
ATOM     12  O   UNL     1      -2.158  -0.246   0.936  0.00  0.00    -0.244 OA
ENDBRANCH   8  10
ENDBRANCH   1   8
BRANCH   4  13
ATOM     13  C   UNL     1       3.998  -0.193  -2.779  0.00  0.00    +0.106 C 
BRANCH  13  14
ATOM     14  C   UNL     1       4.470  -0.812  -4.096  0.00  0.00    +0.022 C 
BRANCH  14  15
ATOM     15  C   UNL     1       5.927  -0.421  -4.350  0.00  0.00    -0.010 C 
ATOM     16  C   UNL     1       6.027   1.092  -4.632  0.00  0.00    +0.003 C 
ATOM     17  C   UNL     1       7.125   1.204  -5.718  0.00  0.00    +0.000 C 
ATOM     18  C   UNL     1       6.856  -0.035  -6.606  0.00  0.00    +0.000 C 
ATOM     19  C   UNL     1       6.454  -1.138  -5.605  0.00  0.00    +0.003 C 
ENDBRANCH  14  15
ENDBRANCH  13  14
ENDBRANCH   4  13
TORSDOF 5
