REMARK  Name = ZINC01828104
REMARK  9 active torsions:
REMARK  status: ('A' for Active; 'I' for Inactive)
REMARK    1  A    between atoms: C_1  and  O_2
REMARK    2  A    between atoms: O_2  and  C_3
REMARK    3  A    between atoms: C_13  and  C_17
REMARK    4  A    between atoms: C_20  and  O_34
REMARK    5  A    between atoms: C_21  and  C_23
REMARK    6  A    between atoms: C_23  and  O_24
REMARK    7  A    between atoms: O_24  and  C_25
REMARK    8  A    between atoms: C_28  and  N_31
REMARK    9  A    between atoms: O_34  and  C_35
REMARK                            x       y       z     vdW  Elec       q    Type
REMARK                         _______ _______ _______ _____ _____    ______ ____
ROOT
ATOM      1  C   UNL     1       0.936   0.440   4.814  0.00  0.00    -0.055 A 
ATOM      2  C   UNL     1       1.534   0.028   3.637  0.00  0.00    +0.006 A 
ATOM      3  C   UNL     1       0.991   0.392   2.421  0.00  0.00    +0.046 A 
ATOM      4  C   UNL     1      -0.149   1.182   2.380  0.00  0.00    +0.126 A 
ATOM      5  C   UNL     1      -0.747   1.594   3.561  0.00  0.00    +0.031 A 
ATOM      6  C   UNL     1      -0.203   1.222   4.776  0.00  0.00    +0.013 A 
ENDROOT
BRANCH   1  17
ATOM      7  C   UNL     1       6.599   2.983   7.644  0.00  0.00    +0.121 A 
ATOM      8  C   UNL     1       5.875   4.094   7.232  0.00  0.00    +0.047 A 
ATOM      9  C   UNL     1       4.577   3.995   6.763  0.00  0.00    +0.030 A 
ATOM     10  C   UNL     1       4.013   2.723   6.717  0.00  0.00    +0.047 A 
ATOM     11  C   UNL     1       4.750   1.586   7.138  0.00  0.00    +0.006 A 
ATOM     12  C   UNL     1       6.062   1.705   7.609  0.00  0.00    +0.056 A 
ATOM     13  C   UNL     1       3.870   0.452   6.959  0.00  0.00    -0.022 A 
ATOM     14  C   UNL     1       2.704   0.925   6.463  0.00  0.00    +0.010 A 
ATOM     15  N   UNL     1       2.781   2.283   6.316  0.00  0.00    -0.359 N 
ATOM     16  H   UNL     1       2.069   2.849   5.978  0.00  0.00    +0.166 HD
ATOM     17  C   UNL     1       1.527   0.036   6.140  0.00  0.00    +0.007 C 
ATOM     18  C   UNL     1       2.766  -1.726   7.265  0.00  0.00    -0.076 C 
ATOM     19  C   UNL     1       4.121  -1.007   7.246  0.00  0.00    +0.018 C 
ATOM     20  N   UNL     1       1.992  -1.366   6.058  0.00  0.00    +0.387 N 
ATOM     21  H   UNL     1       2.588  -1.476   5.230  0.00  0.00    -0.084 HD
ATOM     22  H   UNL     1       1.179  -1.988   5.981  0.00  0.00    -0.084 HD
BRANCH   7  24
ATOM     23  C   UNL     1       8.381   4.488   8.111  0.00  0.00    +0.277 C 
ATOM     24  O   UNL     1       7.872   3.153   8.095  0.00  0.00    -0.495 OA
ENDBRANCH   7  24
ENDBRANCH   1  17
BRANCH   4  25
ATOM     25  O   UNL     1      -0.682   1.547   1.184  0.00  0.00    -0.495 OA
ATOM     26  C   UNL     1      -0.013   1.086   0.008  0.00  0.00    +0.277 C 
ENDBRANCH   4  25
BRANCH   5  27
ATOM     27  C   UNL     1      -1.989   2.447   3.520  0.00  0.00    +0.268 C 
BRANCH  27  28
ATOM     28  O   UNL     1      -2.411   2.738   4.854  0.00  0.00    -0.487 OA
BRANCH  28  29
ATOM     29  C   UNL     1      -3.525   3.503   4.996  0.00  0.00    +0.121 A 
ATOM     30  C   UNL     1      -4.195   3.969   3.874  0.00  0.00    +0.048 A 
ATOM     31  C   UNL     1      -5.331   4.742   4.020  0.00  0.00    +0.036 A 
ATOM     32  C   UNL     1      -5.793   5.061   5.284  0.00  0.00    +0.126 A 
ATOM     33  C   UNL     1      -5.124   4.603   6.403  0.00  0.00    +0.036 A 
ATOM     34  C   UNL     1      -3.991   3.825   6.262  0.00  0.00    +0.048 A 
BRANCH  32  35
ATOM     35  N   UNL     1      -7.006   5.895   5.438  0.00  0.00    +0.056 N 
ATOM     36  O   UNL     1      -7.415   6.176   6.550  0.00  0.00    -0.126 OA
ATOM     37  O   UNL     1      -7.597   6.299   4.452  0.00  0.00    -0.126 OA
ENDBRANCH  32  35
ENDBRANCH  28  29
ENDBRANCH  27  28
ENDBRANCH   5  27
TORSDOF 7
