REMARK  Name = ZINC20189893
REMARK  9 active torsions:
REMARK  status: ('A' for Active; 'I' for Inactive)
REMARK    1  A    between atoms: C_1  and  O_2
REMARK    2  A    between atoms: O_2  and  C_3
REMARK    3  A    between atoms: C_6  and  S_11
REMARK    4  A    between atoms: C_8  and  C_9
REMARK    5  A    between atoms: C_9  and  N_10
REMARK    6  A    between atoms: S_11  and  N_14
REMARK    7  A    between atoms: N_14  and  C_15
REMARK    8  A    between atoms: C_15  and  C_16
REMARK    9  A    between atoms: C_16  and  C_17
REMARK                            x       y       z     vdW  Elec       q    Type
REMARK                         _______ _______ _______ _____ _____    ______ ____
ROOT
ATOM      1  C   UNL     1       1.179   1.786   0.000  0.00  0.00    +0.122 A 
ATOM      2  C   UNL     1      -0.013   1.076   0.008  0.00  0.00    +0.048 A 
ATOM      3  C   UNL     1      -1.218   1.751   0.017  0.00  0.00    +0.032 A 
ATOM      4  C   UNL     1      -1.237   3.133   0.030  0.00  0.00    +0.106 A 
ATOM      5  C   UNL     1      -0.051   3.844   0.022  0.00  0.00    +0.033 A 
ATOM      6  C   UNL     1       1.157   3.173   0.008  0.00  0.00    -0.021 A 
ENDROOT
BRANCH   4   7
ATOM      7  S   UNL     1      -2.776   3.991   0.048  0.00  0.00    +0.058 S 
ATOM      8  O   UNL     1      -3.732   3.099   0.604  0.00  0.00    -0.153 OA
ATOM      9  O   UNL     1      -2.519   5.274   0.603  0.00  0.00    -0.153 OA
BRANCH   7  10
ATOM     10  N   UNL     1      -3.218   4.238  -1.528  0.00  0.00    -0.190 NA
ATOM     11  H   UNL     1      -3.118   5.243  -1.964  0.00  0.00    +0.148 HD
BRANCH  10  12
ATOM     12  C   UNL     1      -3.528   3.094  -2.389  0.00  0.00    +0.110 C 
BRANCH  12  13
ATOM     13  C   UNL     1      -4.254   3.582  -3.645  0.00  0.00    +0.047 C 
BRANCH  13  14
ATOM     14  C   UNL     1      -4.572   2.405  -4.531  0.00  0.00    -0.072 C 
ATOM     15  C   UNL     1      -5.744   1.865  -4.424  0.00  0.00    -0.028 C 
ATOM     16  C   UNL     1      -6.202   0.685  -5.230  0.00  0.00    +0.027 C 
ATOM     17  C   UNL     1      -5.293   0.492  -6.446  0.00  0.00    +0.004 C 
ATOM     18  C   UNL     1      -3.835   0.519  -5.971  0.00  0.00    +0.005 C 
ATOM     19  C   UNL     1      -3.514   1.936  -5.485  0.00  0.00    +0.030 C 
ENDBRANCH  13  14
ENDBRANCH  12  13
ENDBRANCH  10  12
ENDBRANCH   7  10
ENDBRANCH   4   7
BRANCH   1  21
ATOM     20  C   UNL     1       2.313  -0.303  -0.022  0.00  0.00    +0.277 C 
ATOM     21  O   UNL     1       2.366   1.125  -0.015  0.00  0.00    -0.495 OA
ENDBRANCH   1  21
BRANCH   6  22
ATOM     22  C   UNL     1       2.449   3.948  -0.001  0.00  0.00    -0.047 C 
BRANCH  22  23
ATOM     23  N   UNL     1       2.980   4.001  -1.370  0.00  0.00    +0.381 N 
ATOM     24  H   UNL     1       3.923   4.566  -1.376  0.00  0.00    -0.090 HD
ATOM     25  H   UNL     1       2.250   4.497  -2.027  0.00  0.00    -0.090 HD
ATOM     26  H   UNL     1       3.163   2.978  -1.732  0.00  0.00    -0.090 HD
ENDBRANCH  22  23
ENDBRANCH   6  22
TORSDOF 8
