REMARK  Name = ZINC49685826
REMARK  9 active torsions:
REMARK  status: ('A' for Active; 'I' for Inactive)
REMARK    1  A    between atoms: C_1  and  C_2
REMARK    2  A    between atoms: C_4  and  C_8
REMARK    3  A    between atoms: C_5  and  C_7
REMARK    4  A    between atoms: C_8  and  N_9
REMARK    5  A    between atoms: N_9  and  C_10
REMARK    6  A    between atoms: C_10  and  C_12
REMARK    7  A    between atoms: C_10  and  C_13
REMARK    8  A    between atoms: C_16  and  S_19
REMARK    9  A    between atoms: S_19  and  N_22
REMARK                            x       y       z     vdW  Elec       q    Type
REMARK                         _______ _______ _______ _____ _____    ______ ____
ROOT
ATOM      1  C   UNL     1      -3.219  -4.705   1.354  0.00  0.00    -0.044 C 
ATOM      2  C   UNL     1      -2.826  -5.925   0.518  0.00  0.00    -0.009 C 
ENDROOT
BRANCH   1   3
ATOM      3  C   UNL     1      -3.508  -5.137   2.769  0.00  0.00    -0.062 A 
ATOM      4  C   UNL     1      -2.466  -5.357   3.651  0.00  0.00    +0.004 A 
ATOM      5  C   UNL     1      -2.731  -5.753   4.948  0.00  0.00    +0.029 A 
ATOM      6  C   UNL     1      -4.038  -5.930   5.364  0.00  0.00    +0.105 A 
ATOM      7  C   UNL     1      -5.079  -5.710   4.482  0.00  0.00    +0.029 A 
ATOM      8  C   UNL     1      -4.814  -5.309   3.186  0.00  0.00    +0.004 A 
BRANCH   6   9
ATOM      9  S   UNL     1      -4.376  -6.437   7.017  0.00  0.00    +0.056 S 
ATOM     10  O   UNL     1      -5.654  -7.058   6.999  0.00  0.00    -0.153 OA
ATOM     11  O   UNL     1      -3.211  -7.104   7.484  0.00  0.00    -0.153 OA
BRANCH   9  12
ATOM     12  N   UNL     1      -4.531  -5.063   7.928  0.00  0.00    -0.204 NA
ATOM     13  H   UNL     1      -4.432  -4.192   7.513  0.00  0.00    +0.144 HD
ATOM     14  H   UNL     1      -4.720  -5.129   8.877  0.00  0.00    +0.144 HD
ENDBRANCH   9  12
ENDBRANCH   6   9
ENDBRANCH   1   3
BRANCH   1  15
ATOM     15  N   UNL     1      -2.115  -3.736   1.355  0.00  0.00    +0.386 N 
ATOM     16  H   UNL     1      -1.271  -4.187   1.673  0.00  0.00    -0.085 HD
ATOM     17  H   UNL     1      -2.340  -2.970   1.971  0.00  0.00    -0.085 HD
BRANCH  15  18
ATOM     18  C   UNL     1      -1.912  -3.224  -0.008  0.00  0.00    -0.045 C 
BRANCH  18  22
ATOM     19  C   UNL     1      -0.018   1.503   0.010  0.00  0.00    +0.051 C 
ATOM     20  C   UNL     1       0.002  -0.004   0.002  0.00  0.00    -0.013 A 
ATOM     21  C   UNL     1      -1.039  -0.872   0.002  0.00  0.00    +0.013 A 
ATOM     22  C   UNL     1      -0.780  -2.230  -0.007  0.00  0.00    -0.054 A 
ATOM     23  C   UNL     1       0.507  -2.653  -0.016  0.00  0.00    -0.012 A 
ATOM     24  S   UNL     1       1.404  -1.109  -0.018  0.00  0.00    -0.098 S 
ATOM     25  C   UNL     1       1.043  -4.062  -0.027  0.00  0.00    +0.052 C 
ENDBRANCH  18  22
ENDBRANCH  15  18
ENDBRANCH   1  15
TORSDOF 6
