REMARK  Name = ZINC36546534
REMARK  12 active torsions:
REMARK  status: ('A' for Active; 'I' for Inactive)
REMARK    1  A    between atoms: C_1  and  C_2
REMARK    2  A    between atoms: C_2  and  C_3
REMARK    3  A    between atoms: C_3  and  C_4
REMARK    4  A    between atoms: C_4  and  N_5
REMARK    5  A    between atoms: C_6  and  C_8
REMARK    6  A    between atoms: C_8  and  C_10
REMARK    7  A    between atoms: C_8  and  N_19
REMARK    8  A    between atoms: C_11  and  O_18
REMARK    9  A    between atoms: C_13  and  O_17
REMARK   10  A    between atoms: C_15  and  O_16
REMARK   11  A    between atoms: N_19  and  C_20
REMARK   12  A    between atoms: C_27  and  C_29
REMARK                            x       y       z     vdW  Elec       q    Type
REMARK                         _______ _______ _______ _____ _____    ______ ____
ROOT
ATOM      1  C   UNL     1       2.128  -4.529  -3.683  0.00  0.00    +0.204 C 
ENDROOT
BRANCH   1   2
ATOM      2  C   UNL     1       1.271  -3.969  -4.788  0.00  0.00    +0.065 A 
ATOM      3  C   UNL     1       0.121  -4.638  -5.180  0.00  0.00    +0.129 A 
ATOM      4  C   UNL     1      -0.668  -4.122  -6.197  0.00  0.00    +0.091 A 
ATOM      5  C   UNL     1      -0.308  -2.938  -6.822  0.00  0.00    +0.124 A 
ATOM      6  C   UNL     1       0.842  -2.269  -6.429  0.00  0.00    +0.091 A 
ATOM      7  C   UNL     1       1.629  -2.782  -5.409  0.00  0.00    +0.129 A 
BRANCH   7   8
ATOM      8  O   UNL     1       2.752  -2.124  -5.021  0.00  0.00    -0.506 OA
ATOM      9  H   UNL     1       3.548  -2.386  -5.504  0.00  0.00    +0.292 HD
ENDBRANCH   7   8
BRANCH   5  10
ATOM     10  O   UNL     1      -1.081  -2.433  -7.819  0.00  0.00    -0.507 OA
ATOM     11  H   UNL     1      -1.773  -1.831  -7.514  0.00  0.00    +0.292 HD
ENDBRANCH   5  10
BRANCH   3  12
ATOM     12  O   UNL     1      -0.232  -5.798  -4.568  0.00  0.00    -0.506 OA
ATOM     13  H   UNL     1      -0.802  -5.678  -3.796  0.00  0.00    +0.292 HD
ENDBRANCH   3  12
ENDBRANCH   1   2
BRANCH   1  15
ATOM     14  N   UNL     1       0.964  -3.478  -1.770  0.00  0.00    -0.313 N 
ATOM     15  C   UNL     1       1.322  -4.607  -2.412  0.00  0.00    +0.239 C 
ATOM     16  O   UNL     1       0.996  -5.687  -1.966  0.00  0.00    -0.273 OA
ATOM     17  H   UNL     1       1.226  -2.614  -2.127  0.00  0.00    +0.149 HD
BRANCH  14  18
ATOM     18  C   UNL     1       0.181  -3.554  -0.535  0.00  0.00    +0.104 C 
BRANCH  18  19
ATOM     19  C   UNL     1      -0.089  -2.140  -0.014  0.00  0.00    +0.018 C 
BRANCH  19  21
ATOM     20  C   UNL     1      -1.177  -0.806   1.796  0.00  0.00    +0.004 C 
ATOM     21  C   UNL     1      -0.908  -2.220   1.276  0.00  0.00    -0.002 C 
ENDBRANCH  19  21
ENDBRANCH  18  19
ENDBRANCH  14  18
ENDBRANCH   1  15
BRANCH   1  22
ATOM     22  N   UNL     1       2.588  -5.870  -4.053  0.00  0.00    -0.250 N 
ATOM     23  C   UNL     1       3.442  -6.536  -3.250  0.00  0.00    +0.252 C 
ATOM     24  O   UNL     1       3.763  -6.061  -2.178  0.00  0.00    -0.270 OA
BRANCH  22  25
ATOM     25  C   UNL     1       2.139  -6.460  -5.240  0.00  0.00    +0.056 A 
ATOM     26  C   UNL     1       2.541  -5.949  -6.466  0.00  0.00    +0.025 A 
ATOM     27  C   UNL     1       2.097  -6.533  -7.636  0.00  0.00    +0.002 A 
ATOM     28  C   UNL     1       1.252  -7.627  -7.587  0.00  0.00    +0.002 A 
ATOM     29  C   UNL     1       0.850  -8.140  -6.368  0.00  0.00    +0.022 A 
ATOM     30  C   UNL     1       1.296  -7.564  -5.193  0.00  0.00    +0.062 A 
ATOM     31 CL   UNL     1       0.796  -8.213  -3.663  0.00  0.00    -0.082 Cl
ENDBRANCH  22  25
BRANCH  23  32
ATOM     32  C   UNL     1       3.989  -7.842  -3.674  0.00  0.00    +0.037 A 
ATOM     33  C   UNL     1       4.230  -8.096  -5.025  0.00  0.00    +0.013 A 
ATOM     34  C   UNL     1       4.741  -9.317  -5.414  0.00  0.00    +0.001 A 
ATOM     35  C   UNL     1       5.013 -10.289  -4.468  0.00  0.00    +0.000 A 
ATOM     36  C   UNL     1       4.776 -10.044  -3.127  0.00  0.00    +0.001 A 
ATOM     37  C   UNL     1       4.271  -8.825  -2.724  0.00  0.00    +0.013 A 
ENDBRANCH  23  32
ENDBRANCH   1  22
TORSDOF 11
