REMARK  Name = ZINC39970764
REMARK  8 active torsions:
REMARK  status: ('A' for Active; 'I' for Inactive)
REMARK    1  A    between atoms: C_1  and  C_2
REMARK    2  A    between atoms: C_7  and  C_34
REMARK    3  A    between atoms: N_9  and  S_10
REMARK    4  A    between atoms: S_10  and  C_13
REMARK    5  A    between atoms: C_16  and  N_19
REMARK    6  A    between atoms: N_19  and  C_20
REMARK    7  A    between atoms: C_20  and  N_22
REMARK    8  A    between atoms: N_25  and  C_28
REMARK                            x       y       z     vdW  Elec       q    Type
REMARK                         _______ _______ _______ _____ _____    ______ ____
ROOT
ATOM      1  C   UNL     1       1.405  -3.341   1.464  0.00  0.00    +0.106 A 
ATOM      2  C   UNL     1       2.775  -3.485   1.350  0.00  0.00    +0.030 A 
ATOM      3  C   UNL     1       3.309  -4.662   0.860  0.00  0.00    +0.025 A 
ATOM      4  C   UNL     1       2.467  -5.700   0.483  0.00  0.00    +0.033 A 
ATOM      5  C   UNL     1       1.091  -5.552   0.600  0.00  0.00    +0.025 A 
ATOM      6  C   UNL     1       0.564  -4.375   1.095  0.00  0.00    +0.030 A 
ENDROOT
BRANCH   1   7
ATOM      7  S   UNL     1       0.728  -1.839   2.089  0.00  0.00    +0.061 S 
ATOM      8  O   UNL     1      -0.536  -1.671   1.462  0.00  0.00    -0.153 OA
ATOM      9  O   UNL     1       1.757  -0.863   2.002  0.00  0.00    -0.153 OA
BRANCH   7  16
ATOM     10  C   UNL     1      -0.937  -3.812   4.751  0.00  0.00    +0.026 C 
ATOM     11  C   UNL     1      -0.923  -2.396   4.173  0.00  0.00    +0.077 C 
ATOM     12  C   UNL     1      -1.325  -1.394   5.260  0.00  0.00    +0.020 C 
ATOM     13  C   UNL     1      -0.262  -1.389   6.362  0.00  0.00    +0.003 C 
ATOM     14  C   UNL     1       1.082  -0.953   5.774  0.00  0.00    +0.020 C 
ATOM     15  C   UNL     1       1.511  -1.949   4.693  0.00  0.00    +0.077 C 
ATOM     16  N   UNL     1       0.429  -2.070   3.701  0.00  0.00    -0.171 NA
ATOM     17  C   UNL     1       2.784  -1.448   4.008  0.00  0.00    +0.026 C 
ENDBRANCH   7  16
ENDBRANCH   1   7
BRANCH   4  18
ATOM     18  N   UNL     1       3.004  -6.893  -0.013  0.00  0.00    -0.297 N 
ATOM     19  H   UNL     1       2.556  -7.364  -0.733  0.00  0.00    +0.154 HD
BRANCH  18  20
ATOM     20  C   UNL     1       4.144  -7.387   0.509  0.00  0.00    +0.137 C 
ATOM     21  S   UNL     1       4.863  -6.631   1.867  0.00  0.00    -0.018 S 
BRANCH  20  22
ATOM     22  N   UNL     1       4.720  -8.476  -0.038  0.00  0.00    -0.316 N 
ATOM     23  C   UNL     1       4.181  -9.078  -1.268  0.00  0.00    +0.088 C 
ATOM     24  C   UNL     1       5.332  -9.262  -2.263  0.00  0.00    -0.059 C 
ATOM     25  N   UNL     1       6.407 -10.037  -1.629  0.00  0.00    +0.384 N 
ATOM     26  C   UNL     1       6.973  -9.279  -0.505  0.00  0.00    -0.059 C 
ATOM     27  C   UNL     1       5.907  -9.093   0.574  0.00  0.00    +0.088 C 
ATOM     28  H   UNL     1       6.035 -10.911  -1.290  0.00  0.00    -0.081 HD
BRANCH  25  29
ATOM     29  C   UNL     1       7.461 -10.307  -2.615  0.00  0.00    -0.068 C 
ATOM     30  C   UNL     1       6.875 -11.106  -3.781  0.00  0.00    -0.015 C 
ATOM     31  C   UNL     1       7.973 -11.387  -4.809  0.00  0.00    -0.002 C 
ATOM     32  C   UNL     1       9.094 -12.194  -4.150  0.00  0.00    -0.000 C 
ATOM     33  C   UNL     1       9.680 -11.395  -2.984  0.00  0.00    -0.002 C 
ATOM     34  C   UNL     1       8.582 -11.114  -1.956  0.00  0.00    -0.015 C 
ENDBRANCH  25  29
ENDBRANCH  20  22
ENDBRANCH  18  20
ENDBRANCH   4  18
TORSDOF 6
