REMARK  Name = ZINC59218745
REMARK  7 active torsions:
REMARK  status: ('A' for Active; 'I' for Inactive)
REMARK    1  A    between atoms: C_1  and  N_2
REMARK    2  A    between atoms: N_5  and  C_8
REMARK    3  A    between atoms: C_13  and  N_14
REMARK    4  A    between atoms: C_15  and  C_17
REMARK    5  A    between atoms: C_17  and  S_18
REMARK    6  A    between atoms: S_18  and  C_19
REMARK    7  A    between atoms: C_21  and  C_24
REMARK                            x       y       z     vdW  Elec       q    Type
REMARK                         _______ _______ _______ _____ _____    ______ ____
ROOT
ATOM      1  N   UNL     1       0.380  -5.247  -0.032  0.00  0.00    -0.283 N 
ATOM      2  C   UNL     1      -0.005  -6.443   0.456  0.00  0.00    +0.227 C 
ATOM      3  O   UNL     1       0.811  -7.183   0.964  0.00  0.00    -0.275 OA
ATOM      4  H   UNL     1      -0.284  -4.623  -0.364  0.00  0.00    +0.155 HD
ENDROOT
BRANCH   1  10
ATOM      5  C   UNL     1       2.123  -3.565  -0.059  0.00  0.00    +0.051 A 
ATOM      6  C   UNL     1       3.470  -3.234  -0.080  0.00  0.00    +0.025 A 
ATOM      7  C   UNL     1       4.426  -4.232  -0.104  0.00  0.00    +0.002 A 
ATOM      8  C   UNL     1       4.045  -5.561  -0.108  0.00  0.00    +0.002 A 
ATOM      9  C   UNL     1       2.705  -5.900  -0.088  0.00  0.00    +0.025 A 
ATOM     10  C   UNL     1       1.738  -4.906  -0.058  0.00  0.00    +0.055 A 
BRANCH   5  15
ATOM     11  C   UNL     1       0.005   1.466   0.009  0.00  0.00    -0.096 C 
ATOM     12  N   UNL     1       0.020  -0.003   0.001  0.00  0.00    +0.380 N 
ATOM     13  C   UNL     1       0.687  -0.478  -1.217  0.00  0.00    -0.060 C 
ATOM     14  C   UNL     1       0.602  -2.006  -1.282  0.00  0.00    +0.086 C 
ATOM     15  N   UNL     1       1.153  -2.557  -0.034  0.00  0.00    -0.332 N 
ATOM     16  C   UNL     1       0.655  -2.018   1.241  0.00  0.00    +0.086 C 
ATOM     17  C   UNL     1       0.737  -0.489   1.187  0.00  0.00    -0.060 C 
ATOM     18  H   UNL     1      -0.928  -0.348   0.019  0.00  0.00    -0.082 HD
ENDBRANCH   5  15
ENDBRANCH   1  10
BRANCH   2  19
ATOM     19  C   UNL     1      -1.450  -6.862   0.371  0.00  0.00    +0.172 C 
BRANCH  19  20
ATOM     20  S   UNL     1      -1.647  -8.508   1.107  0.00  0.00    -0.089 S 
BRANCH  20  21
ATOM     21  C   UNL     1      -3.367  -8.851   0.932  0.00  0.00    +0.136 A 
ATOM     22  N   UNL     1      -4.049  -9.918   1.307  0.00  0.00    -0.233 NA
ATOM     23  C   UNL     1      -5.359 -10.008   1.093  0.00  0.00    +0.079 A 
ATOM     24  C   UNL     1      -6.008  -8.977   0.474  0.00  0.00    +0.076 A 
ATOM     25  S   UNL     1      -4.652  -7.842   0.207  0.00  0.00    -0.069 S 
BRANCH  23  26
ATOM     26  C   UNL     1      -6.108 -11.214   1.520  0.00  0.00    +0.001 A 
ATOM     27  C   UNL     1      -7.479 -11.306   1.288  0.00  0.00    +0.011 A 
ATOM     28  C   UNL     1      -8.171 -12.431   1.687  0.00  0.00    +0.016 A 
ATOM     29  C   UNL     1      -7.505 -13.467   2.319  0.00  0.00    +0.018 A 
ATOM     30  C   UNL     1      -6.144 -13.382   2.552  0.00  0.00    +0.016 A 
ATOM     31  C   UNL     1      -5.442 -12.264   2.152  0.00  0.00    +0.011 A 
ATOM     32 BR   UNL     1      -8.460 -15.006   2.865  0.00  0.00    -0.050 Br
ENDBRANCH  23  26
ENDBRANCH  20  21
ENDBRANCH  19  20
ENDBRANCH   2  19
TORSDOF 6
