REMARK  Name = ZINC39657705
REMARK  11 active torsions:
REMARK  status: ('A' for Active; 'I' for Inactive)
REMARK    1  A    between atoms: C_1  and  C_2
REMARK    2  A    between atoms: C_2  and  C_3
REMARK    3  A    between atoms: C_3  and  C_5
REMARK    4  A    between atoms: C_3  and  C_6
REMARK    5  A    between atoms: C_10  and  C_19
REMARK    6  A    between atoms: N_21  and  C_22
REMARK    7  A    between atoms: C_22  and  C_23
REMARK    8  A    between atoms: C_28  and  S_29
REMARK    9  A    between atoms: S_29  and  C_30
REMARK   10  A    between atoms: C_35  and  C_36
REMARK   11  A    between atoms: C_36  and  O_37
REMARK                            x       y       z     vdW  Elec       q    Type
REMARK                         _______ _______ _______ _____ _____    ______ ____
ROOT
ATOM      1  C   UNL     1       4.907  -2.142  -1.743  0.00  0.00    +0.218 C 
ATOM      2  O   UNL     1       4.663  -1.664  -0.656  0.00  0.00    -0.275 OA
ATOM      3  N   UNL     1       6.180  -2.421  -2.086  0.00  0.00    -0.311 N 
ATOM      4  H   UNL     1       6.384  -2.735  -2.981  0.00  0.00    +0.149 HD
ENDROOT
BRANCH   1   9
ATOM      5  C   UNL     1       0.992  -1.416  -0.641  0.00  0.00    +0.218 C 
ATOM      6  O   UNL     1       1.067  -0.217  -0.475  0.00  0.00    -0.275 OA
ATOM      7  N   UNL     1       1.689  -2.004  -1.634  0.00  0.00    -0.300 N 
ATOM      8  C   UNL     1       2.664  -1.374  -2.555  0.00  0.00    +0.121 C 
ATOM      9  C   UNL     1       3.787  -2.424  -2.711  0.00  0.00    +0.100 C 
ATOM     10  C   UNL     1       3.117  -3.768  -2.381  0.00  0.00    -0.004 C 
ATOM     11  C   UNL     1       1.657  -3.427  -2.047  0.00  0.00    +0.115 C 
ATOM     12  C   UNL     1       3.180  -4.700  -3.587  0.00  0.00    -0.010 C 
ATOM     13  C   UNL     1       2.559  -6.050  -3.216  0.00  0.00    -0.082 C 
ATOM     14  N   UNL     1       3.290  -6.632  -2.084  0.00  0.00    +0.379 N 
ATOM     15  C   UNL     1       3.146  -5.774  -0.902  0.00  0.00    -0.082 C 
ATOM     16  C   UNL     1       3.792  -4.413  -1.175  0.00  0.00    -0.010 C 
ATOM     17  H   UNL     1       2.918  -7.548  -1.881  0.00  0.00    -0.086 HD
ATOM     18  H   UNL     1       4.267  -6.714  -2.322  0.00  0.00    -0.086 HD
BRANCH   5  19
ATOM     19  C   UNL     1       0.121  -2.249   0.263  0.00  0.00    +0.072 C 
ATOM     20  C   UNL     1      -1.103  -2.736  -0.515  0.00  0.00    +0.017 C 
BRANCH  19  22
ATOM     21  C   UNL     1      -1.105  -2.283   2.440  0.00  0.00    +0.004 C 
ATOM     22  C   UNL     1      -0.335  -1.403   1.453  0.00  0.00    +0.009 C 
ENDBRANCH  19  22
ENDBRANCH   5  19
ENDBRANCH   1   9
BRANCH   3  23
ATOM     23  C   UNL     1       7.257  -2.250  -1.107  0.00  0.00    +0.140 C 
BRANCH  23  24
ATOM     24  C   UNL     1       8.585  -2.510  -1.770  0.00  0.00    -0.017 A 
ATOM     25  C   UNL     1       9.242  -3.706  -1.557  0.00  0.00    +0.006 A 
ATOM     26  C   UNL     1      10.461  -3.945  -2.165  0.00  0.00    +0.000 A 
ATOM     27  C   UNL     1      11.026  -2.987  -2.988  0.00  0.00    +0.001 A 
ATOM     28  C   UNL     1      10.375  -1.790  -3.206  0.00  0.00    +0.015 A 
ATOM     29  C   UNL     1       9.147  -1.548  -2.601  0.00  0.00    +0.017 A 
BRANCH  29  30
ATOM     30  S   UNL     1       8.309  -0.024  -2.881  0.00  0.00    -0.089 S 
BRANCH  30  31
ATOM     31  C   UNL     1       8.554   0.878  -1.388  0.00  0.00    +0.018 A 
ATOM     32  C   UNL     1       9.383   0.370  -0.395  0.00  0.00    +0.015 A 
ATOM     33  C   UNL     1       9.573   1.079   0.774  0.00  0.00    +0.001 A 
ATOM     34  C   UNL     1       8.940   2.295   0.957  0.00  0.00    +0.000 A 
ATOM     35  C   UNL     1       8.114   2.804  -0.028  0.00  0.00    +0.007 A 
ATOM     36  C   UNL     1       7.924   2.103  -1.202  0.00  0.00    -0.008 A 
BRANCH  36  37
ATOM     37  C   UNL     1       7.030   2.661  -2.279  0.00  0.00    +0.192 C 
BRANCH  37  38
ATOM     38  O   UNL     1       6.409   3.859  -1.808  0.00  0.00    -0.390 OA
ATOM     39  H   UNL     1       5.761   4.233  -2.420  0.00  0.00    +0.210 HD
ENDBRANCH  37  38
ENDBRANCH  36  37
ENDBRANCH  30  31
ENDBRANCH  29  30
ENDBRANCH  23  24
ENDBRANCH   3  23
TORSDOF 9
