REMARK  Name = ZINC19882728
REMARK  11 active torsions:
REMARK  status: ('A' for Active; 'I' for Inactive)
REMARK    1  A    between atoms: C_1  and  C_2
REMARK    2  A    between atoms: C_6  and  N_8
REMARK    3  A    between atoms: C_9  and  C_11
REMARK    4  A    between atoms: C_11  and  C_12
REMARK    5  A    between atoms: C_12  and  C_13
REMARK    6  A    between atoms: N_16  and  C_37
REMARK    7  A    between atoms: C_19  and  N_21
REMARK    8  A    between atoms: N_24  and  C_27
REMARK    9  A    between atoms: C_31  and  C_33
REMARK   10  A    between atoms: C_37  and  C_38
REMARK   11  A    between atoms: C_37  and  C_39
REMARK                            x       y       z     vdW  Elec       q    Type
REMARK                         _______ _______ _______ _____ _____    ______ ____
ROOT
ATOM      1  C   UNL     1      -0.056   1.054   0.048  0.00  0.00    -0.010 C 
ATOM      2  C   UNL     1      -0.713   1.641  -1.203  0.00  0.00    +0.086 C 
ATOM      3  N   UNL     1      -0.618   3.106  -1.165  0.00  0.00    -0.300 NA
ATOM      4  C   UNL     1       0.782   3.547  -1.163  0.00  0.00    +0.083 C 
ATOM      5  C   UNL     1       1.484   3.017   0.088  0.00  0.00    +0.000 C 
ATOM      6  C   UNL     1       1.412   1.488   0.099  0.00  0.00    -0.063 C 
ENDROOT
BRANCH   6   7
ATOM      7  N   UNL     1       2.033   0.975   1.328  0.00  0.00    +0.384 N 
ATOM      8  C   UNL     1       3.380   1.535   1.510  0.00  0.00    -0.059 C 
ATOM      9  C   UNL     1       3.959   1.040   2.837  0.00  0.00    +0.086 C 
ATOM     10  N   UNL     1       3.999  -0.429   2.834  0.00  0.00    -0.333 N 
ATOM     11  C   UNL     1       2.652  -0.989   2.652  0.00  0.00    +0.086 C 
ATOM     12  C   UNL     1       2.073  -0.494   1.325  0.00  0.00    -0.059 C 
ATOM     13  H   UNL     1       1.413   1.297   2.178  0.00  0.00    -0.081 HD
BRANCH  10  14
ATOM     14  C   UNL     1       4.589  -0.916   4.003  0.00  0.00    +0.030 A 
ATOM     15  C   UNL     1       3.897  -1.806   4.814  0.00  0.00    +0.023 A 
ATOM     16  C   UNL     1       4.485  -2.289   5.966  0.00  0.00    +0.002 A 
ATOM     17  C   UNL     1       5.759  -1.880   6.318  0.00  0.00    +0.012 A 
ATOM     18  C   UNL     1       6.449  -0.991   5.515  0.00  0.00    +0.057 A 
ATOM     19  C   UNL     1       5.868  -0.507   4.359  0.00  0.00    +0.035 A 
BRANCH  18  20
ATOM     20  C   UNL     1       7.837  -0.548   5.902  0.00  0.00    +0.417 C 
ATOM     21  F   UNL     1       7.754   0.598   6.701  0.00  0.00    -0.166 F 
ATOM     22  F   UNL     1       8.470  -1.570   6.617  0.00  0.00    -0.166 F 
ATOM     23  F   UNL     1       8.573  -0.260   4.748  0.00  0.00    -0.166 F 
ENDBRANCH  18  20
ENDBRANCH  10  14
ENDBRANCH   6   7
BRANCH   3  24
ATOM     24  C   UNL     1      -1.360   3.710  -2.280  0.00  0.00    +0.050 C 
ATOM     25  C   UNL     1      -1.348   5.233  -2.134  0.00  0.00    +0.024 C 
ATOM     26  C   UNL     1      -0.698   3.320  -3.603  0.00  0.00    +0.024 C 
ENDBRANCH   3  24
BRANCH   1  27
ATOM     27  C   UNL     1      -0.782   1.562   1.295  0.00  0.00    +0.012 C 
BRANCH  27  28
ATOM     28  C   UNL     1      -2.207   1.004   1.318  0.00  0.00    +0.096 C 
BRANCH  28  30
ATOM     29  N   UNL     1      -4.199   1.140   2.777  0.00  0.00    -0.285 N 
ATOM     30  C   UNL     1      -2.922   1.505   2.546  0.00  0.00    +0.217 C 
ATOM     31  O   UNL     1      -2.350   2.236   3.326  0.00  0.00    -0.275 OA
ATOM     32  H   UNL     1      -4.694   0.418   2.112  0.00  0.00    +0.155 HD
BRANCH  29  38
ATOM     33  C   UNL     1      -8.414   2.763   4.720  0.00  0.00    +0.044 C 
ATOM     34  C   UNL     1      -6.939   2.478   4.833  0.00  0.00    -0.049 A 
ATOM     35  C   UNL     1      -6.271   2.751   6.013  0.00  0.00    +0.003 A 
ATOM     36  C   UNL     1      -4.918   2.490   6.122  0.00  0.00    +0.002 A 
ATOM     37  C   UNL     1      -4.229   1.951   5.052  0.00  0.00    +0.023 A 
ATOM     38  C   UNL     1      -4.895   1.681   3.864  0.00  0.00    +0.034 A 
ATOM     39  C   UNL     1      -6.255   1.944   3.759  0.00  0.00    +0.026 A 
ENDBRANCH  29  38
ENDBRANCH  28  30
ENDBRANCH  27  28
ENDBRANCH   1  27
TORSDOF 8
