REMARK  Name = ZINC08826482
REMARK  5 active torsions:
REMARK  status: ('A' for Active; 'I' for Inactive)
REMARK    1  A    between atoms: C_1  and  C_2
REMARK    2  A    between atoms: C_5  and  N_8
REMARK    3  A    between atoms: C_11  and  C_16
REMARK    4  A    between atoms: C_16  and  N_57
REMARK    5  A    between atoms: C_20  and  C_22
REMARK                            x       y       z     vdW  Elec       q    Type
REMARK                         _______ _______ _______ _____ _____    ______ ____
ROOT
ATOM      1  N   UNL     1       4.080   3.886   0.294  0.00  0.00    -0.284 N 
ATOM      2  C   UNL     1       2.980   4.023   1.119  0.00  0.00    +0.224 A 
ATOM      3  N   UNL     1       2.248   2.957   1.436  0.00  0.00    -0.201 NA
ATOM      4  C   UNL     1       1.193   3.087   2.221  0.00  0.00    +0.120 A 
ATOM      5  N   UNL     1       0.867   4.274   2.703  0.00  0.00    -0.202 NA
ATOM      6  C   UNL     1       1.597   5.343   2.395  0.00  0.00    +0.217 A 
ATOM      7  N   UNL     1       2.655   5.217   1.601  0.00  0.00    -0.181 NA
ATOM      8  N   UNL     1       1.255   6.582   2.898  0.00  0.00    -0.327 N 
ATOM      9  H   UNL     1       4.364   3.004   0.007  0.00  0.00    +0.155 HD
ATOM     10  H   UNL     1       0.482   6.673   3.477  0.00  0.00    +0.145 HD
ATOM     11  H   UNL     1       1.787   7.361   2.674  0.00  0.00    +0.145 HD
ENDROOT
BRANCH   1  16
ATOM     12  C   UNL     1       6.933   8.481  -1.414  0.00  0.00    +0.044 C 
ATOM     13  C   UNL     1       6.175   7.260  -0.960  0.00  0.00    -0.050 A 
ATOM     14  C   UNL     1       6.848   6.071  -0.744  0.00  0.00    +0.005 A 
ATOM     15  C   UNL     1       6.156   4.951  -0.328  0.00  0.00    +0.023 A 
ATOM     16  C   UNL     1       4.783   5.019  -0.127  0.00  0.00    +0.034 A 
ATOM     17  C   UNL     1       4.110   6.213  -0.350  0.00  0.00    +0.023 A 
ATOM     18  C   UNL     1       4.809   7.332  -0.760  0.00  0.00    +0.005 A 
ENDBRANCH   1  16
BRANCH   4  19
ATOM     19  C   UNL     1       0.364   1.879   2.572  0.00  0.00    -0.000 C 
BRANCH  19  24
ATOM     20  C   UNL     1      -0.159   1.297   0.272  0.00  0.00    -0.077 C 
ATOM     21  C   UNL     1      -1.030   1.949  -0.818  0.00  0.00    -0.020 C 
ATOM     22  C   UNL     1      -2.082   2.781  -0.049  0.00  0.00    -0.013 C 
ATOM     23  C   UNL     1      -1.409   3.003   1.329  0.00  0.00    -0.037 C 
ATOM     24  N   UNL     1      -0.724   1.724   1.556  0.00  0.00    +0.389 N 
ATOM     25  H   UNL     1      -1.398   1.025   1.889  0.00  0.00    -0.080 HD
BRANCH  23  26
ATOM     26  C   UNL     1      -2.445   3.262   2.392  0.00  0.00    -0.057 A 
ATOM     27  C   UNL     1      -3.160   2.208   2.929  0.00  0.00    +0.006 A 
ATOM     28  C   UNL     1      -4.109   2.441   3.907  0.00  0.00    +0.049 A 
ATOM     29  C   UNL     1      -4.353   3.734   4.344  0.00  0.00    +0.162 A 
ATOM     30  C   UNL     1      -3.636   4.794   3.802  0.00  0.00    +0.162 A 
ATOM     31  C   UNL     1      -2.683   4.553   2.824  0.00  0.00    +0.051 A 
ATOM     32  O   UNL     1      -3.854   6.070   4.223  0.00  0.00    -0.485 OA
ATOM     33  C   UNL     1      -5.074   6.314   4.932  0.00  0.00    +0.270 C 
ATOM     34  C   UNL     1      -5.250   5.207   5.981  0.00  0.00    +0.270 C 
ATOM     35  O   UNL     1      -5.298   3.949   5.300  0.00  0.00    -0.485 OA
ENDBRANCH  23  26
ENDBRANCH  19  24
ENDBRANCH   4  19
TORSDOF 4
