REMARK  Name = ZINC49171492
REMARK  7 active torsions:
REMARK  status: ('A' for Active; 'I' for Inactive)
REMARK    1  A    between atoms: C_1  and  C_2
REMARK    2  A    between atoms: C_2  and  C_3
REMARK    3  A    between atoms: C_2  and  C_4
REMARK    4  A    between atoms: C_4  and  C_5
REMARK    5  A    between atoms: N_15  and  C_16
REMARK    6  A    between atoms: C_18  and  C_21
REMARK    7  A    between atoms: N_23  and  C_24
REMARK                            x       y       z     vdW  Elec       q    Type
REMARK                         _______ _______ _______ _____ _____    ______ ____
ROOT
ATOM      1  C   UNL     1      -2.050  -0.348  -1.381  0.00  0.00    +0.085 C 
ATOM      2  C   UNL     1      -3.435  -0.963  -1.415  0.00  0.00    -0.021 A 
ATOM      3  C   UNL     1      -3.814  -1.937  -0.533  0.00  0.00    +0.006 A 
ATOM      4  C   UNL     1      -5.127  -2.397  -0.546  0.00  0.00    +0.002 A 
ATOM      5  C   UNL     1      -6.076  -1.896  -1.415  0.00  0.00    +0.026 A 
ATOM      6  C   UNL     1      -5.705  -0.926  -2.341  0.00  0.00    +0.049 A 
ATOM      7  C   UNL     1      -4.366  -0.529  -2.337  0.00  0.00    +0.008 A 
ATOM      8  C   UNL     1      -4.164   0.282  -3.550  0.00  0.00    -0.020 A 
ATOM      9  C   UNL     1      -5.363   0.469  -4.081  0.00  0.00    +0.090 A 
ATOM     10  N   UNL     1      -6.314  -0.196  -3.335  0.00  0.00    -0.349 N 
ATOM     11  C   UNL     1      -7.759  -0.133  -3.567  0.00  0.00    +0.149 C 
ATOM     12  C   UNL     1      -2.772   0.673  -3.978  0.00  0.00    +0.065 C 
ATOM     13  C   UNL     1      -2.167   1.602  -2.943  0.00  0.00    +0.145 C 
ATOM     14  N   UNL     1      -2.192   1.107  -1.559  0.00  0.00    -0.299 NA
ATOM     15  H   UNL     1      -3.000   1.455  -1.066  0.00  0.00    +0.123 HD
ENDROOT
BRANCH  13  16
ATOM     16  C   UNL     1      -2.914   2.910  -2.987  0.00  0.00    +0.231 C 
ATOM     17  O   UNL     1      -3.774   3.146  -2.165  0.00  0.00    -0.274 OA
ATOM     18  N   UNL     1      -2.627   3.818  -3.942  0.00  0.00    -0.311 N 
ATOM     19  H   UNL     1      -1.940   3.629  -4.599  0.00  0.00    +0.149 HD
BRANCH  18  20
ATOM     20  C   UNL     1      -3.353   5.089  -3.985  0.00  0.00    +0.073 C 
ATOM     21  C   UNL     1      -4.355   5.187  -5.147  0.00  0.00    +0.022 C 
ATOM     22  C   UNL     1      -3.900   6.647  -5.313  0.00  0.00    +0.004 C 
ATOM     23  C   UNL     1      -2.570   6.223  -4.668  0.00  0.00    +0.022 C 
ENDBRANCH  18  20
ENDBRANCH  13  16
BRANCH   1  24
ATOM     24  C   UNL     1      -1.388  -0.642  -0.033  0.00  0.00    +0.026 C 
BRANCH  24  26
ATOM     25  C   UNL     1       0.633  -0.221   1.374  0.00  0.00    +0.007 C 
ATOM     26  C   UNL     1       0.024  -0.053  -0.019  0.00  0.00    -0.015 C 
ATOM     27  C   UNL     1       0.891  -0.784  -1.046  0.00  0.00    +0.007 C 
ENDBRANCH  24  26
ENDBRANCH   1  24
TORSDOF 4
