REMARK  Name = ZINC59487860
REMARK  9 active torsions:
REMARK  status: ('A' for Active; 'I' for Inactive)
REMARK    1  A    between atoms: C_1  and  C_2
REMARK    2  A    between atoms: C_2  and  N_3
REMARK    3  A    between atoms: N_3  and  C_4
REMARK    4  A    between atoms: N_3  and  C_6
REMARK    5  A    between atoms: C_4  and  C_5
REMARK    6  A    between atoms: C_9  and  C_13
REMARK    7  A    between atoms: C_10  and  O_12
REMARK    8  A    between atoms: C_15  and  C_32
REMARK    9  A    between atoms: C_22  and  C_25
REMARK                            x       y       z     vdW  Elec       q    Type
REMARK                         _______ _______ _______ _____ _____    ______ ____
ROOT
ATOM      1  C   UNL     1      -2.228  -1.140  -5.949  0.00  0.00    +0.026 C 
ATOM      2  C   UNL     1      -3.613  -1.163  -5.884  0.00  0.00    +0.062 C 
ATOM      3  C   UNL     1      -4.461  -0.828  -4.732  0.00  0.00    +0.069 C 
ATOM      4  N   UNL     1      -5.697  -0.981  -5.097  0.00  0.00    -0.175 NA
ATOM      5  N   UNL     1      -5.787  -1.401  -6.424  0.00  0.00    -0.132 N 
ATOM      6  C   UNL     1      -4.554  -1.524  -6.955  0.00  0.00    +0.274 C 
ATOM      7  O   UNL     1      -4.276  -1.866  -8.092  0.00  0.00    -0.268 OA
ATOM      8  C   UNL     1      -6.976  -1.651  -7.102  0.00  0.00    +0.188 A 
ATOM      9  N   UNL     1      -8.220  -1.549  -6.672  0.00  0.00    -0.223 NA
ATOM     10  C   UNL     1      -9.246  -1.831  -7.461  0.00  0.00    +0.080 A 
ATOM     11  C   UNL     1      -9.012  -2.235  -8.746  0.00  0.00    +0.077 A 
ATOM     12  S   UNL     1      -7.225  -2.189  -8.788  0.00  0.00    -0.058 S 
ATOM     13  C   UNL     1      -3.982  -0.386  -3.373  0.00  0.00    +0.068 C 
ENDROOT
BRANCH  10  14
ATOM     14  C   UNL     1     -10.635  -1.709  -6.955  0.00  0.00    +0.001 A 
ATOM     15  C   UNL     1     -11.711  -2.012  -7.787  0.00  0.00    +0.011 A 
ATOM     16  C   UNL     1     -13.001  -1.898  -7.312  0.00  0.00    +0.016 A 
ATOM     17  C   UNL     1     -13.228  -1.483  -6.011  0.00  0.00    +0.018 A 
ATOM     18  C   UNL     1     -12.162  -1.180  -5.181  0.00  0.00    +0.016 A 
ATOM     19  C   UNL     1     -10.868  -1.296  -5.645  0.00  0.00    +0.011 A 
ATOM     20 BR   UNL     1     -14.999  -1.328  -5.366  0.00  0.00    -0.050 Br
ENDBRANCH  10  14
BRANCH   1  24
ATOM     21  C   UNL     1      -0.016   0.519  -2.804  0.00  0.00    +0.033 A 
ATOM     22  C   UNL     1      -1.116   1.202  -3.326  0.00  0.00    +0.024 A 
ATOM     23  C   UNL     1      -1.839   0.666  -4.349  0.00  0.00    +0.013 A 
ATOM     24  C   UNL     1      -1.479  -0.582  -4.888  0.00  0.00    +0.017 A 
ATOM     25  C   UNL     1      -0.368  -1.274  -4.362  0.00  0.00    +0.126 A 
ATOM     26  C   UNL     1       0.358  -0.714  -3.328  0.00  0.00    +0.069 A 
BRANCH  25  27
ATOM     27  O   UNL     1      -0.011  -2.478  -4.873  0.00  0.00    -0.506 OA
ATOM     28  H   UNL     1       0.619  -2.424  -5.604  0.00  0.00    +0.292 HD
ENDBRANCH  25  27
BRANCH  21  29
ATOM     29  N   UNL     1       0.712   1.076  -1.762  0.00  0.00    -0.330 N 
BRANCH  29  31
ATOM     30  C   UNL     1       1.041   3.490  -1.966  0.00  0.00    +0.024 C 
ATOM     31  C   UNL     1       0.321   2.374  -1.207  0.00  0.00    +0.102 C 
ENDBRANCH  29  31
BRANCH  29  32
ATOM     32  C   UNL     1       1.871   0.365  -1.216  0.00  0.00    +0.102 C 
ATOM     33  C   UNL     1       1.418  -0.547  -0.073  0.00  0.00    +0.024 C 
ENDBRANCH  29  32
ENDBRANCH  21  29
ENDBRANCH   1  24
TORSDOF 6
