REMARK  Name = ZINC67418407
REMARK  10 active torsions:
REMARK  status: ('A' for Active; 'I' for Inactive)
REMARK    1  A    between atoms: C_1  and  C_2
REMARK    2  A    between atoms: C_2  and  C_4
REMARK    3  A    between atoms: C_2  and  N_17
REMARK    4  A    between atoms: C_4  and  C_6
REMARK    5  A    between atoms: C_7  and  N_16
REMARK    6  A    between atoms: N_8  and  C_15
REMARK    7  A    between atoms: N_11  and  C_14
REMARK    8  A    between atoms: C_21  and  C_24
REMARK    9  A    between atoms: C_24  and  N_25
REMARK   10  A    between atoms: C_26  and  C_28
REMARK                            x       y       z     vdW  Elec       q    Type
REMARK                         _______ _______ _______ _____ _____    ______ ____
ROOT
ATOM      1  C   UNL     1       0.018   1.562  -0.014  0.00  0.00    -0.005 C 
ATOM      2  C   UNL     1       0.016   0.033  -0.004  0.00  0.00    +0.001 C 
ENDROOT
BRANCH   2   3
ATOM      3  N   UNL     1       0.721  -0.450   1.191  0.00  0.00    +0.386 N 
ATOM      4  C   UNL     1       0.727  -1.918   1.194  0.00  0.00    -0.078 C 
ATOM      5  C   UNL     1       1.530  -2.426   2.394  0.00  0.00    -0.018 C 
ATOM      6  C   UNL     1       0.888  -1.913   3.686  0.00  0.00    +0.001 C 
ATOM      7  C   UNL     1       0.820  -0.383   3.638  0.00  0.00    -0.011 C 
ATOM      8  C   UNL     1       0.043   0.049   2.393  0.00  0.00    -0.073 C 
ATOM      9  H   UNL     1       1.672  -0.112   1.178  0.00  0.00    -0.081 HD
BRANCH   7  10
ATOM     10  C   UNL     1       0.111   0.136   4.890  0.00  0.00    +0.105 C 
BRANCH  10  11
ATOM     11  N   UNL     1       0.915  -0.179   6.074  0.00  0.00    -0.315 N 
ATOM     12  C   UNL     1       0.484   0.185   7.298  0.00  0.00    +0.210 C 
ATOM     13  O   UNL     1      -0.569   0.773   7.420  0.00  0.00    -0.276 OA
ATOM     14  C   UNL     1       1.311  -0.140   8.515  0.00  0.00    +0.109 C 
ATOM     15  H   UNL     1       1.757  -0.650   5.976  0.00  0.00    +0.149 HD
ENDBRANCH  10  11
ENDBRANCH   7  10
ENDBRANCH   2   3
BRANCH   2  16
ATOM     16  C   UNL     1       0.711  -0.479  -1.239  0.00  0.00    +0.158 C 
ATOM     17  O   UNL     1       1.832  -0.939  -1.158  0.00  0.00    -0.294 OA
BRANCH  16  18
ATOM     18  C   UNL     1       0.059  -0.423  -2.490  0.00  0.00    +0.118 A 
ATOM     19  C   UNL     1       0.730  -0.778  -3.673  0.00  0.00    +0.116 A 
ATOM     20  N   UNL     1       0.057  -0.709  -4.860  0.00  0.00    -0.284 N 
ATOM     21  C   UNL     1      -1.224  -0.310  -4.913  0.00  0.00    +0.333 A 
ATOM     22  O   UNL     1      -1.778  -0.265  -5.994  0.00  0.00    -0.246 OA
ATOM     23  N   UNL     1      -1.915   0.041  -3.817  0.00  0.00    -0.263 N 
ATOM     24  C   UNL     1      -1.343   0.001  -2.596  0.00  0.00    +0.269 A 
ATOM     25  O   UNL     1      -1.974   0.314  -1.603  0.00  0.00    -0.267 OA
ATOM     26  C   UNL     1      -3.311   0.466  -3.947  0.00  0.00    +0.157 C 
ATOM     27  C   UNL     1       0.747  -1.076  -6.099  0.00  0.00    +0.155 C 
BRANCH  19  28
ATOM     28  N   UNL     1       2.028  -1.183  -3.638  0.00  0.00    -0.344 N 
ATOM     29  H   UNL     1       2.475  -1.303  -2.785  0.00  0.00    +0.144 HD
ATOM     30  H   UNL     1       2.506  -1.353  -4.465  0.00  0.00    +0.144 HD
ENDBRANCH  19  28
ENDBRANCH  16  18
ENDBRANCH   2  16
TORSDOF 6
