REMARK  Name = ZINC64015453
REMARK  8 active torsions:
REMARK  status: ('A' for Active; 'I' for Inactive)
REMARK    1  A    between atoms: C_1  and  C_2
REMARK    2  A    between atoms: C_2  and  N_3
REMARK    3  A    between atoms: C_6  and  N_8
REMARK    4  A    between atoms: C_9  and  C_11
REMARK    5  A    between atoms: C_14  and  C_16
REMARK    6  A    between atoms: N_21  and  C_22
REMARK    7  A    between atoms: C_22  and  C_23
REMARK    8  A    between atoms: C_27  and  C_29
REMARK                            x       y       z     vdW  Elec       q    Type
REMARK                         _______ _______ _______ _____ _____    ______ ____
ROOT
ATOM      1  C   UNL     1      -2.088  -6.141   0.223  0.00  0.00    +0.074 A 
ATOM      2  C   UNL     1      -2.706  -6.817   1.265  0.00  0.00    +0.021 A 
ATOM      3  C   UNL     1      -2.780  -8.182   1.129  0.00  0.00    +0.010 A 
ATOM      4  C   UNL     1      -2.261  -8.764   0.020  0.00  0.00    -0.023 A 
ATOM      5  S   UNL     1      -1.663  -7.476  -0.878  0.00  0.00    -0.090 S 
ENDROOT
BRANCH   4   6
ATOM      6  C   UNL     1      -2.233 -10.229  -0.331  0.00  0.00    -0.030 C 
ATOM      7  C   UNL     1      -0.831 -10.809  -0.050  0.00  0.00    -0.012 C 
ATOM      8  C   UNL     1      -0.616 -11.792  -1.231  0.00  0.00    -0.020 C 
ATOM      9  C   UNL     1      -1.319 -11.044  -2.392  0.00  0.00    -0.077 C 
ATOM     10  N   UNL     1      -2.502 -10.406  -1.770  0.00  0.00    +0.388 N 
ATOM     11  H   UNL     1      -2.669  -9.508  -2.197  0.00  0.00    -0.080 HD
BRANCH  10  12
ATOM     12  C   UNL     1      -3.682 -11.263  -1.950  0.00  0.00    -0.020 C 
BRANCH  12  13
ATOM     13  C   UNL     1      -4.027 -11.342  -3.415  0.00  0.00    +0.045 A 
ATOM     14  N   UNL     1      -3.562 -12.249  -4.287  0.00  0.00    -0.243 NA
ATOM     15  C   UNL     1      -4.071 -12.014  -5.465  0.00  0.00    +0.196 A 
ATOM     16  N   UNL     1      -4.884 -10.939  -5.379  0.00  0.00    -0.348 N 
ATOM     17  C   UNL     1      -4.860 -10.516  -4.077  0.00  0.00    +0.034 A 
ATOM     18  H   UNL     1      -5.393 -10.542  -6.103  0.00  0.00    +0.166 HD
ATOM     19  C   UNL     1      -5.618  -9.350  -3.497  0.00  0.00    +0.065 C 
ENDBRANCH  12  13
ENDBRANCH  10  12
ENDBRANCH   4   6
BRANCH   1  21
ATOM     20  N   UNL     1      -2.256  -3.845   1.024  0.00  0.00    -0.267 N 
ATOM     21  C   UNL     1      -1.853  -4.703   0.066  0.00  0.00    +0.256 C 
ATOM     22  O   UNL     1      -1.294  -4.283  -0.930  0.00  0.00    -0.269 OA
ATOM     23  H   UNL     1      -2.701  -4.180   1.818  0.00  0.00    +0.156 HD
BRANCH  20  27
ATOM     24  N   UNL     1      -1.376  -0.512   0.012  0.00  0.00    -0.149 NA
ATOM     25  N   UNL     1      -1.974  -0.282   1.220  0.00  0.00    -0.266 N 
ATOM     26  C   UNL     1      -2.378  -1.527   1.744  0.00  0.00    +0.126 C 
ATOM     27  C   UNL     1      -2.031  -2.473   0.874  0.00  0.00    +0.121 C 
ATOM     28  N   UNL     1      -1.403  -1.859  -0.216  0.00  0.00    -0.248 N 
ATOM     29  H   UNL     1      -2.098   0.583   1.640  0.00  0.00    +0.167 HD
ATOM     30  H   UNL     1      -1.048  -2.311  -0.997  0.00  0.00    +0.169 HD
BRANCH  24  32
ATOM     31  C   UNL     1      -0.019   1.526   0.010  0.00  0.00    +0.024 C 
ATOM     32  C   UNL     1       0.002  -0.004   0.002  0.00  0.00    +0.124 C 
ENDBRANCH  24  32
ENDBRANCH  20  27
ENDBRANCH   1  21
TORSDOF 6
