REMARK  Name = ZINC22147045
REMARK  5 active torsions:
REMARK  status: ('A' for Active; 'I' for Inactive)
REMARK    1  A    between atoms: C_1  and  C_2
REMARK    2  A    between atoms: C_2  and  C_4
REMARK    3  A    between atoms: C_2  and  N_15
REMARK    4  A    between atoms: N_6  and  C_7
REMARK    5  A    between atoms: C_10  and  N_14
REMARK                            x       y       z     vdW  Elec       q    Type
REMARK                         _______ _______ _______ _____ _____    ______ ____
ROOT
ATOM      1  C   UNL     1      -4.890   5.031   0.165  0.00  0.00    +0.203 C 
ATOM      2  O   UNL     1      -3.849   5.653   0.179  0.00  0.00    -0.277 OA
ATOM      3  N   UNL     1      -4.871   3.688   0.047  0.00  0.00    -0.286 N 
ATOM      4  H   UNL     1      -5.813   3.132  -0.061  0.00  0.00    +0.155 HD
ENDROOT
BRANCH   3   5
ATOM      5  C   UNL     1      -3.649   3.001   0.061  0.00  0.00    +0.052 A 
ATOM      6  C   UNL     1      -2.543   3.563   0.685  0.00  0.00    +0.026 A 
ATOM      7  C   UNL     1      -1.341   2.884   0.704  0.00  0.00    +0.024 A 
ATOM      8  C   UNL     1      -1.234   1.644   0.088  0.00  0.00    +0.026 A 
ATOM      9  C   UNL     1      -2.339   1.081  -0.537  0.00  0.00    +0.044 A 
ATOM     10  C   UNL     1      -3.544   1.758  -0.550  0.00  0.00    +0.064 A 
ATOM     11 CL   UNL     1      -4.926   1.055  -1.332  0.00  0.00    -0.082 Cl
BRANCH   8  12
ATOM     12  N   UNL     1      -0.015   0.959   0.102  0.00  0.00    -0.358 N 
ATOM     13  H   UNL     1       0.070  -0.024  -0.385  0.00  0.00    +0.142 HD
ATOM     14  H   UNL     1       0.860   1.402   0.601  0.00  0.00    +0.142 HD
ENDBRANCH   8  12
ENDBRANCH   3   5
BRANCH   1  16
ATOM     15  C   UNL     1      -6.891   5.368   1.591  0.00  0.00    -0.004 C 
ATOM     16  C   UNL     1      -6.205   5.758   0.279  0.00  0.00    +0.016 C 
BRANCH  16  17
ATOM     17  N   UNL     1      -5.966   7.207   0.264  0.00  0.00    +0.387 N 
ATOM     18  C   UNL     1      -5.285   7.641   1.489  0.00  0.00    -0.078 C 
ATOM     19  C   UNL     1      -4.793   9.080   1.335  0.00  0.00    -0.019 C 
ATOM     20  C   UNL     1      -5.975  10.042   1.494  0.00  0.00    -0.002 C 
ATOM     21  C   UNL     1      -6.832   9.986   0.227  0.00  0.00    -0.000 C 
ATOM     22  C   UNL     1      -5.921   9.996  -1.001  0.00  0.00    -0.002 C 
ATOM     23  C   UNL     1      -6.011   8.648  -1.716  0.00  0.00    -0.019 C 
ATOM     24  C   UNL     1      -5.210   7.603  -0.933  0.00  0.00    -0.078 C 
ATOM     25  H   UNL     1      -6.943   7.712   0.227  0.00  0.00    -0.081 HD
ENDBRANCH  16  17
ENDBRANCH   1  16
TORSDOF 4
