REMARK  Name = ZINC02907762
REMARK  12 active torsions:
REMARK  status: ('A' for Active; 'I' for Inactive)
REMARK    1  A    between atoms: C_1  and  C_2
REMARK    2  A    between atoms: C_2  and  C_3
REMARK    3  A    between atoms: C_2  and  C_10
REMARK    4  A    between atoms: C_2  and  O_25
REMARK    5  A    between atoms: C_10  and  C_12
REMARK    6  A    between atoms: C_10  and  C_19
REMARK    7  A    between atoms: C_12  and  N_13
REMARK    8  A    between atoms: N_13  and  C_14
REMARK    9  A    between atoms: C_14  and  C_15
REMARK   10  A    between atoms: C_15  and  C_16
REMARK   11  A    between atoms: C_16  and  C_17
REMARK   12  A    between atoms: C_17  and  O_18
REMARK                            x       y       z     vdW  Elec       q    Type
REMARK                         _______ _______ _______ _____ _____    ______ ____
ROOT
ATOM      1  C   UNL     1       0.606   0.107  -1.314  0.00  0.00    +0.038 C 
ENDROOT
BRANCH   1   2
ATOM      2  C   UNL     1       2.054   0.509  -1.201  0.00  0.00    -0.043 A 
ATOM      3  C   UNL     1       2.390   1.743  -0.677  0.00  0.00    +0.004 A 
ATOM      4  C   UNL     1       3.718   2.111  -0.573  0.00  0.00    +0.000 A 
ATOM      5  C   UNL     1       4.711   1.245  -0.993  0.00  0.00    +0.000 A 
ATOM      6  C   UNL     1       4.375   0.011  -1.516  0.00  0.00    +0.000 A 
ATOM      7  C   UNL     1       3.047  -0.359  -1.616  0.00  0.00    +0.004 A 
ENDBRANCH   1   2
BRANCH   1   9
ATOM      8  C   UNL     1       0.861  -1.038   0.892  0.00  0.00    +0.047 C 
ATOM      9  C   UNL     1       0.010  -0.054   0.086  0.00  0.00    +0.093 C 
BRANCH   9  10
ATOM     10  C   UNL     1      -1.397  -0.580  -0.025  0.00  0.00    -0.016 A 
ATOM     11  C   UNL     1      -1.639  -1.776  -0.674  0.00  0.00    +0.007 A 
ATOM     12  C   UNL     1      -2.930  -2.259  -0.775  0.00  0.00    +0.015 A 
ATOM     13  C   UNL     1      -3.980  -1.546  -0.226  0.00  0.00    +0.018 A 
ATOM     14  C   UNL     1      -3.738  -0.348   0.423  0.00  0.00    +0.015 A 
ATOM     15  C   UNL     1      -2.446   0.131   0.528  0.00  0.00    +0.007 A 
ATOM     16 BR   UNL     1      -5.747  -2.206  -0.365  0.00  0.00    -0.050 Br
ENDBRANCH   9  10
BRANCH   9  17
ATOM     17  O   UNL     1      -0.005   1.214   0.745  0.00  0.00    -0.384 OA
ATOM     18  H   UNL     1      -0.527   1.888   0.289  0.00  0.00    +0.211 HD
ENDBRANCH   9  17
ENDBRANCH   1   9
BRANCH   1  19
ATOM     19  C   UNL     1      -0.165   1.188  -2.075  0.00  0.00    -0.071 C 
BRANCH  19  20
ATOM     20  N   UNL     1       0.328   1.259  -3.457  0.00  0.00    +0.380 N 
ATOM     21  H   UNL     1       1.311   1.487  -3.453  0.00  0.00    -0.086 HD
ATOM     22  H   UNL     1       0.192   0.367  -3.909  0.00  0.00    -0.086 HD
BRANCH  20  23
ATOM     23  C   UNL     1      -0.412   2.296  -4.188  0.00  0.00    -0.083 C 
BRANCH  23  24
ATOM     24  C   UNL     1       0.101   2.370  -5.628  0.00  0.00    -0.017 C 
BRANCH  24  25
ATOM     25  C   UNL     1      -0.670   3.451  -6.389  0.00  0.00    +0.026 C 
BRANCH  25  26
ATOM     26  C   UNL     1      -0.157   3.525  -7.828  0.00  0.00    +0.156 C 
BRANCH  26  27
ATOM     27  O   UNL     1      -0.877   4.534  -8.539  0.00  0.00    -0.395 OA
ATOM     28  H   UNL     1      -0.603   4.637  -9.461  0.00  0.00    +0.209 HD
ENDBRANCH  26  27
ENDBRANCH  25  26
ENDBRANCH  24  25
ENDBRANCH  23  24
ENDBRANCH  20  23
ENDBRANCH  19  20
ENDBRANCH   1  19
TORSDOF 11
