REMARK  Name = ZINC13164799
REMARK  5 active torsions:
REMARK  status: ('A' for Active; 'I' for Inactive)
REMARK    1  A    between atoms: C_4  and  C_7
REMARK    2  A    between atoms: C_16  and  C_17
REMARK    3  A    between atoms: C_16  and  N_53
REMARK    4  A    between atoms: N_19  and  C_20
REMARK    5  A    between atoms: C_21  and  C_28
REMARK                            x       y       z     vdW  Elec       q    Type
REMARK                         _______ _______ _______ _____ _____    ______ ____
ROOT
ATOM      1  C   UNL     1       6.165   0.549  -0.058  0.00  0.00    +0.020 C 
ENDROOT
BRANCH   1  10
ATOM      2  C   UNL     1       8.311   1.656   0.114  0.00  0.00    -0.005 C 
ATOM      3  C   UNL     1       8.977   3.028   0.151  0.00  0.00    -0.047 A 
ATOM      4  C   UNL     1      10.333   3.240  -0.085  0.00  0.00    +0.010 A 
ATOM      5  C   UNL     1      10.841   4.494  -0.034  0.00  0.00    +0.045 A 
ATOM      6  S   UNL     1       9.393   5.463   0.363  0.00  0.00    -0.101 S 
ATOM      7  C   UNL     1       8.228   4.132   0.429  0.00  0.00    -0.010 A 
ATOM      8  C   UNL     1       6.763   4.165   0.720  0.00  0.00    +0.024 C 
ATOM      9  C   UNL     1       6.308   2.723   0.999  0.00  0.00    -0.072 C 
ATOM     10  N   UNL     1       6.854   1.854  -0.070  0.00  0.00    +0.393 N 
ATOM     11  H   UNL     1       6.694   2.306  -0.978  0.00  0.00    -0.080 HD
BRANCH   2  15
ATOM     12  C   UNL     1       9.823  -0.581  -3.197  0.00  0.00    +0.000 A 
ATOM     13  C   UNL     1      10.300  -0.825  -1.922  0.00  0.00    +0.000 A 
ATOM     14  C   UNL     1       9.810  -0.101  -0.851  0.00  0.00    +0.002 A 
ATOM     15  C   UNL     1       8.845   0.867  -1.054  0.00  0.00    -0.057 A 
ATOM     16  C   UNL     1       8.364   1.107  -2.328  0.00  0.00    +0.002 A 
ATOM     17  C   UNL     1       8.857   0.387  -3.400  0.00  0.00    +0.000 A 
ENDBRANCH   2  15
ENDBRANCH   1  10
BRANCH   1  18
ATOM     18  C   UNL     1       6.284  -0.107   1.294  0.00  0.00    +0.201 C 
ATOM     19  O   UNL     1       6.972   0.399   2.155  0.00  0.00    -0.278 OA
ATOM     20  N   UNL     1       5.625  -1.256   1.546  0.00  0.00    -0.281 N 
ATOM     21  H   UNL     1       5.075  -1.660   0.857  0.00  0.00    +0.155 HD
BRANCH  20  22
ATOM     22  C   UNL     1       5.735  -1.859   2.790  0.00  0.00    +0.084 A 
ATOM     23  C   UNL     1       5.141  -3.028   3.234  0.00  0.00    +0.068 A 
ATOM     24  C   UNL     1       5.423  -3.452   4.605  0.00  0.00    -0.023 A 
ATOM     25  C   UNL     1       6.243  -2.641   5.296  0.00  0.00    -0.004 A 
ATOM     26  S   UNL     1       6.647  -1.334   4.164  0.00  0.00    -0.077 S 
ATOM     27  C   UNL     1       6.479  -3.138   6.697  0.00  0.00    +0.043 C 
ATOM     28  C   UNL     1       5.351  -4.164   6.942  0.00  0.00    +0.010 C 
ATOM     29  C   UNL     1       5.024  -4.621   5.507  0.00  0.00    +0.037 C 
BRANCH  23  30
ATOM     30  C   UNL     1       4.262  -3.813   2.361  0.00  0.00    +0.244 C 
ATOM     31  O   UNL     1       3.067  -3.588   2.340  0.00  0.00    -0.270 OA
ATOM     32  N   UNL     1       4.779  -4.784   1.582  0.00  0.00    -0.325 N 
ATOM     33  H   UNL     1       5.732  -4.964   1.599  0.00  0.00    +0.145 HD
ATOM     34  H   UNL     1       4.197  -5.303   1.005  0.00  0.00    +0.145 HD
ENDBRANCH  23  30
ENDBRANCH  20  22
ENDBRANCH   1  18
TORSDOF 5
