REMARK  Name = ZINC33033479
REMARK  13 active torsions:
REMARK  status: ('A' for Active; 'I' for Inactive)
REMARK    1  A    between atoms: C_1  and  C_2
REMARK    2  A    between atoms: C_2  and  C_3
REMARK    3  A    between atoms: C_3  and  N_4
REMARK    4  A    between atoms: C_5  and  C_7
REMARK    5  A    between atoms: C_7  and  N_8
REMARK    6  A    between atoms: N_8  and  C_9
REMARK    7  A    between atoms: C_10  and  C_12
REMARK    8  A    between atoms: C_15  and  N_30
REMARK    9  A    between atoms: C_16  and  N_18
REMARK   10  A    between atoms: N_18  and  S_19
REMARK   11  A    between atoms: S_19  and  C_22
REMARK   12  A    between atoms: C_25  and  C_28
REMARK   13  A    between atoms: C_28  and  C_29
REMARK                            x       y       z     vdW  Elec       q    Type
REMARK                         _______ _______ _______ _____ _____    ______ ____
ROOT
ATOM      1  C   UNL     1       1.477   4.312   6.525  0.00  0.00    +0.039 A 
ATOM      2  C   UNL     1       2.427   3.492   7.141  0.00  0.00    +0.015 A 
ATOM      3  C   UNL     1       2.166   2.153   7.327  0.00  0.00    +0.026 A 
ATOM      4  C   UNL     1       0.957   1.612   6.905  0.00  0.00    +0.052 A 
ATOM      5  C   UNL     1       0.002   2.426   6.290  0.00  0.00    +0.070 A 
ATOM      6  C   UNL     1       0.262   3.769   6.095  0.00  0.00    +0.039 A 
ENDROOT
BRANCH   4   7
ATOM      7  N   UNL     1       0.697   0.256   7.096  0.00  0.00    -0.332 N 
ATOM      8  C   UNL     1       1.904  -0.454   7.542  0.00  0.00    +0.086 C 
ATOM      9  C   UNL     1       1.598  -1.948   7.663  0.00  0.00    -0.063 C 
ATOM     10  N   UNL     1       0.493  -2.145   8.612  0.00  0.00    +0.381 N 
ATOM     11  C   UNL     1      -0.713  -1.435   8.166  0.00  0.00    -0.063 C 
ATOM     12  C   UNL     1      -0.407   0.060   8.045  0.00  0.00    +0.086 C 
ATOM     13  H   UNL     1       0.264  -3.218   8.691  0.00  0.00    -0.086 HD
ATOM     14  H   UNL     1       0.786  -1.759   9.600  0.00  0.00    -0.086 HD
ENDBRANCH   4   7
BRANCH   1  17
ATOM     15  N   UNL     1       2.336   6.463   7.309  0.00  0.00    -0.292 N 
ATOM     16  C   UNL     1       2.772   5.799   8.540  0.00  0.00    +0.133 C 
ATOM     17  C   UNL     1       1.757   5.746   6.325  0.00  0.00    +0.247 C 
ATOM     18  O   UNL     1       1.465   6.282   5.274  0.00  0.00    -0.270 OA
BRANCH  15  19
ATOM     19  C   UNL     1       2.530   7.906   7.146  0.00  0.00    +0.203 C 
BRANCH  19  21
ATOM     20  N   UNL     1       1.275   9.983   7.624  0.00  0.00    -0.314 N 
ATOM     21  C   UNL     1       1.321   8.637   7.670  0.00  0.00    +0.230 C 
ATOM     22  O   UNL     1       0.389   8.014   8.134  0.00  0.00    -0.274 OA
ATOM     23  H   UNL     1       2.120  10.549   7.204  0.00  0.00    +0.149 HD
BRANCH  20  24
ATOM     24  C   UNL     1       0.099  10.694   8.133  0.00  0.00    +0.104 C 
BRANCH  24  26
ATOM     25  C   UNL     1      -0.926  12.943   8.496  0.00  0.00    +0.005 C 
ATOM     26  C   UNL     1       0.301  12.201   7.964  0.00  0.00    +0.015 C 
ENDBRANCH  24  26
ENDBRANCH  20  24
ENDBRANCH  19  21
ENDBRANCH  15  19
ENDBRANCH   1  17
BRANCH   5  27
ATOM     27  N   UNL     1      -1.216   1.879   5.865  0.00  0.00    -0.214 N 
ATOM     28  H   UNL     1      -2.048   1.772   6.576  0.00  0.00    +0.174 HD
BRANCH  27  29
ATOM     29  S   UNL     1      -1.402   1.393   4.293  0.00  0.00    +0.072 S 
ATOM     30  O   UNL     1      -0.962   2.473   3.479  0.00  0.00    -0.150 OA
ATOM     31  O   UNL     1      -2.708   0.844   4.189  0.00  0.00    -0.150 OA
BRANCH  29  32
ATOM     32  C   UNL     1      -0.275   0.066   4.021  0.00  0.00    +0.109 A 
ATOM     33  C   UNL     1      -0.672  -1.237   4.255  0.00  0.00    +0.029 A 
ATOM     34  C   UNL     1       0.212  -2.278   4.041  0.00  0.00    +0.005 A 
ATOM     35  C   UNL     1       1.493  -2.016   3.592  0.00  0.00    -0.048 A 
ATOM     36  C   UNL     1       1.892  -0.712   3.362  0.00  0.00    +0.005 A 
ATOM     37  C   UNL     1       1.006   0.329   3.572  0.00  0.00    +0.029 A 
BRANCH  35  38
ATOM     38  C   UNL     1       2.457  -3.151   3.358  0.00  0.00    +0.032 C 
ATOM     39  C   UNL     1       2.326  -3.641   1.915  0.00  0.00    +0.009 C 
ENDBRANCH  35  38
ENDBRANCH  29  32
ENDBRANCH  27  29
ENDBRANCH   5  27
TORSDOF 10
