REMARK  Name = ZINC21057622
REMARK  6 active torsions:
REMARK  status: ('A' for Active; 'I' for Inactive)
REMARK    1  A    between atoms: C_1  and  C_2
REMARK    2  A    between atoms: C_5  and  C_23
REMARK    3  A    between atoms: N_8  and  C_10
REMARK    4  A    between atoms: C_10  and  C_11
REMARK    5  A    between atoms: N_13  and  C_14
REMARK    6  A    between atoms: C_15  and  N_22
REMARK                            x       y       z     vdW  Elec       q    Type
REMARK                         _______ _______ _______ _____ _____    ______ ____
ROOT
ATOM      1  C   UNL     1      -2.976  -4.088   0.276  0.00  0.00    +0.201 C 
ATOM      2  O   UNL     1      -2.104  -4.696   0.860  0.00  0.00    -0.278 OA
ATOM      3  N   UNL     1      -3.821  -4.743  -0.544  0.00  0.00    -0.284 N 
ATOM      4  H   UNL     1      -4.553  -4.181  -1.143  0.00  0.00    +0.155 HD
ENDROOT
BRANCH   3   5
ATOM      5  C   UNL     1      -3.767  -6.141  -0.636  0.00  0.00    +0.073 A 
ATOM      6  C   UNL     1      -4.924  -6.899  -0.462  0.00  0.00    +0.049 A 
ATOM      7  C   UNL     1      -4.865  -8.281  -0.557  0.00  0.00    +0.044 A 
ATOM      8  C   UNL     1      -3.658  -8.906  -0.815  0.00  0.00    +0.044 A 
ATOM      9  C   UNL     1      -2.508  -8.155  -0.982  0.00  0.00    +0.042 A 
ATOM     10  C   UNL     1      -2.560  -6.775  -0.893  0.00  0.00    +0.065 A 
ATOM     11 CL   UNL     1      -1.114  -5.837  -1.104  0.00  0.00    -0.082 Cl
ATOM     12 CL   UNL     1      -3.586 -10.637  -0.927  0.00  0.00    -0.083 Cl
BRANCH   6  13
ATOM     13  N   UNL     1      -6.143  -6.266  -0.196  0.00  0.00    -0.356 N 
ATOM     14  H   UNL     1      -7.056  -6.864  -0.059  0.00  0.00    +0.142 HD
ATOM     15  H   UNL     1      -6.189  -5.169  -0.124  0.00  0.00    +0.142 HD
ENDBRANCH   6  13
ENDBRANCH   3   5
BRANCH   1  16
ATOM     16  C   UNL     1      -3.115  -2.599   0.469  0.00  0.00    +0.019 C 
BRANCH  16  22
ATOM     17  C   UNL     1      -0.690   1.345   2.128  0.00  0.00    +0.005 C 
ATOM     18  C   UNL     1      -0.745  -0.184   2.119  0.00  0.00    -0.031 C 
ATOM     19  C   UNL     1      -0.848  -0.700   3.557  0.00  0.00    +0.003 C 
ATOM     20  C   UNL     1      -0.963  -2.227   3.536  0.00  0.00    -0.031 C 
ATOM     21  C   UNL     1      -2.180  -2.631   2.702  0.00  0.00    -0.075 C 
ATOM     22  N   UNL     1      -2.033  -2.115   1.335  0.00  0.00    +0.386 N 
ATOM     23  C   UNL     1      -1.969  -0.647   1.326  0.00  0.00    -0.075 C 
ATOM     24  C   UNL     1       0.302  -2.825   2.916  0.00  0.00    +0.005 C 
ATOM     25  H   UNL     1      -1.081  -2.494   0.934  0.00  0.00    -0.081 HD
ENDBRANCH  16  22
ENDBRANCH   1  16
TORSDOF 4
