REMARK  Name = ZINC63258854
REMARK  9 active torsions:
REMARK  status: ('A' for Active; 'I' for Inactive)
REMARK    1  A    between atoms: C_7  and  C_10
REMARK    2  A    between atoms: C_10  and  C_11
REMARK    3  A    between atoms: C_11  and  C_13
REMARK    4  A    between atoms: C_11  and  N_29
REMARK    5  A    between atoms: C_13  and  O_15
REMARK    6  A    between atoms: O_15  and  C_16
REMARK    7  A    between atoms: C_16  and  C_17
REMARK    8  A    between atoms: N_19  and  C_20
REMARK    9  A    between atoms: C_23  and  N_26
REMARK                            x       y       z     vdW  Elec       q    Type
REMARK                         _______ _______ _______ _____ _____    ______ ____
ROOT
ATOM      1  C   UNL     1       0.455  -3.652  -1.456  0.00  0.00    +0.187 C 
ENDROOT
BRANCH   1   2
ATOM      2  N   UNL     1      -0.245  -2.600  -2.197  0.00  0.00    -0.286 N 
ATOM      3  C   UNL     1      -1.454  -2.174  -1.782  0.00  0.00    +0.298 C 
ATOM      4  O   UNL     1      -1.965  -2.663  -0.793  0.00  0.00    -0.253 OA
ATOM      5  N   UNL     1      -2.098  -1.206  -2.464  0.00  0.00    -0.313 N 
ATOM      6  H   UNL     1       0.163  -2.210  -2.986  0.00  0.00    +0.151 HD
ATOM      7  H   UNL     1      -1.691  -0.816  -3.253  0.00  0.00    +0.146 HD
ATOM      8  H   UNL     1      -2.968  -0.899  -2.166  0.00  0.00    +0.146 HD
ENDBRANCH   1   2
BRANCH   1   9
ATOM      9  C   UNL     1      -0.387  -4.902  -1.443  0.00  0.00    +0.328 C 
ATOM     10  O   UNL     1      -1.574  -4.834  -1.660  0.00  0.00    -0.249 OA
BRANCH   9  11
ATOM     11  O   UNL     1       0.182  -6.092  -1.191  0.00  0.00    -0.454 OA
BRANCH  11  12
ATOM     12  C   UNL     1      -0.676  -7.235  -1.195  0.00  0.00    +0.328 C 
BRANCH  12  13
ATOM     13  C   UNL     1       0.132  -8.471  -0.894  0.00  0.00    +0.255 C 
ATOM     14  O   UNL     1       1.325  -8.381  -0.696  0.00  0.00    -0.272 OA
ATOM     15  N   UNL     1      -0.471  -9.675  -0.846  0.00  0.00    -0.283 N 
ATOM     16  H   UNL     1      -1.434  -9.739  -0.937  0.00  0.00    +0.155 HD
BRANCH  15  17
ATOM     17  C   UNL     1       0.293 -10.833  -0.663  0.00  0.00    +0.034 A 
ATOM     18  C   UNL     1      -0.072 -12.015  -1.294  0.00  0.00    +0.025 A 
ATOM     19  C   UNL     1       0.684 -13.156  -1.112  0.00  0.00    +0.034 A 
ATOM     20  C   UNL     1       1.804 -13.123  -0.302  0.00  0.00    +0.126 A 
ATOM     21  C   UNL     1       2.170 -11.948   0.329  0.00  0.00    +0.034 A 
ATOM     22  C   UNL     1       1.422 -10.802   0.145  0.00  0.00    +0.025 A 
BRANCH  20  23
ATOM     23  N   UNL     1       2.612 -14.348  -0.109  0.00  0.00    +0.056 N 
ATOM     24  O   UNL     1       2.292 -15.376  -0.659  0.00  0.00    -0.126 OA
ATOM     25  O   UNL     1       3.591 -14.320   0.600  0.00  0.00    -0.126 OA
ENDBRANCH  20  23
ENDBRANCH  15  17
ENDBRANCH  12  13
ENDBRANCH  11  12
ENDBRANCH   9  11
ENDBRANCH   1   9
BRANCH   1  26
ATOM     26  C   UNL     1       0.699  -3.188  -0.018  0.00  0.00    +0.067 C 
BRANCH  26  33
ATOM     27  C   UNL     1      -0.005   1.346   0.029  0.00  0.00    +0.001 A 
ATOM     28  C   UNL     1       1.177   2.099   0.015  0.00  0.00    +0.002 A 
ATOM     29  C   UNL     1       2.402   1.532  -0.009  0.00  0.00    +0.026 A 
ATOM     30  C   UNL     1       2.539   0.117  -0.022  0.00  0.00    +0.043 A 
ATOM     31  N   UNL     1       3.596  -0.658  -0.047  0.00  0.00    -0.380 N 
ATOM     32  C   UNL     1       3.152  -2.056  -0.051  0.00  0.00    +0.144 C 
ATOM     33  C   UNL     1       1.641  -2.011  -0.024  0.00  0.00    -0.039 C 
ATOM     34  C   UNL     1       1.305  -0.701  -0.008  0.00  0.00    -0.001 A 
ATOM     35  C   UNL     1       0.012  -0.006   0.019  0.00  0.00    +0.010 A 
ATOM     36  H   UNL     1       4.518  -0.357  -0.060  0.00  0.00    +0.160 HD
ENDBRANCH  26  33
ENDBRANCH   1  26
TORSDOF 9
