REMARK  Name = ZINC12859176
REMARK  6 active torsions:
REMARK  status: ('A' for Active; 'I' for Inactive)
REMARK    1  A    between atoms: C_3  and  C_6
REMARK    2  A    between atoms: C_15  and  C_16
REMARK    3  A    between atoms: C_15  and  N_47
REMARK    4  A    between atoms: N_18  and  C_19
REMARK    5  A    between atoms: C_22  and  S_25
REMARK    6  A    between atoms: S_25  and  N_28
REMARK                            x       y       z     vdW  Elec       q    Type
REMARK                         _______ _______ _______ _____ _____    ______ ____
ROOT
ATOM      1  C   UNL     1      -0.089   0.985   0.005  0.00  0.00    +0.020 C 
ENDROOT
BRANCH   1  10
ATOM      2  C   UNL     1       0.167   1.454  -2.356  0.00  0.00    +0.002 C 
ATOM      3  C   UNL     1      -0.528   2.089  -3.556  0.00  0.00    -0.046 A 
ATOM      4  C   UNL     1      -0.167   1.848  -4.880  0.00  0.00    +0.010 A 
ATOM      5  C   UNL     1      -0.840   2.455  -5.886  0.00  0.00    +0.045 A 
ATOM      6  S   UNL     1      -2.048   3.421  -4.992  0.00  0.00    -0.101 S 
ATOM      7  C   UNL     1      -1.567   2.947  -3.355  0.00  0.00    -0.010 A 
ATOM      8  C   UNL     1      -2.136   3.366  -2.039  0.00  0.00    +0.024 C 
ATOM      9  C   UNL     1      -1.139   2.950  -0.944  0.00  0.00    -0.072 C 
ATOM     10  N   UNL     1      -0.747   1.542  -1.192  0.00  0.00    +0.393 N 
ATOM     11  H   UNL     1      -1.592   0.994  -1.393  0.00  0.00    -0.080 HD
BRANCH   2  14
ATOM     12  C   UNL     1       1.632  -1.951  -3.234  0.00  0.00    +0.008 A 
ATOM     13  C   UNL     1       1.608  -0.585  -3.025  0.00  0.00    +0.010 A 
ATOM     14  C   UNL     1       0.447   0.001  -2.644  0.00  0.00    -0.019 A 
ATOM     15  S   UNL     1      -0.663  -1.395  -2.564  0.00  0.00    -0.103 S 
ATOM     16  C   UNL     1       0.494  -2.664  -3.053  0.00  0.00    +0.045 A 
ENDBRANCH   2  14
ENDBRANCH   1  10
BRANCH   1  17
ATOM     17  C   UNL     1       1.139   1.782   0.362  0.00  0.00    +0.201 C 
ATOM     18  O   UNL     1       1.411   2.788  -0.259  0.00  0.00    -0.278 OA
ATOM     19  N   UNL     1       1.936   1.378   1.371  0.00  0.00    -0.287 N 
ATOM     20  H   UNL     1       1.756   0.540   1.825  0.00  0.00    +0.155 HD
BRANCH  19  21
ATOM     21  C   UNL     1       3.023   2.167   1.763  0.00  0.00    +0.033 A 
ATOM     22  C   UNL     1       3.741   2.884   0.815  0.00  0.00    +0.025 A 
ATOM     23  C   UNL     1       4.810   3.666   1.206  0.00  0.00    +0.030 A 
ATOM     24  C   UNL     1       5.173   3.726   2.539  0.00  0.00    +0.105 A 
ATOM     25  C   UNL     1       4.464   3.009   3.485  0.00  0.00    +0.030 A 
ATOM     26  C   UNL     1       3.390   2.229   3.101  0.00  0.00    +0.025 A 
BRANCH  24  27
ATOM     27  S   UNL     1       6.542   4.719   3.034  0.00  0.00    +0.056 S 
ATOM     28  O   UNL     1       6.700   5.718   2.036  0.00  0.00    -0.153 OA
ATOM     29  O   UNL     1       6.340   5.036   4.404  0.00  0.00    -0.153 OA
BRANCH  27  30
ATOM     30  N   UNL     1       7.892   3.762   2.963  0.00  0.00    -0.204 NA
ATOM     31  H   UNL     1       7.816   2.836   2.685  0.00  0.00    +0.144 HD
ATOM     32  H   UNL     1       8.758   4.128   3.200  0.00  0.00    +0.144 HD
ENDBRANCH  27  30
ENDBRANCH  24  27
ENDBRANCH  19  21
ENDBRANCH   1  17
TORSDOF 6
