REMARK  Name = ZINC52622173
REMARK  11 active torsions:
REMARK  status: ('A' for Active; 'I' for Inactive)
REMARK    1  A    between atoms: C_1  and  C_2
REMARK    2  A    between atoms: C_2  and  C_3
REMARK    3  A    between atoms: C_3  and  O_4
REMARK    4  A    between atoms: O_4  and  C_5
REMARK    5  A    between atoms: C_8  and  N_12
REMARK    6  A    between atoms: C_13  and  C_15
REMARK    7  A    between atoms: N_17  and  C_18
REMARK    8  A    between atoms: C_20  and  C_26
REMARK    9  A    between atoms: C_20  and  C_27
REMARK   10  A    between atoms: C_22  and  C_24
REMARK   11  A    between atoms: C_22  and  C_25
REMARK                            x       y       z     vdW  Elec       q    Type
REMARK                         _______ _______ _______ _____ _____    ______ ____
ROOT
ATOM      1  C   UNL     1       3.878  -6.448   6.847  0.00  0.00    +0.300 C 
ATOM      2  O   UNL     1       4.370  -5.786   7.738  0.00  0.00    -0.265 OA
ATOM      3  N   UNL     1       3.849  -7.792   6.943  0.00  0.00    -0.305 N 
ATOM      4  H   UNL     1       3.456  -8.321   6.231  0.00  0.00    +0.149 HD
ENDROOT
BRANCH   3   5
ATOM      5  C   UNL     1       4.412  -8.456   8.126  0.00  0.00    +0.071 C 
ATOM      6  C   UNL     1       3.341  -8.535   9.215  0.00  0.00    +0.009 C 
ATOM      7  C   UNL     1       3.909  -9.235  10.449  0.00  0.00    -0.072 C 
ATOM      8  N   UNL     1       4.477 -10.536  10.129  0.00  0.00    +0.386 N 
ATOM      9  C   UNL     1       5.358 -10.623   8.975  0.00  0.00    -0.072 C 
ATOM     10  C   UNL     1       4.826  -9.879   7.755  0.00  0.00    +0.009 C 
ATOM     11  C   UNL     1       6.773 -10.141   9.306  0.00  0.00    -0.010 C 
ATOM     12  C   UNL     1       5.470 -12.117   8.588  0.00  0.00    -0.010 C 
ATOM     13  C   UNL     1       2.733  -9.467  11.426  0.00  0.00    -0.010 C 
ATOM     14  C   UNL     1       4.914  -8.327  11.157  0.00  0.00    -0.010 C 
ATOM     15  H   UNL     1       4.985 -10.876  10.949  0.00  0.00    -0.084 HD
ATOM     16  H   UNL     1       3.708 -11.198   9.997  0.00  0.00    -0.084 HD
ENDBRANCH   3   5
BRANCH   1  18
ATOM     17  N   UNL     1       3.334  -4.429   5.548  0.00  0.00    -0.278 N 
ATOM     18  C   UNL     1       3.305  -5.773   5.644  0.00  0.00    +0.303 C 
ATOM     19  O   UNL     1       2.813  -6.434   4.753  0.00  0.00    -0.265 OA
ATOM     20  H   UNL     1       3.793  -3.904   6.223  0.00  0.00    +0.155 HD
BRANCH  17  24
ATOM     21  C   UNL     1       1.455  -2.526   2.351  0.00  0.00    +0.139 A 
ATOM     22  C   UNL     1       2.610  -1.987   2.897  0.00  0.00    +0.049 A 
ATOM     23  C   UNL     1       3.233  -2.616   3.956  0.00  0.00    +0.027 A 
ATOM     24  C   UNL     1       2.703  -3.791   4.476  0.00  0.00    +0.035 A 
ATOM     25  C   UNL     1       1.546  -4.331   3.929  0.00  0.00    +0.047 A 
ATOM     26  C   UNL     1       0.921  -3.697   2.872  0.00  0.00    +0.084 A 
ATOM     27 CL   UNL     1      -0.529  -4.368   2.192  0.00  0.00    -0.080 Cl
BRANCH  21  28
ATOM     28  O   UNL     1       0.842  -1.906   1.307  0.00  0.00    -0.491 OA
BRANCH  28  29
ATOM     29  C   UNL     1       1.447  -0.706   0.821  0.00  0.00    +0.229 C 
BRANCH  29  31
ATOM     30  C   UNL     1       1.269   1.130  -0.865  0.00  0.00    +0.007 C 
ATOM     31  C   UNL     1       0.622  -0.155  -0.344  0.00  0.00    +0.038 C 
ENDBRANCH  29  31
ENDBRANCH  28  29
ENDBRANCH  21  28
ENDBRANCH  17  24
ENDBRANCH   1  18
TORSDOF 6
