REMARK  Name = ZINC03257193
REMARK  10 active torsions:
REMARK  status: ('A' for Active; 'I' for Inactive)
REMARK    1  A    between atoms: C_1  and  C_2
REMARK    2  A    between atoms: C_2  and  C_23
REMARK    3  A    between atoms: C_4  and  N_9
REMARK    4  A    between atoms: C_6  and  C_7
REMARK    5  A    between atoms: C_6  and  C_8
REMARK    6  A    between atoms: N_9  and  C_10
REMARK    7  A    between atoms: C_10  and  N_12
REMARK    8  A    between atoms: N_12  and  C_13
REMARK    9  A    between atoms: C_16  and  S_19
REMARK   10  A    between atoms: S_19  and  C_20
REMARK                            x       y       z     vdW  Elec       q    Type
REMARK                         _______ _______ _______ _____ _____    ______ ____
ROOT
ATOM      1  N   UNL     1       1.545   3.282  -3.373  0.00  0.00    -0.324 N 
ATOM      2  H   UNL     1       1.969   2.550  -3.847  0.00  0.00    +0.148 HD
ENDROOT
BRANCH   1   6
ATOM      3  C   UNL     1      -1.383   1.656   0.216  0.00  0.00    -0.010 C 
ATOM      4  C   UNL     1      -0.137   2.530  -0.052  0.00  0.00    -0.072 C 
ATOM      5  C   UNL     1       0.032   2.636  -1.565  0.00  0.00    +0.009 C 
ATOM      6  C   UNL     1       1.399   3.224  -1.913  0.00  0.00    +0.069 C 
ATOM      7  C   UNL     1       2.479   2.306  -1.336  0.00  0.00    +0.009 C 
ATOM      8  C   UNL     1       2.345   2.237   0.185  0.00  0.00    -0.072 C 
ATOM      9  C   UNL     1       2.826   3.551   0.806  0.00  0.00    -0.010 C 
ATOM     10  C   UNL     1       3.287   1.119   0.684  0.00  0.00    -0.010 C 
ATOM     11  C   UNL     1      -0.426   3.920   0.529  0.00  0.00    -0.010 C 
ATOM     12  N   UNL     1       0.985   1.865   0.662  0.00  0.00    +0.386 N 
ATOM     13  H   UNL     1       0.875   0.850   0.551  0.00  0.00    -0.084 HD
ATOM     14  H   UNL     1       0.919   2.109   1.657  0.00  0.00    -0.084 HD
ENDBRANCH   1   6
BRANCH   1  15
ATOM     15  C   UNL     1       1.089   4.352  -4.053  0.00  0.00    +0.135 C 
ATOM     16  S   UNL     1       0.340   5.644  -3.216  0.00  0.00    -0.019 S 
BRANCH  15  17
ATOM     17  N   UNL     1       1.222   4.405  -5.393  0.00  0.00    -0.297 N 
ATOM     18  H   UNL     1       1.700   3.703  -5.861  0.00  0.00    +0.154 HD
BRANCH  17  19
ATOM     19  C   UNL     1       0.670   5.475  -6.111  0.00  0.00    +0.033 A 
ATOM     20  C   UNL     1      -0.042   5.234  -7.278  0.00  0.00    +0.024 A 
ATOM     21  C   UNL     1      -0.590   6.287  -7.983  0.00  0.00    +0.017 A 
ATOM     22  C   UNL     1      -0.421   7.589  -7.529  0.00  0.00    +0.013 A 
ATOM     23  C   UNL     1       0.296   7.830  -6.363  0.00  0.00    +0.017 A 
ATOM     24  C   UNL     1       0.840   6.776  -5.657  0.00  0.00    +0.024 A 
BRANCH  22  25
ATOM     25  S   UNL     1      -1.115   8.934  -8.431  0.00  0.00    -0.056 S 
BRANCH  25  26
ATOM     26  C   UNL     1      -1.936   8.140  -9.840  0.00  0.00    +0.404 C 
ATOM     27  F   UNL     1      -0.992   7.433 -10.592  0.00  0.00    -0.197 F 
ATOM     28  F   UNL     1      -2.916   7.257  -9.372  0.00  0.00    -0.197 F 
ENDBRANCH  25  26
ENDBRANCH  22  25
ENDBRANCH  17  19
ENDBRANCH  15  17
ENDBRANCH   1  15
TORSDOF 6
