REMARK  Name = ZINC01434715
REMARK  11 active torsions:
REMARK  status: ('A' for Active; 'I' for Inactive)
REMARK    1  A    between atoms: C_1  and  O_2
REMARK    2  A    between atoms: O_2  and  C_3
REMARK    3  A    between atoms: C_5  and  C_13
REMARK    4  A    between atoms: C_7  and  O_11
REMARK    5  A    between atoms: C_8  and  O_9
REMARK    6  A    between atoms: O_9  and  C_10
REMARK    7  A    between atoms: O_11  and  C_12
REMARK    8  A    between atoms: C_18  and  C_28
REMARK    9  A    between atoms: C_31  and  C_34
REMARK   10  A    between atoms: C_34  and  O_36
REMARK   11  A    between atoms: O_36  and  C_37
REMARK                            x       y       z     vdW  Elec       q    Type
REMARK                         _______ _______ _______ _____ _____    ______ ____
ROOT
ATOM      1  C   UNL     1       2.456   0.926  -0.344  0.00  0.00    +0.032 C 
ATOM      2  C   UNL     1       3.184   1.390   0.917  0.00  0.00    +0.059 C 
ATOM      3  C   UNL     1       4.531   0.694   1.021  0.00  0.00    +0.017 C 
ATOM      4  C   UNL     1       5.221   0.379  -0.088  0.00  0.00    +0.036 C 
ATOM      5  C   UNL     1       6.574  -0.290  -0.131  0.00  0.00    +0.136 C 
ATOM      6  N   UNL     1       7.013  -0.834   1.137  0.00  0.00    -0.331 N 
ATOM      7  C   UNL     1       7.270  -0.005   2.227  0.00  0.00    +0.049 A 
ATOM      8  C   UNL     1       8.555   0.167   2.717  0.00  0.00    +0.025 A 
ATOM      9  C   UNL     1       8.780   1.083   3.730  0.00  0.00    +0.002 A 
ATOM     10  C   UNL     1       7.732   1.821   4.252  0.00  0.00    +0.002 A 
ATOM     11  C   UNL     1       6.444   1.635   3.779  0.00  0.00    +0.025 A 
ATOM     12  C   UNL     1       6.216   0.708   2.778  0.00  0.00    +0.052 A 
ATOM     13  N   UNL     1       4.942   0.440   2.289  0.00  0.00    -0.316 N 
ATOM     14  C   UNL     1       4.682   0.660  -1.366  0.00  0.00    +0.163 C 
ATOM     15  O   UNL     1       5.337   0.383  -2.351  0.00  0.00    -0.292 OA
ATOM     16  C   UNL     1       3.333   1.288  -1.548  0.00  0.00    +0.088 C 
ATOM     17  H   UNL     1       7.130  -1.793   1.229  0.00  0.00    +0.147 HD
ATOM     18  H   UNL     1       4.300   0.043   2.899  0.00  0.00    +0.152 HD
ENDROOT
BRANCH   1  21
ATOM     19  C   UNL     1      -1.268   1.524  -0.576  0.00  0.00    +0.165 A 
ATOM     20  C   UNL     1      -0.042   0.885  -0.471  0.00  0.00    +0.053 A 
ATOM     21  C   UNL     1       1.126   1.625  -0.451  0.00  0.00    -0.036 A 
ATOM     22  C   UNL     1       1.076   3.004  -0.531  0.00  0.00    +0.053 A 
ATOM     23  C   UNL     1      -0.146   3.651  -0.631  0.00  0.00    +0.165 A 
ATOM     24  C   UNL     1      -1.323   2.911  -0.651  0.00  0.00    +0.204 A 
BRANCH  19  26
ATOM     25  C   UNL     1      -2.284  -0.625  -0.515  0.00  0.00    +0.277 C 
ATOM     26  O   UNL     1      -2.416   0.795  -0.601  0.00  0.00    -0.491 OA
ENDBRANCH  19  26
BRANCH  24  27
ATOM     27  O   UNL     1      -2.524   3.542  -0.750  0.00  0.00    -0.488 OA
ATOM     28  C   UNL     1      -3.031   3.772  -2.066  0.00  0.00    +0.277 C 
ENDBRANCH  24  27
BRANCH  23  29
ATOM     29  O   UNL     1      -0.194   5.008  -0.709  0.00  0.00    -0.491 OA
ATOM     30  C   UNL     1       1.054   5.704  -0.682  0.00  0.00    +0.277 C 
ENDBRANCH  23  29
ENDBRANCH   1  21
BRANCH   5  31
ATOM     31  C   UNL     1       7.592   0.720  -0.595  0.00  0.00    -0.023 A 
ATOM     32  C   UNL     1       8.247   0.534  -1.799  0.00  0.00    +0.006 A 
ATOM     33  C   UNL     1       9.175   1.458  -2.233  0.00  0.00    +0.015 A 
ATOM     34  C   UNL     1       9.462   2.576  -1.448  0.00  0.00    +0.059 A 
ATOM     35  C   UNL     1       8.801   2.755  -0.231  0.00  0.00    +0.015 A 
ATOM     36  C   UNL     1       7.871   1.826   0.188  0.00  0.00    +0.006 A 
BRANCH  34  37
ATOM     37  C   UNL     1      10.460   3.566  -1.903  0.00  0.00    +0.339 C 
ATOM     38  O   UNL     1      10.707   4.538  -1.218  0.00  0.00    -0.245 OA
BRANCH  37  39
ATOM     39  O   UNL     1      11.095   3.390  -3.078  0.00  0.00    -0.464 OA
ATOM     40  C   UNL     1      12.063   4.403  -3.461  0.00  0.00    +0.280 C 
ENDBRANCH  37  39
ENDBRANCH  34  37
ENDBRANCH   5  31
TORSDOF 7
