REMARK  Name = ZINC39631629
REMARK  12 active torsions:
REMARK  status: ('A' for Active; 'I' for Inactive)
REMARK    1  A    between atoms: C_1  and  C_2
REMARK    2  A    between atoms: C_4  and  C_9
REMARK    3  A    between atoms: C_13  and  C_22
REMARK    4  A    between atoms: N_24  and  C_25
REMARK    5  A    between atoms: C_25  and  C_27
REMARK    6  A    between atoms: C_25  and  C_28
REMARK    7  A    between atoms: C_28  and  C_29
REMARK    8  A    between atoms: C_29  and  C_30
REMARK    9  A    between atoms: C_30  and  C_31
REMARK   10  A    between atoms: C_31  and  C_32
REMARK   11  A    between atoms: C_31  and  C_33
REMARK   12  A    between atoms: C_31  and  O_34
REMARK                            x       y       z     vdW  Elec       q    Type
REMARK                         _______ _______ _______ _____ _____    ______ ____
ROOT
ATOM      1  C   UNL     1       0.027  -2.817  -2.480  0.00  0.00    +0.247 C 
ATOM      2  O   UNL     1      -0.095  -2.213  -3.528  0.00  0.00    -0.270 OA
ATOM      3  N   UNL     1       0.148  -4.159  -2.487  0.00  0.00    -0.296 N 
ATOM      4  C   UNL     1       0.176  -5.074  -1.321  0.00  0.00    +0.121 C 
ATOM      5  C   UNL     1      -0.645  -6.304  -1.770  0.00  0.00    +0.100 C 
ATOM      6  C   UNL     1      -0.569  -6.286  -3.306  0.00  0.00    -0.004 C 
ATOM      7  C   UNL     1       0.276  -5.054  -3.661  0.00  0.00    +0.115 C 
ATOM      8  C   UNL     1      -1.967  -6.149  -3.902  0.00  0.00    -0.010 C 
ATOM      9  C   UNL     1      -1.872  -6.191  -5.430  0.00  0.00    -0.082 C 
ATOM     10  N   UNL     1      -1.262  -7.458  -5.849  0.00  0.00    +0.379 N 
ATOM     11  C   UNL     1       0.116  -7.541  -5.349  0.00  0.00    -0.082 C 
ATOM     12  C   UNL     1       0.105  -7.556  -3.817  0.00  0.00    -0.010 C 
ATOM     13  H   UNL     1      -1.799  -8.228  -5.479  0.00  0.00    -0.086 HD
ATOM     14  H   UNL     1      -1.255  -7.510  -6.857  0.00  0.00    -0.086 HD
ENDROOT
BRANCH   1  18
ATOM     15  C   UNL     1      -1.214   1.205   0.199  0.00  0.00    +0.045 C 
ATOM     16  C   UNL     1      -0.554  -0.146   0.094  0.00  0.00    -0.036 A 
ATOM     17  C   UNL     1      -0.571  -0.829  -1.104  0.00  0.00    +0.017 A 
ATOM     18  C   UNL     1       0.041  -2.079  -1.199  0.00  0.00    +0.037 A 
ATOM     19  C   UNL     1       0.667  -2.632  -0.080  0.00  0.00    +0.014 A 
ATOM     20  C   UNL     1       0.677  -1.939   1.112  0.00  0.00    +0.016 A 
ATOM     21  C   UNL     1       0.073  -0.696   1.199  0.00  0.00    +0.021 A 
ATOM     22 BR   UNL     1       0.098   0.251   2.836  0.00  0.00    -0.050 Br
ENDBRANCH   1  18
BRANCH   5  23
ATOM     23  C   UNL     1      -0.033  -7.570  -1.227  0.00  0.00    +0.218 C 
ATOM     24  O   UNL     1       1.148  -7.603  -0.952  0.00  0.00    -0.275 OA
ATOM     25  N   UNL     1      -0.798  -8.664  -1.047  0.00  0.00    -0.312 N 
ATOM     26  H   UNL     1      -1.742  -8.638  -1.267  0.00  0.00    +0.149 HD
BRANCH  25  27
ATOM     27  C   UNL     1      -0.203  -9.895  -0.519  0.00  0.00    +0.070 C 
ATOM     28  C   UNL     1      -0.184  -9.837   1.010  0.00  0.00    +0.028 C 
BRANCH  27  29
ATOM     29  C   UNL     1      -1.033 -11.098  -0.973  0.00  0.00    +0.022 C 
BRANCH  29  30
ATOM     30  C   UNL     1      -0.950 -11.229  -2.495  0.00  0.00    +0.005 C 
BRANCH  30  31
ATOM     31  C   UNL     1      -1.779 -12.432  -2.950  0.00  0.00    +0.034 C 
BRANCH  31  32
ATOM     32  C   UNL     1      -1.696 -12.563  -4.472  0.00  0.00    +0.061 C 
ATOM     33  C   UNL     1      -2.623 -13.687  -4.938  0.00  0.00    +0.041 C 
ATOM     34  C   UNL     1      -2.126 -11.246  -5.121  0.00  0.00    +0.041 C 
BRANCH  32  35
ATOM     35  O   UNL     1      -0.352 -12.865  -4.851  0.00  0.00    -0.389 OA
ATOM     36  H   UNL     1      -0.226 -12.963  -5.805  0.00  0.00    +0.210 HD
ENDBRANCH  32  35
ENDBRANCH  31  32
ENDBRANCH  30  31
ENDBRANCH  29  30
ENDBRANCH  27  29
ENDBRANCH  25  27
ENDBRANCH   5  23
TORSDOF 8
