REMARK  Name = ZINC17091295
REMARK  10 active torsions:
REMARK  status: ('A' for Active; 'I' for Inactive)
REMARK    1  A    between atoms: C_1  and  C_2
REMARK    2  A    between atoms: C_2  and  C_28
REMARK    3  A    between atoms: C_4  and  N_10
REMARK    4  A    between atoms: C_6  and  C_8
REMARK    5  A    between atoms: C_6  and  C_9
REMARK    6  A    between atoms: N_10  and  C_11
REMARK    7  A    between atoms: C_11  and  N_13
REMARK    8  A    between atoms: N_13  and  C_14
REMARK    9  A    between atoms: C_19  and  O_20
REMARK   10  A    between atoms: O_20  and  C_21
REMARK                            x       y       z     vdW  Elec       q    Type
REMARK                         _______ _______ _______ _____ _____    ______ ____
ROOT
ATOM      1  C   UNL     1       3.338   0.102  -3.399  0.00  0.00    +0.135 C 
ATOM      2  S   UNL     1       3.766   1.671  -2.863  0.00  0.00    -0.019 S 
ENDROOT
BRANCH   1   3
ATOM      3  N   UNL     1       2.228  -0.494  -2.919  0.00  0.00    -0.324 N 
ATOM      4  H   UNL     1       1.985  -1.383  -3.222  0.00  0.00    +0.148 HD
BRANCH   3   8
ATOM      5  C   UNL     1      -1.249   1.770  -1.443  0.00  0.00    -0.010 C 
ATOM      6  C   UNL     1      -0.929   0.343  -0.988  0.00  0.00    -0.072 C 
ATOM      7  C   UNL     1      -0.040  -0.341  -2.020  0.00  0.00    +0.009 C 
ATOM      8  C   UNL     1       1.387   0.202  -1.937  0.00  0.00    +0.069 C 
ATOM      9  C   UNL     1       1.921  -0.074  -0.531  0.00  0.00    +0.009 C 
ATOM     10  C   UNL     1       1.045   0.612   0.513  0.00  0.00    -0.072 C 
ATOM     11  N   UNL     1      -0.370   0.330   0.353  0.00  0.00    +0.386 N 
ATOM     12  C   UNL     1       1.317   2.120   0.508  0.00  0.00    -0.010 C 
ATOM     13  C   UNL     1       1.477   0.078   1.899  0.00  0.00    -0.010 C 
ATOM     14  C   UNL     1      -2.268  -0.430  -0.947  0.00  0.00    -0.010 C 
ATOM     15  H   UNL     1      -0.897   0.995   0.927  0.00  0.00    -0.084 HD
ATOM     16  H   UNL     1      -0.564  -0.586   0.771  0.00  0.00    -0.084 HD
ENDBRANCH   3   8
ENDBRANCH   1   3
BRANCH   1  17
ATOM     17  N   UNL     1       4.110  -0.536  -4.300  0.00  0.00    -0.294 N 
ATOM     18  H   UNL     1       3.909  -1.453  -4.547  0.00  0.00    +0.154 HD
BRANCH  17  19
ATOM     19  C   UNL     1       5.201   0.123  -4.880  0.00  0.00    +0.077 A 
ATOM     20  C   UNL     1       6.096   0.820  -4.081  0.00  0.00    +0.047 A 
ATOM     21  C   UNL     1       7.173   1.470  -4.656  0.00  0.00    +0.043 A 
ATOM     22  C   UNL     1       7.361   1.426  -6.026  0.00  0.00    +0.024 A 
ATOM     23  C   UNL     1       6.473   0.733  -6.827  0.00  0.00    +0.049 A 
ATOM     24  C   UNL     1       5.394   0.075  -6.258  0.00  0.00    +0.150 A 
ATOM     25 CL   UNL     1       8.293   2.342  -3.656  0.00  0.00    -0.083 Cl
BRANCH  24  26
ATOM     26  O   UNL     1       4.523  -0.612  -7.045  0.00  0.00    -0.454 OA
BRANCH  26  27
ATOM     27  C   UNL     1       4.725  -0.592  -8.389  0.00  0.00    +0.129 A 
ATOM     28  C   UNL     1       5.715  -1.382  -8.955  0.00  0.00    +0.046 A 
ATOM     29  C   UNL     1       5.918  -1.360 -10.321  0.00  0.00    +0.004 A 
ATOM     30  C   UNL     1       5.135  -0.551 -11.124  0.00  0.00    +0.000 A 
ATOM     31  C   UNL     1       4.148   0.237 -10.563  0.00  0.00    +0.004 A 
ATOM     32  C   UNL     1       3.937   0.214  -9.198  0.00  0.00    +0.046 A 
ENDBRANCH  26  27
ENDBRANCH  24  26
ENDBRANCH  17  19
ENDBRANCH   1  17
TORSDOF 6
