REMARK  Name = ZINC64013616
REMARK  7 active torsions:
REMARK  status: ('A' for Active; 'I' for Inactive)
REMARK    1  A    between atoms: C_1  and  C_2
REMARK    2  A    between atoms: C_2  and  O_3
REMARK    3  A    between atoms: O_3  and  C_4
REMARK    4  A    between atoms: N_11  and  C_14
REMARK    5  A    between atoms: C_14  and  C_15
REMARK    6  A    between atoms: N_17  and  C_18
REMARK    7  A    between atoms: C_23  and  C_24
REMARK                            x       y       z     vdW  Elec       q    Type
REMARK                         _______ _______ _______ _____ _____    ______ ____
ROOT
ATOM      1  C   UNL     1      -5.696  -6.316  -0.277  0.00  0.00    +0.019 C 
ENDROOT
BRANCH   1   9
ATOM      2  C   UNL     1      -1.487  -1.896   0.035  0.00  0.00    +0.121 A 
ATOM      3  C   UNL     1      -0.380  -2.731   0.012  0.00  0.00    +0.046 A 
ATOM      4  C   UNL     1      -0.554  -4.100  -0.012  0.00  0.00    +0.007 A 
ATOM      5  C   UNL     1      -1.829  -4.644  -0.012  0.00  0.00    -0.048 A 
ATOM      6  C   UNL     1      -2.932  -3.817   0.013  0.00  0.00    -0.057 A 
ATOM      7  C   UNL     1      -2.760  -2.441   0.040  0.00  0.00    +0.047 A 
ATOM      8  C   UNL     1      -4.335  -4.366   0.023  0.00  0.00    -0.042 C 
ATOM      9  N   UNL     1      -4.346  -5.758  -0.436  0.00  0.00    +0.388 N 
ATOM     10  C   UNL     1      -3.393  -6.536   0.369  0.00  0.00    -0.073 C 
ATOM     11  C   UNL     1      -1.974  -6.144  -0.043  0.00  0.00    +0.017 C 
ATOM     12  H   UNL     1      -4.077  -5.795  -1.408  0.00  0.00    -0.081 HD
BRANCH   2  13
ATOM     13  O   UNL     1      -1.323  -0.547   0.057  0.00  0.00    -0.492 OA
BRANCH  13  15
ATOM     14  C   UNL     1       0.003   1.473   0.078  0.00  0.00    +0.048 C 
ATOM     15  C   UNL     1       0.019  -0.056   0.050  0.00  0.00    +0.225 C 
ENDBRANCH  13  15
ENDBRANCH   2  13
ENDBRANCH   1   9
BRANCH   1  16
ATOM     16  C   UNL     1      -6.651  -5.589  -1.187  0.00  0.00    +0.201 C 
ATOM     17  O   UNL     1      -6.248  -4.693  -1.899  0.00  0.00    -0.278 OA
ATOM     18  N   UNL     1      -7.954  -5.934  -1.211  0.00  0.00    -0.286 N 
ATOM     19  H   UNL     1      -8.265  -6.692  -0.692  0.00  0.00    +0.155 HD
BRANCH  18  20
ATOM     20  C   UNL     1      -8.854  -5.201  -1.981  0.00  0.00    +0.045 A 
ATOM     21  C   UNL     1      -8.457  -4.665  -3.198  0.00  0.00    +0.024 A 
ATOM     22  C   UNL     1      -9.350  -3.939  -3.960  0.00  0.00    +0.002 A 
ATOM     23  C   UNL     1     -10.648  -3.740  -3.517  0.00  0.00    +0.001 A 
ATOM     24  C   UNL     1     -11.061  -4.265  -2.312  0.00  0.00    +0.015 A 
ATOM     25  C   UNL     1     -10.169  -5.006  -1.533  0.00  0.00    +0.058 A 
BRANCH  25  26
ATOM     26  C   UNL     1     -10.606  -5.576  -0.244  0.00  0.00    +0.243 C 
ATOM     27  O   UNL     1      -9.802  -6.133   0.478  0.00  0.00    -0.270 OA
ATOM     28  N   UNL     1     -11.897  -5.479   0.132  0.00  0.00    -0.325 N 
ATOM     29  H   UNL     1     -12.538  -5.035  -0.444  0.00  0.00    +0.145 HD
ATOM     30  H   UNL     1     -12.184  -5.854   0.980  0.00  0.00    +0.145 HD
ENDBRANCH  25  26
ENDBRANCH  18  20
ENDBRANCH   1  16
TORSDOF 6
