REMARK  Name = ZINC15037833
REMARK  8 active torsions:
REMARK  status: ('A' for Active; 'I' for Inactive)
REMARK    1  A    between atoms: C_1  and  C_2
REMARK    2  A    between atoms: C_2  and  C_4
REMARK    3  A    between atoms: C_2  and  N_44
REMARK    4  A    between atoms: N_6  and  C_7
REMARK    5  A    between atoms: C_14  and  N_44
REMARK    6  A    between atoms: C_15  and  C_16
REMARK    7  A    between atoms: C_15  and  N_44
REMARK    8  A    between atoms: N_18  and  C_19
REMARK                            x       y       z     vdW  Elec       q    Type
REMARK                         _______ _______ _______ _____ _____    ______ ____
ROOT
ATOM      1  C   UNL     1      -2.964  -5.327   2.175  0.00  0.00    -0.094 C 
ATOM      2  N   UNL     1      -2.811  -4.622   0.885  0.00  0.00    +0.391 N 
ATOM      3  H   UNL     1      -1.848  -4.744   0.551  0.00  0.00    -0.080 HD
ENDROOT
BRANCH   2   5
ATOM      4  C   UNL     1      -4.431  -2.966   1.746  0.00  0.00    -0.004 C 
ATOM      5  C   UNL     1      -3.080  -3.180   1.062  0.00  0.00    +0.017 C 
BRANCH   5   6
ATOM      6  C   UNL     1      -1.987  -2.583   1.911  0.00  0.00    +0.203 C 
ATOM      7  O   UNL     1      -1.095  -3.287   2.334  0.00  0.00    -0.277 OA
ATOM      8  N   UNL     1      -2.001  -1.266   2.200  0.00  0.00    -0.286 N 
ATOM      9  H   UNL     1      -2.750  -0.717   1.921  0.00  0.00    +0.155 HD
BRANCH   8  10
ATOM     10  C   UNL     1      -0.935  -0.692   2.902  0.00  0.00    +0.052 A 
ATOM     11  C   UNL     1      -0.195  -1.459   3.792  0.00  0.00    +0.025 A 
ATOM     12  C   UNL     1       0.857  -0.890   4.483  0.00  0.00    +0.002 A 
ATOM     13  C   UNL     1       1.173   0.442   4.290  0.00  0.00    +0.002 A 
ATOM     14  C   UNL     1       0.438   1.210   3.406  0.00  0.00    +0.022 A 
ATOM     15  C   UNL     1      -0.616   0.646   2.711  0.00  0.00    +0.062 A 
ATOM     16 CL   UNL     1      -1.534   1.608   1.595  0.00  0.00    -0.082 Cl
ENDBRANCH   8  10
ENDBRANCH   5   6
ENDBRANCH   2   5
BRANCH   2  17
ATOM     17  C   UNL     1      -3.741  -5.190  -0.114  0.00  0.00    +0.020 C 
BRANCH  17  18
ATOM     18  C   UNL     1      -3.307  -6.597  -0.438  0.00  0.00    +0.201 C 
ATOM     19  O   UNL     1      -2.341  -7.076   0.117  0.00  0.00    -0.278 OA
ATOM     20  N   UNL     1      -3.992  -7.322  -1.343  0.00  0.00    -0.285 N 
ATOM     21  H   UNL     1      -4.714  -6.913  -1.846  0.00  0.00    +0.155 HD
BRANCH  20  22
ATOM     22  C   UNL     1      -3.662  -8.666  -1.559  0.00  0.00    +0.070 A 
ATOM     23  C   UNL     1      -2.348  -9.025  -1.834  0.00  0.00    +0.064 A 
ATOM     24  C   UNL     1      -2.026 -10.353  -2.042  0.00  0.00    +0.022 A 
ATOM     25  C   UNL     1      -3.010 -11.322  -1.986  0.00  0.00    +0.003 A 
ATOM     26  C   UNL     1      -4.319 -10.968  -1.718  0.00  0.00    +0.022 A 
ATOM     27  C   UNL     1      -4.649  -9.643  -1.504  0.00  0.00    +0.064 A 
ATOM     28 CL   UNL     1      -6.293  -9.199  -1.169  0.00  0.00    -0.082 Cl
ATOM     29 CL   UNL     1      -1.113  -7.808  -1.910  0.00  0.00    -0.082 Cl
ENDBRANCH  20  22
ENDBRANCH  17  18
ENDBRANCH   2  17
TORSDOF 6
