REMARK  Name = ZINC45125107
REMARK  12 active torsions:
REMARK  status: ('A' for Active; 'I' for Inactive)
REMARK    1  A    between atoms: C_1  and  C_2
REMARK    2  A    between atoms: C_2  and  C_4
REMARK    3  A    between atoms: C_2  and  N_14
REMARK    4  A    between atoms: C_8  and  S_10
REMARK    5  A    between atoms: S_10  and  N_13
REMARK    6  A    between atoms: N_17  and  C_18
REMARK    7  A    between atoms: C_18  and  C_19
REMARK    8  A    between atoms: C_19  and  C_20
REMARK    9  A    between atoms: C_20  and  N_21
REMARK   10  A    between atoms: N_21  and  C_22
REMARK   11  A    between atoms: N_21  and  C_23
REMARK   12  A    between atoms: C_23  and  C_24
REMARK                            x       y       z     vdW  Elec       q    Type
REMARK                         _______ _______ _______ _____ _____    ______ ____
ROOT
ATOM      1  N   UNL     1       0.708   0.596  -1.844  0.00  0.00    -0.293 N 
ATOM      2  C   UNL     1       1.979   0.174  -1.692  0.00  0.00    +0.300 C 
ATOM      3  O   UNL     1       2.492   0.173  -0.590  0.00  0.00    -0.253 OA
ATOM      4  N   UNL     1       2.682  -0.247  -2.762  0.00  0.00    -0.299 N 
ATOM      5  H   UNL     1       0.299   0.596  -2.724  0.00  0.00    +0.151 HD
ATOM      6  H   UNL     1       2.273  -0.246  -3.642  0.00  0.00    +0.150 HD
ENDROOT
BRANCH   1   8
ATOM      7  C   UNL     1       0.248   2.530  -0.420  0.00  0.00    +0.033 C 
ATOM      8  C   UNL     1      -0.056   1.053  -0.681  0.00  0.00    +0.102 C 
BRANCH   8   9
ATOM      9  C   UNL     1      -1.529   0.883  -0.949  0.00  0.00    -0.026 A 
ATOM     10  C   UNL     1      -2.041   1.169  -2.201  0.00  0.00    +0.005 A 
ATOM     11  C   UNL     1      -3.392   1.013  -2.447  0.00  0.00    +0.002 A 
ATOM     12  C   UNL     1      -4.232   0.571  -1.441  0.00  0.00    +0.028 A 
ATOM     13  C   UNL     1      -3.719   0.284  -0.190  0.00  0.00    +0.105 A 
ATOM     14  C   UNL     1      -2.367   0.436   0.055  0.00  0.00    +0.034 A 
BRANCH  13  15
ATOM     15  S   UNL     1      -4.789  -0.279   1.092  0.00  0.00    +0.056 S 
ATOM     16  O   UNL     1      -4.154   0.044   2.322  0.00  0.00    -0.153 OA
ATOM     17  O   UNL     1      -6.093   0.181   0.764  0.00  0.00    -0.153 OA
BRANCH  15  18
ATOM     18  N   UNL     1      -4.833  -1.932   1.002  0.00  0.00    -0.204 NA
ATOM     19  H   UNL     1      -4.319  -2.395   0.322  0.00  0.00    +0.144 HD
ATOM     20  H   UNL     1      -5.373  -2.437   1.630  0.00  0.00    +0.144 HD
ENDBRANCH  15  18
ENDBRANCH  13  15
ENDBRANCH   8   9
ENDBRANCH   1   8
BRANCH   4  21
ATOM     21  C   UNL     1       4.064  -0.705  -2.597  0.00  0.00    +0.104 C 
BRANCH  21  22
ATOM     22  C   UNL     1       4.628  -1.124  -3.956  0.00  0.00    +0.000 C 
BRANCH  22  23
ATOM     23  C   UNL     1       6.071  -1.603  -3.784  0.00  0.00    -0.077 C 
BRANCH  23  24
ATOM     24  N   UNL     1       6.613  -2.005  -5.089  0.00  0.00    +0.384 N 
ATOM     25  C   UNL     1       5.873  -3.172  -5.587  0.00  0.00    -0.096 C 
ATOM     26  H   UNL     1       6.517  -1.242  -5.742  0.00  0.00    -0.082 HD
BRANCH  24  27
ATOM     27  C   UNL     1       8.033  -2.351  -4.944  0.00  0.00    +0.036 C 
BRANCH  27  28
ATOM     28  C   UNL     1       8.623  -2.672  -6.318  0.00  0.00    +0.376 C 
ATOM     29  F   UNL     1       8.362  -1.614  -7.196  0.00  0.00    -0.173 F 
ATOM     30  F   UNL     1      10.005  -2.852  -6.202  0.00  0.00    -0.173 F 
ATOM     31  F   UNL     1       8.040  -3.843  -6.814  0.00  0.00    -0.173 F 
ENDBRANCH  27  28
ENDBRANCH  24  27
ENDBRANCH  23  24
ENDBRANCH  22  23
ENDBRANCH  21  22
ENDBRANCH   4  21
TORSDOF 10
