REMARK  Name = ZINC66854327
REMARK  11 active torsions:
REMARK  status: ('A' for Active; 'I' for Inactive)
REMARK    1  A    between atoms: C_1  and  C_2
REMARK    2  A    between atoms: C_2  and  C_4
REMARK    3  A    between atoms: C_2  and  C_22
REMARK    4  A    between atoms: C_4  and  N_5
REMARK    5  A    between atoms: N_5  and  C_6
REMARK    6  A    between atoms: N_5  and  C_7
REMARK    7  A    between atoms: C_7  and  C_8
REMARK    8  A    between atoms: N_10  and  C_11
REMARK    9  A    between atoms: C_11  and  C_12
REMARK   10  A    between atoms: C_15  and  S_18
REMARK   11  A    between atoms: S_18  and  N_21
REMARK                            x       y       z     vdW  Elec       q    Type
REMARK                         _______ _______ _______ _____ _____    ______ ____
ROOT
ATOM      1  C   UNL     1      -4.109  -0.136   2.598  0.00  0.00    +0.197 C 
ATOM      2  O   UNL     1      -3.502   0.574   3.372  0.00  0.00    -0.278 OA
ATOM      3  N   UNL     1      -5.346  -0.569   2.910  0.00  0.00    -0.313 N 
ATOM      4  H   UNL     1      -5.831  -1.137   2.291  0.00  0.00    +0.149 HD
ENDROOT
BRANCH   1   5
ATOM      5  C   UNL     1      -3.479  -0.534   1.288  0.00  0.00    +0.018 C 
BRANCH   5   6
ATOM      6  N   UNL     1      -2.140   0.062   1.188  0.00  0.00    +0.384 N 
ATOM      7  C   UNL     1      -2.258   1.526   1.134  0.00  0.00    -0.096 C 
ATOM      8  H   UNL     1      -1.593  -0.201   1.994  0.00  0.00    -0.082 HD
BRANCH   6   9
ATOM      9  C   UNL     1      -1.479  -0.421  -0.032  0.00  0.00    -0.071 C 
BRANCH   9  11
ATOM     10  C   UNL     1       0.616  -0.316  -1.389  0.00  0.00    +0.010 C 
ATOM     11  C   UNL     1      -0.035   0.084  -0.064  0.00  0.00    -0.001 C 
BRANCH  11  12
ATOM     12  C   UNL     1       0.736  -0.526   1.078  0.00  0.00    -0.046 A 
ATOM     13  C   UNL     1       0.870  -1.899   1.167  0.00  0.00    +0.004 A 
ATOM     14  C   UNL     1       1.577  -2.458   2.215  0.00  0.00    +0.000 A 
ATOM     15  C   UNL     1       2.151  -1.645   3.174  0.00  0.00    +0.000 A 
ATOM     16  C   UNL     1       2.018  -0.272   3.084  0.00  0.00    +0.000 A 
ATOM     17  C   UNL     1       1.315   0.288   2.034  0.00  0.00    +0.004 A 
ENDBRANCH  11  12
ENDBRANCH   9  11
ENDBRANCH   6   9
ENDBRANCH   5   6
ENDBRANCH   1   5
BRANCH   3  18
ATOM     18  C   UNL     1      -5.959  -0.182   4.183  0.00  0.00    +0.139 C 
BRANCH  18  19
ATOM     19  C   UNL     1      -7.332  -0.793   4.286  0.00  0.00    -0.030 A 
ATOM     20  C   UNL     1      -8.432  -0.106   3.807  0.00  0.00    +0.007 A 
ATOM     21  C   UNL     1      -9.692  -0.667   3.901  0.00  0.00    +0.029 A 
ATOM     22  C   UNL     1      -9.852  -1.915   4.474  0.00  0.00    +0.105 A 
ATOM     23  C   UNL     1      -8.752  -2.602   4.952  0.00  0.00    +0.029 A 
ATOM     24  C   UNL     1      -7.492  -2.043   4.854  0.00  0.00    +0.007 A 
BRANCH  22  25
ATOM     25  S   UNL     1     -11.458  -2.629   4.596  0.00  0.00    +0.056 S 
ATOM     26  O   UNL     1     -11.407  -3.565   5.664  0.00  0.00    -0.153 OA
ATOM     27  O   UNL     1     -12.385  -1.552   4.571  0.00  0.00    -0.153 OA
BRANCH  25  28
ATOM     28  N   UNL     1     -11.711  -3.503   3.212  0.00  0.00    -0.204 NA
ATOM     29  H   UNL     1     -12.280  -4.289   3.232  0.00  0.00    +0.144 HD
ATOM     30  H   UNL     1     -11.291  -3.230   2.382  0.00  0.00    +0.144 HD
ENDBRANCH  25  28
ENDBRANCH  22  25
ENDBRANCH  18  19
ENDBRANCH   3  18
TORSDOF 9
