REMARK  Name = ZINC12592929
REMARK  11 active torsions:
REMARK  status: ('A' for Active; 'I' for Inactive)
REMARK    1  A    between atoms: C_1  and  C_2
REMARK    2  A    between atoms: C_4  and  N_9
REMARK    3  A    between atoms: C_10  and  C_12
REMARK    4  A    between atoms: C_12  and  S_13
REMARK    5  A    between atoms: S_13  and  C_14
REMARK    6  A    between atoms: C_17  and  C_26
REMARK    7  A    between atoms: N_18  and  C_19
REMARK    8  A    between atoms: C_26  and  C_28
REMARK    9  A    between atoms: C_26  and  N_53
REMARK   10  A    between atoms: C_29  and  N_53
REMARK   11  A    between atoms: C_30  and  N_53
REMARK                            x       y       z     vdW  Elec       q    Type
REMARK                         _______ _______ _______ _____ _____    ______ ____
ROOT
ATOM      1  C   UNL     1       1.274  -0.461   0.344  0.00  0.00    +0.197 A 
ATOM      2  N   UNL     1       0.049  -0.015   0.187  0.00  0.00    -0.122 NA
ATOM      3  N   UNL     1       0.044   1.270   0.213  0.00  0.00    -0.135 NA
ATOM      4  C   UNL     1       1.255   1.720   0.385  0.00  0.00    +0.125 A 
ATOM      5  N   UNL     1       2.084   0.633   0.475  0.00  0.00    -0.275 N 
ENDROOT
BRANCH   5   6
ATOM      6  C   UNL     1       3.474   0.641   0.664  0.00  0.00    +0.050 A 
ATOM      7  C   UNL     1       4.013   1.136   1.843  0.00  0.00    +0.029 A 
ATOM      8  C   UNL     1       5.382   1.137   2.029  0.00  0.00    +0.040 A 
ATOM      9  C   UNL     1       6.217   0.655   1.035  0.00  0.00    +0.124 A 
ATOM     10  C   UNL     1       5.681   0.166  -0.145  0.00  0.00    +0.040 A 
ATOM     11  C   UNL     1       4.313   0.158  -0.332  0.00  0.00    +0.029 A 
ATOM     12  F   UNL     1       7.556   0.662   1.216  0.00  0.00    -0.205 F 
ENDBRANCH   5   6
BRANCH   4  13
ATOM     13  C   UNL     1       1.667   3.167   0.470  0.00  0.00    -0.003 C 
ATOM     14  C   UNL     1       1.637   3.789  -0.927  0.00  0.00    -0.005 C 
BRANCH  13  17
ATOM     15  C   UNL     1       0.669   3.262   2.675  0.00  0.00    -0.096 C 
ATOM     16  C   UNL     1       1.109   5.307   1.455  0.00  0.00    -0.096 C 
ATOM     17  N   UNL     1       0.711   3.889   1.336  0.00  0.00    +0.382 N 
ATOM     18  H   UNL     1      -0.224   3.839   0.915  0.00  0.00    -0.082 HD
ENDBRANCH  13  17
ENDBRANCH   4  13
BRANCH   1  19
ATOM     19  S   UNL     1       1.778  -2.149   0.378  0.00  0.00    -0.076 S 
BRANCH  19  20
ATOM     20  C   UNL     1       0.176  -2.960   0.145  0.00  0.00    +0.173 C 
BRANCH  20  22
ATOM     21  N   UNL     1      -0.696  -5.269  -0.019  0.00  0.00    -0.285 N 
ATOM     22  C   UNL     1       0.366  -4.455   0.141  0.00  0.00    +0.227 C 
ATOM     23  O   UNL     1       1.475  -4.926   0.282  0.00  0.00    -0.275 OA
ATOM     24  H   UNL     1      -1.591  -4.896  -0.055  0.00  0.00    +0.155 HD
BRANCH  21  28
ATOM     25  C   UNL     1      -2.303  -9.841   0.805  0.00  0.00    +0.045 C 
ATOM     26  C   UNL     1      -1.271  -8.890   0.257  0.00  0.00    -0.035 A 
ATOM     27  C   UNL     1      -1.459  -7.527   0.372  0.00  0.00    +0.027 A 
ATOM     28  C   UNL     1      -0.507  -6.651  -0.134  0.00  0.00    +0.034 A 
ATOM     29  C   UNL     1       0.629  -7.149  -0.758  0.00  0.00    +0.024 A 
ATOM     30  C   UNL     1       0.815  -8.513  -0.865  0.00  0.00    +0.017 A 
ATOM     31  C   UNL     1      -0.135  -9.383  -0.360  0.00  0.00    +0.021 A 
ATOM     32 BR   UNL     1       0.119 -11.251  -0.515  0.00  0.00    -0.050 Br
ENDBRANCH  21  28
ENDBRANCH  20  22
ENDBRANCH  19  20
ENDBRANCH   1  19
TORSDOF 7
