REMARK  Name = ZINC67614139
REMARK  7 active torsions:
REMARK  status: ('A' for Active; 'I' for Inactive)
REMARK    1  A    between atoms: C_4  and  N_7
REMARK    2  A    between atoms: N_7  and  C_8
REMARK    3  A    between atoms: C_8  and  C_9
REMARK    4  A    between atoms: C_9  and  C_10
REMARK    5  A    between atoms: C_10  and  N_11
REMARK    6  A    between atoms: N_14  and  C_15
REMARK    7  A    between atoms: C_15  and  C_16
REMARK                            x       y       z     vdW  Elec       q    Type
REMARK                         _______ _______ _______ _____ _____    ______ ____
ROOT
ATOM      1  N   UNL     1       6.437  -4.688  -0.054  0.00  0.00    -0.299 N 
ATOM      2  C   UNL     1       6.727  -6.004  -0.078  0.00  0.00    +0.300 C 
ATOM      3  O   UNL     1       5.830  -6.824  -0.084  0.00  0.00    -0.253 OA
ATOM      4  N   UNL     1       8.012  -6.410  -0.096  0.00  0.00    -0.295 N 
ATOM      5  H   UNL     1       7.152  -4.034  -0.049  0.00  0.00    +0.150 HD
ATOM      6  H   UNL     1       8.728  -5.756  -0.091  0.00  0.00    +0.151 HD
ENDROOT
BRANCH   1   7
ATOM      7  C   UNL     1       5.040  -4.246  -0.035  0.00  0.00    +0.107 C 
BRANCH   7   8
ATOM      8  C   UNL     1       4.989  -2.717  -0.009  0.00  0.00    +0.037 C 
BRANCH   8   9
ATOM      9  C   UNL     1       3.530  -2.256   0.010  0.00  0.00    +0.103 C 
BRANCH   9  10
ATOM     10  N   UNL     1       3.482  -0.792   0.035  0.00  0.00    -0.344 N 
ATOM     11  H   UNL     1       4.305  -0.279   0.037  0.00  0.00    +0.146 HD
BRANCH  10  15
ATOM     12  C   UNL     1      -0.192   1.168   0.097  0.00  0.00    +0.000 A 
ATOM     13  C   UNL     1       0.981   1.900   0.100  0.00  0.00    +0.002 A 
ATOM     14  C   UNL     1       2.201   1.254   0.080  0.00  0.00    +0.023 A 
ATOM     15  C   UNL     1       2.249  -0.135   0.056  0.00  0.00    +0.027 A 
ATOM     16  C   UNL     1       1.069  -0.867   0.053  0.00  0.00    +0.023 A 
ATOM     17  C   UNL     1      -0.147  -0.214   0.074  0.00  0.00    +0.002 A 
ENDBRANCH  10  15
ENDBRANCH   9  10
ENDBRANCH   8   9
ENDBRANCH   7   8
ENDBRANCH   1   7
BRANCH   4  18
ATOM     18  C   UNL     1       8.327  -7.841  -0.122  0.00  0.00    +0.141 C 
BRANCH  18  19
ATOM     19  C   UNL     1       9.823  -8.025  -0.137  0.00  0.00    -0.026 A 
ATOM     20  C   UNL     1      10.518  -8.086  -1.338  0.00  0.00    +0.023 A 
ATOM     21  C   UNL     1      11.888  -8.255  -1.318  0.00  0.00    +0.084 A 
ATOM     22  N   UNL     1      12.541  -8.359  -0.176  0.00  0.00    -0.350 N 
ATOM     23  C   UNL     1      11.914  -8.306   0.989  0.00  0.00    +0.099 A 
ATOM     24  C   UNL     1      10.535  -8.131   1.044  0.00  0.00    +0.047 A 
ATOM     25  N   UNL     1      12.641  -8.420   2.168  0.00  0.00    -0.317 N 
ATOM     26  C   UNL     1      14.077  -8.728   2.136  0.00  0.00    +0.106 C 
ATOM     27  C   UNL     1      14.828  -7.666   2.944  0.00  0.00    +0.019 C 
ATOM     28  C   UNL     1      14.234  -7.587   4.352  0.00  0.00    +0.003 C 
ATOM     29  C   UNL     1      12.762  -7.177   4.265  0.00  0.00    +0.019 C 
ATOM     30  C   UNL     1      11.989  -8.228   3.471  0.00  0.00    +0.106 C 
ATOM     31  H   UNL     1      13.504  -8.477  -0.190  0.00  0.00    +0.166 HD
ENDBRANCH  18  19
ENDBRANCH   4  18
TORSDOF 7
