REMARK  Name = ZINC40705087
REMARK  9 active torsions:
REMARK  status: ('A' for Active; 'I' for Inactive)
REMARK    1  A    between atoms: C_1  and  C_2
REMARK    2  A    between atoms: C_7  and  N_8
REMARK    3  A    between atoms: C_10  and  N_27
REMARK    4  A    between atoms: C_11  and  N_15
REMARK    5  A    between atoms: N_15  and  C_16
REMARK    6  A    between atoms: N_15  and  C_17
REMARK    7  A    between atoms: C_22  and  C_23
REMARK    8  A    between atoms: C_23  and  O_25
REMARK    9  A    between atoms: O_25  and  C_26
REMARK                            x       y       z     vdW  Elec       q    Type
REMARK                         _______ _______ _______ _____ _____    ______ ____
ROOT
ATOM      1  N   UNL     1      -0.030  -0.014   2.413  0.00  0.00    -0.299 N 
ATOM      2  C   UNL     1      -0.086  -0.715   3.612  0.00  0.00    +0.126 A 
ATOM      3  C   UNL     1      -0.192  -0.035   4.827  0.00  0.00    +0.104 A 
ATOM      4  C   UNL     1      -0.245  -0.788   6.001  0.00  0.00    +0.151 A 
ATOM      5  N   UNL     1      -0.193  -2.115   5.919  0.00  0.00    -0.220 NA
ATOM      6  C   UNL     1      -0.093  -2.718   4.752  0.00  0.00    +0.200 A 
ATOM      7  N   UNL     1      -0.045  -2.045   3.620  0.00  0.00    -0.333 N 
ATOM      8  H   UNL     1       0.010   0.955   2.419  0.00  0.00    +0.154 HD
ATOM      9  H   UNL     1       0.025  -2.526   2.780  0.00  0.00    +0.168 HD
ENDROOT
BRANCH   1  16
ATOM     10  C   UNL     1      -2.471  -1.182   1.536  0.00  0.00    +0.045 C 
ATOM     11  C   UNL     1      -1.201  -1.291   0.732  0.00  0.00    -0.029 A 
ATOM     12  C   UNL     1      -1.201  -1.968  -0.472  0.00  0.00    +0.006 A 
ATOM     13  C   UNL     1      -0.036  -2.070  -1.210  0.00  0.00    +0.020 A 
ATOM     14  C   UNL     1       1.133  -1.493  -0.746  0.00  0.00    +0.043 A 
ATOM     15  C   UNL     1       1.139  -0.813   0.458  0.00  0.00    +0.043 A 
ATOM     16  C   UNL     1      -0.031  -0.705   1.198  0.00  0.00    +0.037 A 
ATOM     17 CL   UNL     1       2.593  -1.623  -1.675  0.00  0.00    -0.083 Cl
ENDBRANCH   1  16
BRANCH   3  18
ATOM     18  N   UNL     1      -0.243   1.367   4.867  0.00  0.00    -0.353 N 
ATOM     19  H   UNL     1      -0.276   1.875   4.041  0.00  0.00    +0.143 HD
ATOM     20  H   UNL     1      -0.247   1.828   5.720  0.00  0.00    +0.143 HD
ENDBRANCH   3  18
BRANCH   4  21
ATOM     21  N   UNL     1      -0.350  -0.161   7.238  0.00  0.00    -0.286 N 
ATOM     22  C   UNL     1      -1.663   0.248   7.743  0.00  0.00    +0.137 C 
BRANCH  21  23
ATOM     23  C   UNL     1       0.790   0.079   7.995  0.00  0.00    +0.049 A 
ATOM     24  C   UNL     1       1.489   1.271   7.848  0.00  0.00    +0.024 A 
ATOM     25  C   UNL     1       2.621   1.506   8.601  0.00  0.00    +0.002 A 
ATOM     26  C   UNL     1       3.071   0.558   9.507  0.00  0.00    +0.001 A 
ATOM     27  C   UNL     1       2.392  -0.630   9.667  0.00  0.00    +0.017 A 
ATOM     28  C   UNL     1       1.240  -0.881   8.917  0.00  0.00    +0.080 A 
BRANCH  28  29
ATOM     29  C   UNL     1       0.506  -2.146   9.087  0.00  0.00    +0.341 C 
ATOM     30  O   UNL     1      -0.493  -2.363   8.429  0.00  0.00    -0.245 OA
BRANCH  29  31
ATOM     31  O   UNL     1       0.941  -3.064   9.973  0.00  0.00    -0.464 OA
ATOM     32  C   UNL     1       0.180  -4.269  10.086  0.00  0.00    +0.280 C 
ENDBRANCH  29  31
ENDBRANCH  28  29
ENDBRANCH  21  23
ENDBRANCH   4  21
TORSDOF 6
