REMARK  Name = ZINC23935736
REMARK  11 active torsions:
REMARK  status: ('A' for Active; 'I' for Inactive)
REMARK    1  A    between atoms: C_1  and  C_2
REMARK    2  A    between atoms: C_2  and  C_28
REMARK    3  A    between atoms: C_5  and  C_26
REMARK    4  A    between atoms: C_6  and  N_13
REMARK    5  A    between atoms: C_9  and  C_11
REMARK    6  A    between atoms: C_9  and  C_12
REMARK    7  A    between atoms: C_14  and  C_16
REMARK    8  A    between atoms: C_16  and  C_17
REMARK    9  A    between atoms: C_17  and  C_18
REMARK   10  A    between atoms: C_18  and  S_19
REMARK   11  A    between atoms: S_19  and  C_20
REMARK                            x       y       z     vdW  Elec       q    Type
REMARK                         _______ _______ _______ _____ _____    ______ ____
ROOT
ATOM      1  C   UNL     1      -0.623  -1.875  -2.229  0.00  0.00    -0.010 C 
ATOM      2  C   UNL     1      -0.840  -2.197  -0.748  0.00  0.00    -0.069 C 
ATOM      3  C   UNL     1      -1.219  -0.913  -0.002  0.00  0.00    +0.024 C 
ATOM      4  C   UNL     1       0.002  -0.004   0.002  0.00  0.00    -0.021 A 
ATOM      5  C   UNL     1      -0.018   1.443   0.010  0.00  0.00    +0.084 A 
ATOM      6  C   UNL     1       1.208   2.098   0.002  0.00  0.00    +0.090 A 
ATOM      7  S   UNL     1       2.353   0.798  -0.014  0.00  0.00    -0.078 S 
ATOM      8  C   UNL     1       1.232  -0.571  -0.007  0.00  0.00    -0.015 A 
ATOM      9  C   UNL     1       1.538  -2.033  -0.004  0.00  0.00    -0.041 C 
ATOM     10  N   UNL     1       0.333  -2.837  -0.175  0.00  0.00    +0.389 N 
ATOM     11  C   UNL     1       2.551  -2.344  -1.115  0.00  0.00    -0.005 C 
ATOM     12  C   UNL     1       2.191  -2.388   1.346  0.00  0.00    -0.005 C 
ATOM     13  C   UNL     1      -2.029  -3.171  -0.646  0.00  0.00    -0.010 C 
ATOM     14  H   UNL     1       0.093  -3.208   0.832  0.00  0.00    -0.084 HD
ATOM     15  H   UNL     1       0.640  -3.679  -0.812  0.00  0.00    -0.084 HD
ENDROOT
BRANCH   6  16
ATOM     16  N   UNL     1       1.452   3.464   0.006  0.00  0.00    -0.279 N 
ATOM     17  C   UNL     1       2.720   3.921  -0.004  0.00  0.00    +0.218 C 
ATOM     18  O   UNL     1       3.647   3.139  -0.016  0.00  0.00    -0.275 OA
ATOM     19  H   UNL     1       0.612   4.173   0.016  0.00  0.00    +0.155 HD
BRANCH  17  20
ATOM     20  C   UNL     1       2.986   5.405   0.000  0.00  0.00    +0.097 C 
BRANCH  20  21
ATOM     21  C   UNL     1       4.496   5.652  -0.012  0.00  0.00    +0.020 C 
BRANCH  21  22
ATOM     22  C   UNL     1       4.766   7.159  -0.008  0.00  0.00    +0.075 C 
BRANCH  22  23
ATOM     23  S   UNL     1       6.556   7.452  -0.023  0.00  0.00    -0.125 S 
BRANCH  23  24
ATOM     24  C   UNL     1       6.700   9.208  -0.017  0.00  0.00    +0.008 A 
ATOM     25  C   UNL     1       5.558  10.001  -0.009  0.00  0.00    +0.015 A 
ATOM     26  C   UNL     1       5.675  11.377   0.002  0.00  0.00    +0.001 A 
ATOM     27  C   UNL     1       6.926  11.966  -0.006  0.00  0.00    +0.000 A 
ATOM     28  C   UNL     1       8.064  11.181  -0.020  0.00  0.00    +0.001 A 
ATOM     29  C   UNL     1       7.955   9.804  -0.025  0.00  0.00    +0.015 A 
ENDBRANCH  23  24
ENDBRANCH  22  23
ENDBRANCH  21  22
ENDBRANCH  20  21
ENDBRANCH  17  20
ENDBRANCH   6  16
BRANCH   5  30
ATOM     30  C   UNL     1      -1.244   2.182   0.032  0.00  0.00    +0.102 C 
ATOM     31  N   UNL     1      -2.217   2.768   0.049  0.00  0.00    -0.191 NA
ENDBRANCH   5  30
TORSDOF 7
