REMARK  Name = ZINC16869728
REMARK  12 active torsions:
REMARK  status: ('A' for Active; 'I' for Inactive)
REMARK    1  A    between atoms: C_1  and  C_2
REMARK    2  A    between atoms: C_2  and  C_4
REMARK    3  A    between atoms: C_2  and  S_14
REMARK    4  A    between atoms: N_9  and  C_10
REMARK    5  A    between atoms: C_10  and  C_11
REMARK    6  A    between atoms: C_10  and  C_12
REMARK    7  A    between atoms: C_10  and  C_13
REMARK    8  A    between atoms: S_14  and  C_15
REMARK    9  A    between atoms: C_18  and  C_27
REMARK   10  A    between atoms: N_19  and  C_20
REMARK   11  A    between atoms: C_31  and  O_33
REMARK   12  A    between atoms: O_33  and  C_34
REMARK                            x       y       z     vdW  Elec       q    Type
REMARK                         _______ _______ _______ _____ _____    ______ ____
ROOT
ATOM      1  C   UNL     1      -2.814   3.690   0.077  0.00  0.00    +0.197 A 
ATOM      2  N   UNL     1      -3.381   2.515   0.240  0.00  0.00    -0.122 NA
ATOM      3  N   UNL     1      -2.506   1.581   0.118  0.00  0.00    -0.128 NA
ATOM      4  C   UNL     1      -1.326   2.101  -0.131  0.00  0.00    +0.169 A 
ATOM      5  N   UNL     1      -1.485   3.469  -0.159  0.00  0.00    -0.270 N 
ENDROOT
BRANCH   5   6
ATOM      6  C   UNL     1      -0.493   4.434  -0.386  0.00  0.00    +0.051 A 
ATOM      7  C   UNL     1       0.508   4.636   0.555  0.00  0.00    +0.028 A 
ATOM      8  C   UNL     1       1.488   5.582   0.327  0.00  0.00    +0.022 A 
ATOM      9  C   UNL     1       1.465   6.337  -0.832  0.00  0.00    +0.041 A 
ATOM     10  C   UNL     1       0.466   6.141  -1.769  0.00  0.00    +0.022 A 
ATOM     11  C   UNL     1      -0.513   5.192  -1.548  0.00  0.00    +0.028 A 
ATOM     12 CL   UNL     1       2.693   7.532  -1.113  0.00  0.00    -0.084 Cl
ENDBRANCH   5   6
BRANCH   4  13
ATOM     13  C   UNL     1      -0.064   1.359  -0.335  0.00  0.00    +0.023 A 
ATOM     14  C   UNL     1       1.023   1.981  -0.951  0.00  0.00    +0.012 A 
ATOM     15  C   UNL     1       2.197   1.284  -1.146  0.00  0.00    +0.004 A 
ATOM     16  C   UNL     1       2.301  -0.032  -0.732  0.00  0.00    +0.045 A 
ATOM     17  C   UNL     1       1.226  -0.659  -0.119  0.00  0.00    +0.121 A 
ATOM     18  C   UNL     1       0.043   0.032   0.081  0.00  0.00    +0.057 A 
BRANCH  17  19
ATOM     19  O   UNL     1       1.334  -1.952   0.285  0.00  0.00    -0.495 OA
ATOM     20  C   UNL     1       2.583  -2.604   0.048  0.00  0.00    +0.277 C 
ENDBRANCH  17  19
ENDBRANCH   4  13
BRANCH   1  21
ATOM     21  S   UNL     1      -3.617   5.257   0.155  0.00  0.00    -0.073 S 
BRANCH  21  23
ATOM     22  C   UNL     1      -5.365   4.053   1.875  0.00  0.00    +0.029 C 
ATOM     23  C   UNL     1      -5.312   4.725   0.501  0.00  0.00    +0.137 C 
BRANCH  23  24
ATOM     24  C   UNL     1      -6.226   5.923   0.492  0.00  0.00    +0.233 C 
ATOM     25  O   UNL     1      -5.768   7.036   0.637  0.00  0.00    -0.274 OA
ATOM     26  N   UNL     1      -7.552   5.757   0.322  0.00  0.00    -0.239 N 
ATOM     27  C   UNL     1      -8.370   6.829   0.314  0.00  0.00    +0.306 C 
ATOM     28  O   UNL     1      -7.911   7.945   0.460  0.00  0.00    -0.252 OA
ATOM     29  N   UNL     1      -9.697   6.663   0.144  0.00  0.00    -0.294 N 
ATOM     30  H   UNL     1      -7.919   4.867   0.206  0.00  0.00    +0.159 HD
ATOM     31  H   UNL     1     -10.063   5.773   0.028  0.00  0.00    +0.151 HD
BRANCH  29  32
ATOM     32  C   UNL     1     -10.585   7.828   0.135  0.00  0.00    +0.028 C 
ATOM     33  C   UNL     1     -10.181   8.768  -1.002  0.00  0.00    +0.031 C 
ATOM     34  C   UNL     1     -12.029   7.366  -0.073  0.00  0.00    +0.031 C 
ATOM     35  C   UNL     1     -10.473   8.565   1.471  0.00  0.00    +0.031 C 
ENDBRANCH  29  32
ENDBRANCH  23  24
ENDBRANCH  21  23
ENDBRANCH   1  21
TORSDOF 7
