REMARK  Name = ZINC35060038
REMARK  5 active torsions:
REMARK  status: ('A' for Active; 'I' for Inactive)
REMARK    1  A    between atoms: C_5  and  N_11
REMARK    2  A    between atoms: C_6  and  N_7
REMARK    3  A    between atoms: N_7  and  C_8
REMARK    4  A    between atoms: C_8  and  C_9
REMARK    5  A    between atoms: C_9  and  N_10
REMARK                            x       y       z     vdW  Elec       q    Type
REMARK                         _______ _______ _______ _____ _____    ______ ____
ROOT
ATOM      1  C   UNL     1       0.024   1.394   0.283  0.00  0.00    +0.030 A 
ATOM      2  C   UNL     1       1.183   2.091   0.008  0.00  0.00    -0.024 A 
ATOM      3  C   UNL     1       2.355   1.404  -0.280  0.00  0.00    +0.039 A 
ATOM      4  C   UNL     1       2.360   0.015  -0.292  0.00  0.00    +0.058 A 
ATOM      5  C   UNL     1       1.201  -0.682  -0.018  0.00  0.00    +0.149 A 
ATOM      6  C   UNL     1       0.029   0.005   0.271  0.00  0.00    +0.058 A 
ATOM      7  N   UNL     1       3.530   2.114  -0.558  0.00  0.00    -0.285 N 
ATOM      8  C   UNL     1       3.648   3.405  -0.198  0.00  0.00    +0.218 C 
ATOM      9  O   UNL     1       4.666   4.010  -0.460  0.00  0.00    -0.275 OA
ATOM     10  C   UNL     1       2.531   4.107   0.526  0.00  0.00    +0.101 C 
ATOM     11  C   UNL     1       1.181   3.597   0.019  0.00  0.00    +0.046 C 
ATOM     12  H   UNL     1       4.264   1.672  -1.013  0.00  0.00    +0.155 HD
ENDROOT
BRANCH   5  13
ATOM     13  N   UNL     1       1.207  -2.162  -0.031  0.00  0.00    +0.058 N 
ATOM     14  O   UNL     1       2.166  -2.767   0.387  0.00  0.00    -0.126 OA
ATOM     15  O   UNL     1       0.252  -2.766  -0.461  0.00  0.00    -0.126 OA
ENDBRANCH   5  13
BRANCH   6  16
ATOM     16  N   UNL     1      -1.146  -0.701   0.549  0.00  0.00    -0.344 N 
ATOM     17  H   UNL     1      -1.124  -1.668   0.625  0.00  0.00    +0.146 HD
BRANCH  16  18
ATOM     18  C   UNL     1      -2.409   0.019   0.726  0.00  0.00    +0.082 C 
BRANCH  18  19
ATOM     19  C   UNL     1      -3.530  -0.981   1.018  0.00  0.00    -0.068 C 
BRANCH  19  20
ATOM     20  N   UNL     1      -4.797  -0.259   1.196  0.00  0.00    +0.379 N 
ATOM     21  H   UNL     1      -5.536  -0.918   1.388  0.00  0.00    -0.090 HD
ATOM     22  H   UNL     1      -4.711   0.386   1.967  0.00  0.00    -0.090 HD
ATOM     23  H   UNL     1      -5.013   0.253   0.353  0.00  0.00    -0.090 HD
ENDBRANCH  19  20
ENDBRANCH  18  19
ENDBRANCH  16  18
ENDBRANCH   6  16
TORSDOF 5
