REMARK  Name = ZINC67060217
REMARK  9 active torsions:
REMARK  status: ('A' for Active; 'I' for Inactive)
REMARK    1  A    between atoms: C_1  and  C_2
REMARK    2  A    between atoms: C_2  and  C_3
REMARK    3  A    between atoms: C_2  and  C_4
REMARK    4  A    between atoms: C_4  and  C_5
REMARK    5  A    between atoms: C_5  and  C_6
REMARK    6  A    between atoms: N_8  and  N_9
REMARK    7  A    between atoms: N_12  and  C_13
REMARK    8  A    between atoms: C_13  and  C_14
REMARK    9  A    between atoms: N_23  and  C_26
REMARK                            x       y       z     vdW  Elec       q    Type
REMARK                         _______ _______ _______ _____ _____    ______ ____
ROOT
ATOM      1  C   UNL     1      -1.366   0.287   8.822  0.00  0.00    +0.141 C 
ENDROOT
BRANCH   1   2
ATOM      2  C   UNL     1      -2.656   1.053   8.675  0.00  0.00    -0.026 A 
ATOM      3  C   UNL     1      -2.658   2.442   8.649  0.00  0.00    +0.023 A 
ATOM      4  C   UNL     1      -3.856   3.113   8.513  0.00  0.00    +0.084 A 
ATOM      5  N   UNL     1      -4.994   2.453   8.408  0.00  0.00    -0.350 N 
ATOM      6  C   UNL     1      -5.034   1.130   8.429  0.00  0.00    +0.099 A 
ATOM      7  C   UNL     1      -3.863   0.389   8.557  0.00  0.00    +0.047 A 
ATOM      8  N   UNL     1      -6.255   0.475   8.315  0.00  0.00    -0.320 N 
ATOM      9  C   UNL     1      -6.320  -0.990   8.210  0.00  0.00    +0.088 C 
ATOM     10  C   UNL     1      -7.327  -1.507   9.243  0.00  0.00    -0.060 C 
ATOM     11  N   UNL     1      -8.615  -0.828   9.052  0.00  0.00    +0.380 N 
ATOM     12  C   UNL     1      -8.469   0.608   9.327  0.00  0.00    -0.060 C 
ATOM     13  C   UNL     1      -7.518   1.229   8.304  0.00  0.00    +0.088 C 
ATOM     14  C   UNL     1      -9.610  -1.401   9.969  0.00  0.00    -0.096 C 
ATOM     15  H   UNL     1      -5.822   2.950   8.314  0.00  0.00    +0.166 HD
ATOM     16  H   UNL     1      -8.924  -0.957   8.100  0.00  0.00    -0.082 HD
ENDBRANCH   1   2
BRANCH   1  20
ATOM     17  N   UNL     1       0.873  -0.904   6.160  0.00  0.00    -0.218 N 
ATOM     18  C   UNL     1       0.356  -0.657   7.379  0.00  0.00    +0.316 C 
ATOM     19  O   UNL     1       0.935  -1.046   8.375  0.00  0.00    -0.251 OA
ATOM     20  N   UNL     1      -0.804   0.019   7.495  0.00  0.00    -0.294 N 
ATOM     21  H   UNL     1       1.708  -1.391   6.076  0.00  0.00    +0.174 HD
ATOM     22  H   UNL     1      -1.266   0.329   6.701  0.00  0.00    +0.151 HD
BRANCH  17  25
ATOM     23  C   UNL     1       0.723  -0.702   3.792  0.00  0.00    +0.229 C 
ATOM     24  O   UNL     1       1.766  -1.311   3.688  0.00  0.00    -0.274 OA
ATOM     25  N   UNL     1       0.205  -0.456   5.012  0.00  0.00    -0.233 N 
ATOM     26  H   UNL     1      -0.629   0.031   5.096  0.00  0.00    +0.173 HD
BRANCH  23  27
ATOM     27  C   UNL     1       0.005  -0.220   2.558  0.00  0.00    +0.097 C 
BRANCH  27  28
ATOM     28  C   UNL     1       0.798  -0.628   1.315  0.00  0.00    +0.012 C 
BRANCH  28  30
ATOM     29  C   UNL     1       0.050   1.391   0.047  0.00  0.00    +0.007 C 
ATOM     30  C   UNL     1       0.069  -0.139   0.062  0.00  0.00    -0.017 C 
ATOM     31  C   UNL     1       0.794  -0.652  -1.184  0.00  0.00    +0.007 C 
ENDBRANCH  28  30
ENDBRANCH  27  28
ENDBRANCH  23  27
ENDBRANCH  17  25
ENDBRANCH   1  20
TORSDOF 6
