REMARK  Name = ZINC16889168
REMARK  10 active torsions:
REMARK  status: ('A' for Active; 'I' for Inactive)
REMARK    1  A    between atoms: C_1  and  C_2
REMARK    2  A    between atoms: C_2  and  C_3
REMARK    3  A    between atoms: C_2  and  C_4
REMARK    4  A    between atoms: C_6  and  C_35
REMARK    5  A    between atoms: C_10  and  C_12
REMARK    6  A    between atoms: C_17  and  C_19
REMARK    7  A    between atoms: C_17  and  C_20
REMARK    8  A    between atoms: C_24  and  C_26
REMARK    9  A    between atoms: C_31  and  C_33
REMARK   10  A    between atoms: C_31  and  C_34
REMARK                            x       y       z     vdW  Elec       q    Type
REMARK                         _______ _______ _______ _____ _____    ______ ____
ROOT
ATOM      1  C   UNL     1       0.164   2.549   0.386  0.00  0.00    +0.005 C 
ATOM      2  C   UNL     1       0.613   1.955  -0.950  0.00  0.00    +0.020 C 
ATOM      3  C   UNL     1      -0.420   2.265  -2.033  0.00  0.00    +0.000 C 
ATOM      4  C   UNL     1      -1.771   1.657  -1.645  0.00  0.00    +0.116 C 
ATOM      5  N   UNL     1      -2.136   2.132  -0.303  0.00  0.00    -0.300 N 
ATOM      6  C   UNL     1      -1.179   1.944   0.795  0.00  0.00    +0.116 C 
ATOM      7  C   UNL     1      -3.325   2.728  -0.085  0.00  0.00    +0.219 C 
ATOM      8  O   UNL     1      -4.065   2.965  -1.016  0.00  0.00    -0.275 OA
ATOM      9  C   UNL     1      -0.566   3.781  -2.187  0.00  0.00    +0.116 C 
ATOM     10  N   UNL     1      -0.872   4.363  -0.876  0.00  0.00    -0.300 N 
ATOM     11  C   UNL     1       0.022   4.067   0.252  0.00  0.00    +0.116 C 
ATOM     12  C   UNL     1      -1.952   5.152  -0.709  0.00  0.00    +0.219 C 
ATOM     13  O   UNL     1      -2.165   5.669   0.367  0.00  0.00    -0.275 OA
ATOM     14  C   UNL     1       0.043   1.666  -3.363  0.00  0.00    +0.014 C 
ENDROOT
BRANCH   7  15
ATOM     15  C   UNL     1      -3.735   3.102   1.316  0.00  0.00    +0.080 C 
ATOM     16  C   UNL     1      -3.893   1.833   2.159  0.00  0.00    +0.041 C 
ATOM     17  C   UNL     1      -4.385   2.216   3.557  0.00  0.00    +0.161 C 
ATOM     18  O   UNL     1      -5.617   2.932   3.448  0.00  0.00    -0.374 OA
ATOM     19  C   UNL     1      -5.519   4.152   2.710  0.00  0.00    +0.065 C 
ATOM     20  C   UNL     1      -5.073   3.846   1.278  0.00  0.00    +0.047 C 
ATOM     21  C   UNL     1      -6.885   4.842   2.683  0.00  0.00    +0.041 C 
ATOM     22  C   UNL     1      -4.496   5.072   3.378  0.00  0.00    +0.041 C 
ENDBRANCH   7  15
BRANCH  12  23
ATOM     23  C   UNL     1      -2.895   5.391  -1.860  0.00  0.00    +0.080 C 
ATOM     24  C   UNL     1      -2.169   6.164  -2.965  0.00  0.00    +0.041 C 
ATOM     25  C   UNL     1      -3.155   6.471  -4.095  0.00  0.00    +0.161 C 
ATOM     26  O   UNL     1      -4.260   7.212  -3.573  0.00  0.00    -0.374 OA
ATOM     27  C   UNL     1      -5.005   6.520  -2.569  0.00  0.00    +0.065 C 
ATOM     28  C   UNL     1      -4.093   6.215  -1.378  0.00  0.00    +0.047 C 
ATOM     29  C   UNL     1      -6.173   7.394  -2.107  0.00  0.00    +0.041 C 
ATOM     30  C   UNL     1      -5.545   5.210  -3.147  0.00  0.00    +0.041 C 
ENDBRANCH  12  23
BRANCH   1  32
ATOM     31  C   UNL     1       0.758   2.827   2.797  0.00  0.00    +0.008 C 
ATOM     32  C   UNL     1       1.207   2.234   1.460  0.00  0.00    -0.008 C 
ATOM     33  C   UNL     1       1.353   0.717   1.599  0.00  0.00    +0.008 C 
ENDBRANCH   1  32
TORSDOF 3
