REMARK  Name = ZINC54929305
REMARK  8 active torsions:
REMARK  status: ('A' for Active; 'I' for Inactive)
REMARK    1  A    between atoms: C_1  and  C_2
REMARK    2  A    between atoms: C_2  and  C_3
REMARK    3  A    between atoms: C_2  and  C_4
REMARK    4  A    between atoms: C_4  and  C_5
REMARK    5  A    between atoms: C_5  and  C_7
REMARK    6  A    between atoms: C_5  and  N_22
REMARK    7  A    between atoms: C_7  and  C_9
REMARK    8  A    between atoms: C_7  and  O_21
REMARK                            x       y       z     vdW  Elec       q    Type
REMARK                         _______ _______ _______ _____ _____    ______ ____
ROOT
ATOM      1  C   UNL     1      -3.442  -0.985  -1.402  0.00  0.00    +0.130 C 
ENDROOT
BRANCH   1   2
ATOM      2  C   UNL     1      -4.106  -0.696  -2.723  0.00  0.00    -0.016 A 
ATOM      3  C   UNL     1      -4.123  -1.663  -3.712  0.00  0.00    +0.055 A 
ATOM      4  C   UNL     1      -4.735  -1.395  -4.925  0.00  0.00    +0.164 A 
ATOM      5  C   UNL     1      -5.328  -0.160  -5.146  0.00  0.00    +0.180 A 
ATOM      6  C   UNL     1      -5.310   0.807  -4.154  0.00  0.00    +0.087 A 
ATOM      7  C   UNL     1      -4.701   0.533  -2.941  0.00  0.00    +0.030 A 
ATOM      8 CL   UNL     1      -6.051   2.352  -4.429  0.00  0.00    -0.080 Cl
ATOM      9  O   UNL     1      -5.929   0.095  -6.345  0.00  0.00    -0.487 OA
ATOM     10  C   UNL     1      -5.057   0.194  -7.473  0.00  0.00    +0.232 C 
ATOM     11  C   UNL     1      -4.754  -1.183  -8.043  0.00  0.00    +0.082 C 
ATOM     12  C   UNL     1      -3.977  -2.055  -7.069  0.00  0.00    +0.232 C 
ATOM     13  O   UNL     1      -4.760  -2.340  -5.908  0.00  0.00    -0.488 OA
ENDBRANCH   1   2
BRANCH   1  14
ATOM     14  O   UNL     1      -4.231  -0.439  -0.343  0.00  0.00    -0.389 OA
ATOM     15  H   UNL     1      -4.354   0.518  -0.397  0.00  0.00    +0.210 HD
ENDBRANCH   1  14
BRANCH   1  16
ATOM     16  C   UNL     1      -2.050  -0.348  -1.381  0.00  0.00    -0.041 C 
BRANCH  16  17
ATOM     17  N   UNL     1      -2.174   1.105  -1.559  0.00  0.00    +0.382 N 
ATOM     18  H   UNL     1      -2.534   1.301  -2.481  0.00  0.00    -0.090 HD
ATOM     19  H   UNL     1      -2.804   1.477  -0.865  0.00  0.00    -0.090 HD
ATOM     20  H   UNL     1      -1.267   1.534  -1.455  0.00  0.00    -0.090 HD
ENDBRANCH  16  17
BRANCH  16  21
ATOM     21  C   UNL     1      -1.376  -0.642  -0.039  0.00  0.00    -0.011 C 
BRANCH  21  23
ATOM     22  C   UNL     1       0.698  -0.301   1.313  0.00  0.00    +0.007 C 
ATOM     23  C   UNL     1       0.064  -0.126  -0.069  0.00  0.00    -0.019 C 
ATOM     24  C   UNL     1       0.868  -0.917  -1.102  0.00  0.00    +0.007 C 
ENDBRANCH  21  23
ENDBRANCH  16  21
ENDBRANCH   1  16
TORSDOF 6
