REMARK  Name = ZINC49508589
REMARK  11 active torsions:
REMARK  status: ('A' for Active; 'I' for Inactive)
REMARK    1  A    between atoms: C_1  and  C_2
REMARK    2  A    between atoms: C_5  and  N_14
REMARK    3  A    between atoms: C_7  and  N_8
REMARK    4  A    between atoms: C_15  and  C_17
REMARK    5  A    between atoms: N_19  and  C_20
REMARK    6  A    between atoms: C_20  and  C_21
REMARK    7  A    between atoms: C_21  and  C_23
REMARK    8  A    between atoms: C_21  and  N_34
REMARK    9  A    between atoms: N_32  and  C_33
REMARK   10  A    between atoms: N_34  and  C_35
REMARK   11  A    between atoms: N_34  and  C_36
REMARK                            x       y       z     vdW  Elec       q    Type
REMARK                         _______ _______ _______ _____ _____    ______ ____
ROOT
ATOM      1  C   UNL     1      -0.303  -6.273  -1.268  0.00  0.00    +0.299 C 
ATOM      2  O   UNL     1      -0.211  -6.865  -0.213  0.00  0.00    -0.265 OA
ATOM      3  N   UNL     1      -0.362  -6.963  -2.425  0.00  0.00    -0.309 N 
ATOM      4  H   UNL     1      -0.435  -6.490  -3.268  0.00  0.00    +0.149 HD
ENDROOT
BRANCH   1   6
ATOM      5  N   UNL     1      -0.290  -4.091  -0.129  0.00  0.00    -0.278 N 
ATOM      6  C   UNL     1      -0.349  -4.780  -1.286  0.00  0.00    +0.303 C 
ATOM      7  O   UNL     1      -0.441  -4.188  -2.341  0.00  0.00    -0.265 OA
ATOM      8  H   UNL     1      -0.147  -4.559   0.708  0.00  0.00    +0.155 HD
BRANCH   5  13
ATOM      9  C   UNL     1      -0.879   1.554  -0.145  0.00  0.00    +0.045 C 
ATOM     10  C   UNL     1      -0.722   0.056  -0.142  0.00  0.00    -0.029 A 
ATOM     11  C   UNL     1      -1.226  -0.689   0.907  0.00  0.00    +0.007 A 
ATOM     12  C   UNL     1      -1.084  -2.063   0.913  0.00  0.00    +0.024 A 
ATOM     13  C   UNL     1      -0.434  -2.701  -0.137  0.00  0.00    +0.036 A 
ATOM     14  C   UNL     1       0.073  -1.956  -1.192  0.00  0.00    +0.047 A 
ATOM     15  C   UNL     1      -0.076  -0.576  -1.198  0.00  0.00    +0.041 A 
BRANCH  15  16
ATOM     16  N   UNL     1       0.429   0.179  -2.262  0.00  0.00    -0.271 N 
ATOM     17  C   UNL     1       1.788   0.732  -2.314  0.00  0.00    +0.114 C 
ATOM     18  C   UNL     1       2.032   1.086  -3.797  0.00  0.00    +0.029 C 
ATOM     19  C   UNL     1       0.590   1.305  -4.311  0.00  0.00    +0.098 C 
ATOM     20  C   UNL     1      -0.266   0.485  -3.371  0.00  0.00    +0.220 C 
ATOM     21  O   UNL     1      -1.413   0.154  -3.586  0.00  0.00    -0.275 OA
ENDBRANCH  15  16
ENDBRANCH   5  13
ENDBRANCH   1   6
BRANCH   3  22
ATOM     22  C   UNL     1      -0.316  -8.427  -2.408  0.00  0.00    +0.094 C 
BRANCH  22  23
ATOM     23  C   UNL     1      -0.276  -8.953  -3.844  0.00  0.00    -0.021 C 
BRANCH  23  24
ATOM     24  C   UNL     1      -1.553  -8.578  -4.551  0.00  0.00    -0.059 A 
ATOM     25  C   UNL     1      -2.701  -9.320  -4.342  0.00  0.00    +0.004 A 
ATOM     26  C   UNL     1      -3.870  -8.978  -4.991  0.00  0.00    +0.023 A 
ATOM     27  C   UNL     1      -3.893  -7.888  -5.854  0.00  0.00    +0.033 A 
ATOM     28  C   UNL     1      -2.743  -7.143  -6.061  0.00  0.00    -0.026 A 
ATOM     29  C   UNL     1      -1.575  -7.492  -5.403  0.00  0.00    +0.007 A 
ATOM     30  C   UNL     1      -2.733  -5.950  -6.980  0.00  0.00    +0.038 C 
ATOM     31  C   UNL     1      -3.904  -6.020  -7.961  0.00  0.00    +0.024 C 
ATOM     32  C   UNL     1      -5.198  -6.256  -7.172  0.00  0.00    +0.105 C 
ATOM     33  N   UNL     1      -5.087  -7.561  -6.506  0.00  0.00    -0.333 N 
ATOM     34  C   UNL     1      -6.208  -8.504  -6.525  0.00  0.00    +0.129 C 
ENDBRANCH  23  24
BRANCH  23  35
ATOM     35  N   UNL     1      -0.137 -10.415  -3.826  0.00  0.00    +0.382 N 
ATOM     36  C   UNL     1      -0.006 -10.911  -5.203  0.00  0.00    -0.096 C 
ATOM     37  C   UNL     1       1.059 -10.784  -3.057  0.00  0.00    -0.096 C 
ATOM     38  H   UNL     1      -0.953 -10.825  -3.397  0.00  0.00    -0.082 HD
ENDBRANCH  23  35
ENDBRANCH  22  23
ENDBRANCH   3  22
TORSDOF 7
