REMARK  Name = ZINC39675339
REMARK  9 active torsions:
REMARK  status: ('A' for Active; 'I' for Inactive)
REMARK    1  A    between atoms: C_1  and  C_2
REMARK    2  A    between atoms: C_2  and  C_4
REMARK    3  A    between atoms: C_2  and  N_14
REMARK    4  A    between atoms: C_4  and  C_5
REMARK    5  A    between atoms: C_5  and  C_6
REMARK    6  A    between atoms: C_9  and  O_12
REMARK    7  A    between atoms: O_12  and  C_13
REMARK    8  A    between atoms: C_15  and  C_17
REMARK    9  A    between atoms: C_28  and  C_30
REMARK                            x       y       z     vdW  Elec       q    Type
REMARK                         _______ _______ _______ _____ _____    ______ ____
ROOT
ATOM      1  C   UNL     1       0.858  -1.899  -3.941  0.00  0.00    +0.100 C 
ATOM      2  C   UNL     1       1.787  -0.683  -4.160  0.00  0.00    +0.121 C 
ATOM      3  N   UNL     1       1.681  -0.387  -5.608  0.00  0.00    -0.296 N 
ATOM      4  C   UNL     1       0.248  -0.597  -5.924  0.00  0.00    +0.115 C 
ATOM      5  C   UNL     1      -0.151  -1.838  -5.100  0.00  0.00    -0.004 C 
ATOM      6  C   UNL     1      -1.569  -1.678  -4.559  0.00  0.00    -0.010 C 
ATOM      7  C   UNL     1      -2.559  -1.679  -5.727  0.00  0.00    -0.082 C 
ATOM      8  N   UNL     1      -2.438  -2.937  -6.473  0.00  0.00    +0.379 N 
ATOM      9  C   UNL     1      -1.100  -3.040  -7.068  0.00  0.00    -0.082 C 
ATOM     10  C   UNL     1      -0.048  -3.096  -5.957  0.00  0.00    -0.010 C 
ATOM     11  C   UNL     1       2.666  -0.012  -6.449  0.00  0.00    +0.249 C 
ATOM     12  O   UNL     1       2.405   0.275  -7.601  0.00  0.00    -0.270 OA
ATOM     13  H   UNL     1      -2.586  -3.714  -5.846  0.00  0.00    -0.086 HD
ATOM     14  H   UNL     1      -3.133  -2.962  -7.204  0.00  0.00    -0.086 HD
ENDROOT
BRANCH  11  15
ATOM     15  C   UNL     1       4.062   0.050  -5.970  0.00  0.00    +0.073 A 
ATOM     16  C   UNL     1       4.344   0.535  -4.691  0.00  0.00    +0.016 A 
ATOM     17  C   UNL     1       5.649   0.590  -4.249  0.00  0.00    +0.002 A 
ATOM     18  C   UNL     1       6.681   0.167  -5.069  0.00  0.00    +0.023 A 
ATOM     19  C   UNL     1       6.412  -0.315  -6.338  0.00  0.00    +0.077 A 
ATOM     20  C   UNL     1       5.106  -0.382  -6.793  0.00  0.00    +0.154 A 
ATOM     21  F   UNL     1       4.843  -0.857  -8.030  0.00  0.00    -0.203 F 
ATOM     22 CL   UNL     1       7.713  -0.843  -7.358  0.00  0.00    -0.081 Cl
ENDBRANCH  11  15
BRANCH   1  24
ATOM     23  N   UNL     1      -0.220  -2.895  -1.950  0.00  0.00    -0.312 N 
ATOM     24  C   UNL     1       0.145  -1.783  -2.619  0.00  0.00    +0.218 C 
ATOM     25  O   UNL     1      -0.100  -0.689  -2.156  0.00  0.00    -0.275 OA
ATOM     26  H   UNL     1      -0.023  -3.769  -2.320  0.00  0.00    +0.149 HD
BRANCH  23  28
ATOM     27  C   UNL     1       0.116  -2.622   0.457  0.00  0.00    +0.028 C 
ATOM     28  C   UNL     1      -0.912  -2.782  -0.664  0.00  0.00    +0.070 C 
BRANCH  28  29
ATOM     29  C   UNL     1      -1.742  -4.044  -0.419  0.00  0.00    +0.026 C 
BRANCH  29  30
ATOM     30  C   UNL     1      -2.850  -4.138  -1.470  0.00  0.00    +0.037 C 
BRANCH  30  31
ATOM     31  C   UNL     1      -3.667  -5.381  -1.228  0.00  0.00    -0.047 A 
ATOM     32  C   UNL     1      -3.306  -6.572  -1.831  0.00  0.00    +0.007 A 
ATOM     33  C   UNL     1      -4.053  -7.713  -1.612  0.00  0.00    +0.046 A 
ATOM     34  C   UNL     1      -5.167  -7.663  -0.786  0.00  0.00    +0.120 A 
ATOM     35  C   UNL     1      -5.527  -6.467  -0.182  0.00  0.00    +0.046 A 
ATOM     36  C   UNL     1      -4.773  -5.330  -0.401  0.00  0.00    +0.007 A 
BRANCH  34  37
ATOM     37  O   UNL     1      -5.904  -8.784  -0.570  0.00  0.00    -0.495 OA
ATOM     38  C   UNL     1      -7.037  -8.659   0.292  0.00  0.00    +0.277 C 
ENDBRANCH  34  37
ENDBRANCH  30  31
ENDBRANCH  29  30
ENDBRANCH  28  29
ENDBRANCH  23  28
ENDBRANCH   1  24
TORSDOF 7
