REMARK  Name = ZINC45104556
REMARK  12 active torsions:
REMARK  status: ('A' for Active; 'I' for Inactive)
REMARK    1  A    between atoms: C_1  and  N_2
REMARK    2  A    between atoms: N_2  and  C_3
REMARK    3  A    between atoms: N_2  and  C_4
REMARK    4  A    between atoms: C_4  and  C_5
REMARK    5  A    between atoms: C_10  and  C_11
REMARK    6  A    between atoms: C_11  and  N_12
REMARK    7  A    between atoms: N_15  and  N_16
REMARK    8  A    between atoms: C_17  and  C_19
REMARK    9  A    between atoms: C_19  and  O_20
REMARK   10  A    between atoms: O_20  and  C_21
REMARK   11  A    between atoms: C_24  and  O_27
REMARK   12  A    between atoms: O_27  and  C_28
REMARK                            x       y       z     vdW  Elec       q    Type
REMARK                         _______ _______ _______ _____ _____    ______ ____
ROOT
ATOM      1  N   UNL     1      -0.721  -3.197   2.342  0.00  0.00    -0.294 N 
ATOM      2  C   UNL     1      -0.915  -4.385   1.734  0.00  0.00    +0.316 C 
ATOM      3  O   UNL     1      -1.799  -4.508   0.909  0.00  0.00    -0.251 OA
ATOM      4  N   UNL     1      -0.129  -5.436   2.042  0.00  0.00    -0.218 N 
ATOM      5  H   UNL     1      -0.016  -3.099   3.000  0.00  0.00    +0.151 HD
ATOM      6  H   UNL     1      -0.269  -6.290   1.605  0.00  0.00    +0.174 HD
ENDROOT
BRANCH   4   7
ATOM      7  N   UNL     1       0.889  -5.294   2.994  0.00  0.00    -0.230 N 
ATOM      8  C   UNL     1       1.675  -6.344   3.301  0.00  0.00    +0.267 C 
ATOM      9  O   UNL     1       1.501  -7.413   2.755  0.00  0.00    -0.271 OA
ATOM     10  H   UNL     1       1.029  -4.439   3.431  0.00  0.00    +0.173 HD
BRANCH   8  11
ATOM     11  C   UNL     1       2.771  -6.191   4.325  0.00  0.00    +0.326 C 
BRANCH  11  12
ATOM     12  O   UNL     1       3.459  -7.435   4.475  0.00  0.00    -0.483 OA
BRANCH  12  13
ATOM     13  C   UNL     1       4.484  -7.469   5.368  0.00  0.00    +0.121 A 
ATOM     14  C   UNL     1       4.816  -6.330   6.087  0.00  0.00    +0.049 A 
ATOM     15  C   UNL     1       5.857  -6.365   6.993  0.00  0.00    +0.049 A 
ATOM     16  C   UNL     1       6.571  -7.538   7.185  0.00  0.00    +0.120 A 
ATOM     17  C   UNL     1       6.239  -8.677   6.467  0.00  0.00    +0.049 A 
ATOM     18  C   UNL     1       5.195  -8.644   5.563  0.00  0.00    +0.049 A 
BRANCH  16  19
ATOM     19  O   UNL     1       7.597  -7.572   8.077  0.00  0.00    -0.495 OA
ATOM     20  C   UNL     1       8.289  -8.814   8.224  0.00  0.00    +0.277 C 
ENDBRANCH  16  19
ENDBRANCH  12  13
ENDBRANCH  11  12
ENDBRANCH   8  11
ENDBRANCH   4   7
BRANCH   1  21
ATOM     21  C   UNL     1      -1.575  -2.055   2.007  0.00  0.00    +0.141 C 
BRANCH  21  27
ATOM     22  C   UNL     1      -0.059  -0.109   2.429  0.00  0.00    -0.059 A 
ATOM     23  C   UNL     1       0.324   0.993   3.171  0.00  0.00    +0.002 A 
ATOM     24  C   UNL     1      -0.384   1.343   4.305  0.00  0.00    +0.000 A 
ATOM     25  C   UNL     1      -1.476   0.591   4.698  0.00  0.00    +0.000 A 
ATOM     26  C   UNL     1      -1.859  -0.510   3.956  0.00  0.00    +0.005 A 
ATOM     27  C   UNL     1      -1.154  -0.858   2.819  0.00  0.00    -0.029 A 
BRANCH  22  28
ATOM     28  C   UNL     1       0.713  -0.491   1.192  0.00  0.00    -0.043 C 
BRANCH  28  30
ATOM     29  C   UNL     1      -0.018   1.465   0.010  0.00  0.00    -0.096 C 
ATOM     30  N   UNL     1       0.002  -0.004   0.002  0.00  0.00    +0.379 N 
ATOM     31  C   UNL     1       0.690  -0.478  -1.207  0.00  0.00    -0.096 C 
ATOM     32  H   UNL     1      -0.945  -0.353   0.009  0.00  0.00    -0.082 HD
ENDBRANCH  28  30
ENDBRANCH  22  28
ENDBRANCH  21  27
ENDBRANCH   1  21
TORSDOF 9
