REMARK  Name = ZINC46347449
REMARK  11 active torsions:
REMARK  status: ('A' for Active; 'I' for Inactive)
REMARK    1  A    between atoms: C_1  and  C_2
REMARK    2  A    between atoms: C_2  and  C_4
REMARK    3  A    between atoms: C_2  and  O_22
REMARK    4  A    between atoms: N_6  and  N_7
REMARK    5  A    between atoms: N_10  and  C_11
REMARK    6  A    between atoms: C_11  and  C_12
REMARK    7  A    between atoms: C_12  and  C_14
REMARK    8  A    between atoms: C_12  and  N_19
REMARK    9  A    between atoms: N_19  and  C_20
REMARK   10  A    between atoms: N_19  and  C_21
REMARK   11  A    between atoms: O_22  and  C_23
REMARK                            x       y       z     vdW  Elec       q    Type
REMARK                         _______ _______ _______ _____ _____    ______ ____
ROOT
ATOM      1  N   UNL     1      -2.202   0.086   1.490  0.00  0.00    -0.218 N 
ATOM      2  C   UNL     1      -3.094  -0.337   2.407  0.00  0.00    +0.316 C 
ATOM      3  O   UNL     1      -3.960  -1.130   2.092  0.00  0.00    -0.251 OA
ATOM      4  N   UNL     1      -3.026   0.118   3.674  0.00  0.00    -0.299 N 
ATOM      5  H   UNL     1      -2.251  -0.241   0.578  0.00  0.00    +0.174 HD
ATOM      6  H   UNL     1      -2.334   0.751   3.925  0.00  0.00    +0.150 HD
ENDROOT
BRANCH   1   9
ATOM      7  C   UNL     1      -0.312   1.423   0.936  0.00  0.00    +0.270 C 
ATOM      8  O   UNL     1      -0.373   1.014  -0.204  0.00  0.00    -0.270 OA
ATOM      9  N   UNL     1      -1.204   1.000   1.853  0.00  0.00    -0.230 N 
ATOM     10  H   UNL     1      -1.155   1.328   2.765  0.00  0.00    +0.173 HD
BRANCH   7  12
ATOM     11  C   UNL     1       0.117   3.738   1.715  0.00  0.00    +0.062 C 
ATOM     12  C   UNL     1       0.762   2.406   1.326  0.00  0.00    +0.257 C 
BRANCH  12  13
ATOM     13  O   UNL     1       1.646   2.609   0.222  0.00  0.00    -0.480 OA
BRANCH  13  14
ATOM     14  C   UNL     1       2.905   3.035   0.510  0.00  0.00    +0.122 A 
ATOM     15  C   UNL     1       3.250   3.349   1.816  0.00  0.00    +0.048 A 
ATOM     16  C   UNL     1       4.529   3.782   2.107  0.00  0.00    +0.042 A 
ATOM     17  C   UNL     1       5.467   3.902   1.095  0.00  0.00    +0.124 A 
ATOM     18  C   UNL     1       5.124   3.589  -0.209  0.00  0.00    +0.042 A 
ATOM     19  C   UNL     1       3.847   3.150  -0.502  0.00  0.00    +0.048 A 
ATOM     20  F   UNL     1       6.718   4.325   1.381  0.00  0.00    -0.205 F 
ENDBRANCH  13  14
ENDBRANCH  12  13
ENDBRANCH   7  12
ENDBRANCH   1   9
BRANCH   4  21
ATOM     21  C   UNL     1      -3.995  -0.342   4.671  0.00  0.00    +0.095 C 
BRANCH  21  22
ATOM     22  C   UNL     1      -3.775   0.413   5.983  0.00  0.00    -0.020 C 
BRANCH  22  23
ATOM     23  C   UNL     1      -4.066   1.877   5.775  0.00  0.00    -0.052 A 
ATOM     24  C   UNL     1      -3.034   2.776   5.579  0.00  0.00    +0.009 A 
ATOM     25  C   UNL     1      -3.330   4.086   5.395  0.00  0.00    +0.045 A 
ATOM     26  S   UNL     1      -5.112   4.080   5.497  0.00  0.00    -0.105 S 
ATOM     27  C   UNL     1      -5.343   2.331   5.772  0.00  0.00    +0.047 A 
ENDBRANCH  22  23
BRANCH  22  28
ATOM     28  N   UNL     1      -4.674  -0.123   7.014  0.00  0.00    +0.382 N 
ATOM     29  C   UNL     1      -4.357  -1.537   7.252  0.00  0.00    -0.096 C 
ATOM     30  C   UNL     1      -4.498   0.635   8.260  0.00  0.00    -0.096 C 
ATOM     31  H   UNL     1      -5.630  -0.040   6.702  0.00  0.00    -0.082 HD
ENDBRANCH  22  28
ENDBRANCH  21  22
ENDBRANCH   4  21
TORSDOF 8
