REMARK  Name = ZINC09127263
REMARK  9 active torsions:
REMARK  status: ('A' for Active; 'I' for Inactive)
REMARK    1  A    between atoms: C_1  and  C_2
REMARK    2  A    between atoms: C_5  and  N_8
REMARK    3  A    between atoms: C_11  and  C_16
REMARK    4  A    between atoms: C_16  and  N_59
REMARK    5  A    between atoms: C_20  and  C_22
REMARK    6  A    between atoms: C_24  and  O_30
REMARK    7  A    between atoms: C_27  and  O_28
REMARK    8  A    between atoms: O_28  and  C_29
REMARK    9  A    between atoms: O_30  and  C_31
REMARK                            x       y       z     vdW  Elec       q    Type
REMARK                         _______ _______ _______ _____ _____    ______ ____
ROOT
ATOM      1  N   UNL     1       5.250   5.204  -0.170  0.00  0.00    -0.284 N 
ATOM      2  C   UNL     1       4.905   4.167  -1.015  0.00  0.00    +0.224 A 
ATOM      3  N   UNL     1       4.292   3.089  -0.530  0.00  0.00    -0.201 NA
ATOM      4  C   UNL     1       3.960   2.096  -1.338  0.00  0.00    +0.120 A 
ATOM      5  N   UNL     1       4.240   2.167  -2.627  0.00  0.00    -0.202 NA
ATOM      6  C   UNL     1       4.849   3.244  -3.120  0.00  0.00    +0.217 A 
ATOM      7  N   UNL     1       5.183   4.244  -2.312  0.00  0.00    -0.181 NA
ATOM      8  N   UNL     1       5.136   3.319  -4.468  0.00  0.00    -0.327 N 
ATOM      9  H   UNL     1       4.976   5.184   0.760  0.00  0.00    +0.155 HD
ATOM     10  H   UNL     1       5.583   4.102  -4.825  0.00  0.00    +0.145 HD
ATOM     11  H   UNL     1       4.892   2.589  -5.057  0.00  0.00    +0.145 HD
ENDROOT
BRANCH   1  16
ATOM     12  C   UNL     1       8.272   9.581  -2.142  0.00  0.00    +0.044 C 
ATOM     13  C   UNL     1       7.469   8.418  -1.618  0.00  0.00    -0.050 A 
ATOM     14  C   UNL     1       6.529   8.621  -0.625  0.00  0.00    +0.005 A 
ATOM     15  C   UNL     1       5.791   7.557  -0.143  0.00  0.00    +0.023 A 
ATOM     16  C   UNL     1       5.995   6.283  -0.656  0.00  0.00    +0.034 A 
ATOM     17  C   UNL     1       6.945   6.082  -1.650  0.00  0.00    +0.023 A 
ATOM     18  C   UNL     1       7.675   7.150  -2.131  0.00  0.00    +0.005 A 
ENDBRANCH   1  16
BRANCH   4  19
ATOM     19  C   UNL     1       3.267   0.878  -0.785  0.00  0.00    -0.000 C 
BRANCH  19  24
ATOM     20  C   UNL     1       1.375   2.057   0.194  0.00  0.00    -0.077 C 
ATOM     21  C   UNL     1      -0.135   1.750   0.356  0.00  0.00    -0.020 C 
ATOM     22  C   UNL     1      -0.190   0.210   0.230  0.00  0.00    -0.012 C 
ATOM     23  C   UNL     1       1.094  -0.178  -0.526  0.00  0.00    -0.033 C 
ATOM     24  N   UNL     1       1.788   1.081  -0.822  0.00  0.00    +0.389 N 
ATOM     25  H   UNL     1       1.517   1.417  -1.754  0.00  0.00    -0.080 HD
BRANCH  23  26
ATOM     26  C   UNL     1       0.741  -0.894  -1.804  0.00  0.00    -0.016 A 
ATOM     27  C   UNL     1       0.727  -0.204  -3.001  0.00  0.00    +0.051 A 
ATOM     28  C   UNL     1       0.402  -0.863  -4.178  0.00  0.00    +0.121 A 
ATOM     29  C   UNL     1       0.092  -2.214  -4.152  0.00  0.00    +0.049 A 
ATOM     30  C   UNL     1       0.105  -2.904  -2.956  0.00  0.00    +0.049 A 
ATOM     31  C   UNL     1       0.435  -2.246  -1.780  0.00  0.00    +0.122 A 
BRANCH  31  32
ATOM     32  O   UNL     1       0.455  -2.926  -0.603  0.00  0.00    -0.495 OA
ATOM     33  C   UNL     1       0.129  -4.317  -0.652  0.00  0.00    +0.277 C 
ENDBRANCH  31  32
BRANCH  28  34
ATOM     34  O   UNL     1       0.389  -0.183  -5.356  0.00  0.00    -0.495 OA
ATOM     35  C   UNL     1       0.046  -0.925  -6.528  0.00  0.00    +0.277 C 
ENDBRANCH  28  34
ENDBRANCH  23  26
ENDBRANCH  19  24
ENDBRANCH   4  19
TORSDOF 6
