REMARK  Name = ZINC62080413
REMARK  8 active torsions:
REMARK  status: ('A' for Active; 'I' for Inactive)
REMARK    1  A    between atoms: C_1  and  C_2
REMARK    2  A    between atoms: C_2  and  C_4
REMARK    3  A    between atoms: C_2  and  C_16
REMARK    4  A    between atoms: C_4  and  N_5
REMARK    5  A    between atoms: N_5  and  C_6
REMARK    6  A    between atoms: C_9  and  C_13
REMARK    7  A    between atoms: C_13  and  N_15
REMARK    8  A    between atoms: C_16  and  N_17
REMARK                            x       y       z     vdW  Elec       q    Type
REMARK                         _______ _______ _______ _____ _____    ______ ____
ROOT
ATOM      1  N   UNL     1       2.148  -0.104   1.172  0.00  0.00    -0.344 N 
ATOM      2  H   UNL     1       2.462   0.428   0.424  0.00  0.00    +0.146 HD
ENDROOT
BRANCH   1   3
ATOM      3  C   UNL     1       3.024  -0.452   2.194  0.00  0.00    +0.029 A 
ATOM      4  C   UNL     1       2.573  -1.221   3.264  0.00  0.00    +0.023 A 
ATOM      5  C   UNL     1       3.437  -1.568   4.277  0.00  0.00    +0.013 A 
ATOM      6  C   UNL     1       4.770  -1.148   4.232  0.00  0.00    +0.021 A 
ATOM      7  C   UNL     1       5.221  -0.376   3.156  0.00  0.00    +0.052 A 
ATOM      8  C   UNL     1       4.351  -0.036   2.142  0.00  0.00    +0.043 A 
ATOM      9 CL   UNL     1       6.875   0.149   3.094  0.00  0.00    -0.083 Cl
BRANCH   6  10
ATOM     10  C   UNL     1       5.697  -1.518   5.315  0.00  0.00    +0.078 C 
ATOM     11  S   UNL     1       7.364  -1.149   5.178  0.00  0.00    -0.035 S 
BRANCH  10  12
ATOM     12  N   UNL     1       5.234  -2.146   6.414  0.00  0.00    -0.352 N 
ATOM     13  H   UNL     1       4.305  -2.420   6.460  0.00  0.00    +0.143 HD
ATOM     14  H   UNL     1       5.830  -2.324   7.158  0.00  0.00    +0.143 HD
ENDBRANCH  10  12
ENDBRANCH   6  10
ENDBRANCH   1   3
BRANCH   1  15
ATOM     15  C   UNL     1       0.750  -0.540   1.225  0.00  0.00    +0.103 C 
BRANCH  15  17
ATOM     16  C   UNL     1      -0.044   1.502   0.024  0.00  0.00    +0.007 C 
ATOM     17  C   UNL     1       0.008  -0.027  -0.011  0.00  0.00    -0.014 C 
BRANCH  17  18
ATOM     18  C   UNL     1      -1.416  -0.586  -0.020  0.00  0.00    -0.074 C 
BRANCH  18  19
ATOM     19  N   UNL     1      -2.089  -0.191  -1.264  0.00  0.00    +0.380 N 
ATOM     20  C   UNL     1      -1.476  -0.891  -2.422  0.00  0.00    -0.079 C 
ATOM     21  C   UNL     1      -2.588  -0.835  -3.500  0.00  0.00    -0.020 C 
ATOM     22  C   UNL     1      -3.880  -1.029  -2.673  0.00  0.00    -0.020 C 
ATOM     23  C   UNL     1      -3.504  -0.620  -1.237  0.00  0.00    -0.079 C 
ATOM     24  H   UNL     1      -2.031   0.808  -1.390  0.00  0.00    -0.082 HD
ENDBRANCH  18  19
ENDBRANCH  17  18
ENDBRANCH  15  17
ENDBRANCH   1  15
TORSDOF 7
