REMARK  Name = ZINC28288695
REMARK  12 active torsions:
REMARK  status: ('A' for Active; 'I' for Inactive)
REMARK    1  A    between atoms: C_1  and  C_2
REMARK    2  A    between atoms: C_4  and  O_9
REMARK    3  A    between atoms: O_9  and  C_10
REMARK    4  A    between atoms: C_10  and  C_11
REMARK    5  A    between atoms: N_13  and  C_14
REMARK    6  A    between atoms: C_14  and  C_15
REMARK    7  A    between atoms: C_15  and  C_17
REMARK    8  A    between atoms: C_15  and  N_27
REMARK    9  A    between atoms: C_20  and  C_23
REMARK   10  A    between atoms: C_23  and  C_24
REMARK   11  A    between atoms: C_23  and  C_25
REMARK   12  A    between atoms: C_23  and  C_26
REMARK                            x       y       z     vdW  Elec       q    Type
REMARK                         _______ _______ _______ _____ _____    ______ ____
ROOT
ATOM      1  C   UNL     1       2.422   0.741   0.109  0.00  0.00    -0.020 C 
ENDROOT
BRANCH   1   2
ATOM      2  C   UNL     1       3.447   1.726   0.609  0.00  0.00    -0.059 A 
ATOM      3  C   UNL     1       3.429   2.132   1.930  0.00  0.00    +0.002 A 
ATOM      4  C   UNL     1       4.372   3.032   2.390  0.00  0.00    +0.004 A 
ATOM      5  C   UNL     1       5.327   3.534   1.526  0.00  0.00    -0.042 A 
ATOM      6  C   UNL     1       5.342   3.133   0.203  0.00  0.00    +0.004 A 
ATOM      7  C   UNL     1       4.402   2.229  -0.255  0.00  0.00    +0.002 A 
BRANCH   5   8
ATOM      8  C   UNL     1       6.352   4.520   2.026  0.00  0.00    -0.013 C 
ATOM      9  C   UNL     1       6.227   5.827   1.242  0.00  0.00    +0.015 C 
ATOM     10  C   UNL     1       6.114   4.792   3.513  0.00  0.00    +0.015 C 
ATOM     11  C   UNL     1       7.754   3.940   1.832  0.00  0.00    +0.015 C 
ENDBRANCH   5   8
ENDBRANCH   1   2
BRANCH   1  12
ATOM     12  N   UNL     1       2.282  -0.354   1.078  0.00  0.00    +0.385 N 
ATOM     13  C   UNL     1       1.484  -1.470   0.508  0.00  0.00    -0.078 C 
ATOM     14  C   UNL     1       1.879  -2.677   1.396  0.00  0.00    -0.020 C 
ATOM     15  C   UNL     1       3.385  -2.439   1.653  0.00  0.00    -0.020 C 
ATOM     16  C   UNL     1       3.600  -0.933   1.417  0.00  0.00    -0.078 C 
ATOM     17  H   UNL     1       1.796   0.087   1.960  0.00  0.00    -0.081 HD
ENDBRANCH   1  12
BRANCH   1  18
ATOM     18  C   UNL     1       1.076   1.448  -0.061  0.00  0.00    +0.093 C 
BRANCH  18  21
ATOM     19  C   UNL     1      -1.164   0.897  -0.847  0.00  0.00    +0.251 C 
ATOM     20  O   UNL     1      -1.549   1.958  -0.401  0.00  0.00    -0.272 OA
ATOM     21  N   UNL     1       0.131   0.546  -0.726  0.00  0.00    -0.314 N 
ATOM     22  H   UNL     1       0.480  -0.417  -1.126  0.00  0.00    +0.149 HD
BRANCH  19  23
ATOM     23  C   UNL     1      -2.134  -0.027  -1.536  0.00  0.00    +0.324 C 
BRANCH  23  24
ATOM     24  O   UNL     1      -3.436   0.563  -1.538  0.00  0.00    -0.483 OA
BRANCH  24  28
ATOM     25  C   UNL     1      -8.136   0.201  -2.802  0.00  0.00    +0.045 C 
ATOM     26  C   UNL     1      -6.736  -0.356  -2.762  0.00  0.00    -0.029 A 
ATOM     27  C   UNL     1      -5.722   0.367  -2.163  0.00  0.00    +0.050 A 
ATOM     28  C   UNL     1      -4.434  -0.147  -2.126  0.00  0.00    +0.122 A 
ATOM     29  C   UNL     1      -4.166  -1.384  -2.694  0.00  0.00    +0.047 A 
ATOM     30  C   UNL     1      -5.183  -2.106  -3.287  0.00  0.00    +0.024 A 
ATOM     31  C   UNL     1      -6.468  -1.592  -3.323  0.00  0.00    +0.044 A 
ATOM     32 CL   UNL     1      -7.743  -2.499  -4.074  0.00  0.00    -0.083 Cl
ENDBRANCH  24  28
ENDBRANCH  23  24
ENDBRANCH  19  23
ENDBRANCH  18  21
ENDBRANCH   1  18
TORSDOF 8
