REMARK  Name = ZINC66152924
REMARK  5 active torsions:
REMARK  status: ('A' for Active; 'I' for Inactive)
REMARK    1  A    between atoms: C_4  and  C_7
REMARK    2  A    between atoms: N_9  and  C_10
REMARK    3  A    between atoms: C_13  and  N_16
REMARK    4  A    between atoms: C_17  and  C_19
REMARK    5  A    between atoms: C_19  and  C_20
REMARK                            x       y       z     vdW  Elec       q    Type
REMARK                         _______ _______ _______ _____ _____    ______ ____
ROOT
ATOM      1  C   UNL     1       4.957  -2.676   0.049  0.00  0.00    +0.034 A 
ATOM      2  C   UNL     1       6.113  -1.911   0.134  0.00  0.00    +0.025 A 
ATOM      3  C   UNL     1       7.346  -2.529   0.201  0.00  0.00    +0.025 A 
ATOM      4  C   UNL     1       7.430  -3.915   0.184  0.00  0.00    +0.033 A 
ATOM      5  C   UNL     1       6.274  -4.680   0.100  0.00  0.00    +0.025 A 
ATOM      6  C   UNL     1       5.040  -4.062   0.038  0.00  0.00    +0.025 A 
ENDROOT
BRANCH   1   9
ATOM      7  C   UNL     1       2.639  -2.609   0.582  0.00  0.00    +0.248 C 
ATOM      8  O   UNL     1       2.741  -3.699   1.112  0.00  0.00    -0.270 OA
ATOM      9  N   UNL     1       3.707  -2.049  -0.019  0.00  0.00    -0.282 N 
ATOM     10  H   UNL     1       3.610  -1.212  -0.499  0.00  0.00    +0.155 HD
BRANCH   7  14
ATOM     11  C   UNL     1      -1.085  -0.567   0.629  0.00  0.00    +0.000 A 
ATOM     12  C   UNL     1      -0.972  -1.807   1.232  0.00  0.00    +0.001 A 
ATOM     13  C   UNL     1       0.234  -2.476   1.220  0.00  0.00    +0.013 A 
ATOM     14  C   UNL     1       1.343  -1.899   0.598  0.00  0.00    +0.037 A 
ATOM     15  C   UNL     1       1.222  -0.647  -0.008  0.00  0.00    +0.013 A 
ATOM     16  C   UNL     1       0.009   0.011   0.011  0.00  0.00    +0.001 A 
ENDBRANCH   7  14
ENDBRANCH   1   9
BRANCH   4  17
ATOM     17  N   UNL     1       8.681  -4.542   0.252  0.00  0.00    -0.286 N 
ATOM     18  C   UNL     1       8.898  -5.687  -0.425  0.00  0.00    +0.216 C 
ATOM     19  O   UNL     1       7.988  -6.219  -1.025  0.00  0.00    -0.276 OA
ATOM     20  H   UNL     1       9.390  -4.152   0.786  0.00  0.00    +0.155 HD
BRANCH  18  21
ATOM     21  C   UNL     1      10.272  -6.306  -0.437  0.00  0.00    +0.089 C 
BRANCH  21  22
ATOM     22  C   UNL     1      10.247  -7.588  -1.272  0.00  0.00    +0.025 C 
ATOM     23  C   UNL     1      11.642  -8.133  -1.389  0.00  0.00    +0.199 C 
ATOM     24  O   UNL     1      12.554  -7.359  -1.586  0.00  0.00    -0.278 OA
ATOM     25  N   UNL     1      11.918  -9.438  -1.286  0.00  0.00    -0.318 N 
ATOM     26  C   UNL     1      10.890 -10.442  -1.022  0.00  0.00    +0.085 C 
ATOM     27  C   UNL     1       9.506  -9.861  -1.321  0.00  0.00    -0.063 C 
ATOM     28  N   UNL     1       9.374  -8.574  -0.622  0.00  0.00    +0.388 N 
ATOM     29  H   UNL     1      12.837  -9.729  -1.390  0.00  0.00    +0.149 HD
ATOM     30  H   UNL     1       9.647  -8.683   0.343  0.00  0.00    -0.085 HD
ATOM     31  H   UNL     1       8.416  -8.262  -0.671  0.00  0.00    -0.085 HD
ENDBRANCH  21  22
ENDBRANCH  18  21
ENDBRANCH   4  17
TORSDOF 5
