REMARK  Name = ZINC63709805
REMARK  10 active torsions:
REMARK  status: ('A' for Active; 'I' for Inactive)
REMARK    1  A    between atoms: C_1  and  O_2
REMARK    2  A    between atoms: O_2  and  C_3
REMARK    3  A    between atoms: C_6  and  C_11
REMARK    4  A    between atoms: C_8  and  O_9
REMARK    5  A    between atoms: O_9  and  C_10
REMARK    6  A    between atoms: C_14  and  C_38
REMARK    7  A    between atoms: C_20  and  C_24
REMARK    8  A    between atoms: N_26  and  C_27
REMARK    9  A    between atoms: C_27  and  C_28
REMARK   10  A    between atoms: C_28  and  C_29
REMARK                            x       y       z     vdW  Elec       q    Type
REMARK                         _______ _______ _______ _____ _____    ______ ____
ROOT
ATOM      1  C   UNL     1       2.590  -2.548   4.315  0.00  0.00    +0.087 C 
ATOM      2  C   UNL     1       4.085  -2.649   4.015  0.00  0.00    +0.052 C 
ATOM      3  C   UNL     1       4.732  -1.254   4.013  0.00  0.00    +0.180 C 
ATOM      4  N   UNL     1       4.421  -0.630   5.293  0.00  0.00    -0.213 NA
ATOM      5  C   UNL     1       2.947  -0.446   5.395  0.00  0.00    +0.153 C 
ATOM      6  N   UNL     1       2.353  -1.770   5.547  0.00  0.00    -0.293 NA
ATOM      7  C   UNL     1       2.809   0.457   6.628  0.00  0.00    +0.123 C 
ATOM      8  C   UNL     1       4.152   1.229   6.667  0.00  0.00    +0.114 C 
ATOM      9  N   UNL     1       4.951   0.703   5.524  0.00  0.00    -0.251 NA
ATOM     10  H   UNL     1       1.367  -1.702   5.748  0.00  0.00    +0.124 HD
ATOM     11  H   UNL     1       4.838   1.284   4.706  0.00  0.00    +0.141 HD
ENDROOT
BRANCH   1  15
ATOM     12  C   UNL     1       0.620  -0.622   1.044  0.00  0.00    +0.162 A 
ATOM     13  C   UNL     1       0.066  -0.577   2.313  0.00  0.00    +0.050 A 
ATOM     14  C   UNL     1       0.705  -1.201   3.369  0.00  0.00    +0.009 A 
ATOM     15  C   UNL     1       1.897  -1.870   3.161  0.00  0.00    -0.027 A 
ATOM     16  C   UNL     1       2.455  -1.918   1.897  0.00  0.00    +0.054 A 
ATOM     17  C   UNL     1       1.817  -1.300   0.834  0.00  0.00    +0.162 A 
BRANCH  12  19
ATOM     18  C   UNL     1      -1.232   0.668   0.294  0.00  0.00    +0.277 C 
ATOM     19  O   UNL     1      -0.007  -0.009   0.004  0.00  0.00    -0.491 OA
ENDBRANCH  12  19
BRANCH  17  20
ATOM     20  O   UNL     1       2.362  -1.351  -0.411  0.00  0.00    -0.491 OA
ATOM     21  C   UNL     1       3.592  -2.065  -0.552  0.00  0.00    +0.277 C 
ENDBRANCH  17  20
ENDBRANCH   1  15
BRANCH   7  22
ATOM     22  C   UNL     1       1.652   1.408   6.462  0.00  0.00    +0.220 C 
ATOM     23  O   UNL     1       0.984   1.379   5.450  0.00  0.00    -0.275 OA
ATOM     24  N   UNL     1       1.360   2.290   7.437  0.00  0.00    -0.315 N 
ATOM     25  H   UNL     1       1.894   2.313   8.246  0.00  0.00    +0.149 HD
BRANCH  24  26
ATOM     26  C   UNL     1       0.235   3.214   7.276  0.00  0.00    +0.108 C 
BRANCH  26  27
ATOM     27  C   UNL     1       0.121   4.101   8.518  0.00  0.00    +0.052 C 
BRANCH  27  28
ATOM     28  C   UNL     1      -1.036   5.052   8.351  0.00  0.00    -0.040 C 
ATOM     29  C   UNL     1      -2.299   4.884   8.806  0.00  0.00    -0.001 A 
ATOM     30  C   UNL     1      -2.948   3.805   9.562  0.00  0.00    +0.010 A 
ATOM     31  C   UNL     1      -4.257   3.923   9.878  0.00  0.00    +0.001 A 
ATOM     32  C   UNL     1      -5.008   5.046   9.504  0.00  0.00    +0.002 A 
ATOM     33  C   UNL     1      -4.482   6.077   8.809  0.00  0.00    +0.026 A 
ATOM     34  C   UNL     1      -3.113   6.059   8.423  0.00  0.00    +0.043 A 
ATOM     35  N   UNL     1      -2.383   6.920   7.758  0.00  0.00    -0.380 N 
ATOM     36  C   UNL     1      -1.019   6.391   7.648  0.00  0.00    +0.144 C 
ATOM     37  H   UNL     1      -2.692   7.768   7.401  0.00  0.00    +0.160 HD
ENDBRANCH  27  28
ENDBRANCH  26  27
ENDBRANCH  24  26
ENDBRANCH   7  22
BRANCH   3  38
ATOM     38  C   UNL     1       6.247  -1.384   3.851  0.00  0.00    +0.406 C 
ATOM     39  F   UNL     1       6.533  -2.027   2.642  0.00  0.00    -0.169 F 
ATOM     40  F   UNL     1       6.827  -0.111   3.851  0.00  0.00    -0.169 F 
ATOM     41  F   UNL     1       6.768  -2.134   4.912  0.00  0.00    -0.169 F 
ENDBRANCH   3  38
TORSDOF 8
