REMARK  Name = ZINC35566135
REMARK  7 active torsions:
REMARK  status: ('A' for Active; 'I' for Inactive)
REMARK    1  A    between atoms: C_1  and  C_2
REMARK    2  A    between atoms: C_3  and  C_8
REMARK    3  A    between atoms: C_5  and  C_7
REMARK    4  A    between atoms: C_8  and  C_10
REMARK    5  A    between atoms: C_15  and  C_17
REMARK    6  A    between atoms: C_20  and  N_23
REMARK    7  A    between atoms: C_29  and  C_31
REMARK                            x       y       z     vdW  Elec       q    Type
REMARK                         _______ _______ _______ _____ _____    ______ ____
ROOT
ATOM      1  C   UNL     1      -0.057  -1.183  -3.977  0.00  0.00    +0.077 C 
ATOM      2  C   UNL     1       0.075  -1.013  -5.312  0.00  0.00    +0.250 C 
ATOM      3  C   UNL     1       0.267  -2.329  -5.952  0.00  0.00    +0.293 C 
ATOM      4  O   UNL     1       0.416  -2.510  -7.145  0.00  0.00    -0.266 OA
ATOM      5  N   UNL     1       0.252  -3.300  -5.021  0.00  0.00    -0.230 N 
ATOM      6  C   UNL     1       0.056  -2.666  -3.712  0.00  0.00    +0.152 C 
ATOM      7  C   UNL     1       0.403  -4.661  -5.256  0.00  0.00    +0.191 A 
ATOM      8  N   UNL     1       0.395  -5.679  -4.406  0.00  0.00    -0.125 NA
ATOM      9  N   UNL     1       0.548  -6.870  -4.794  0.00  0.00    -0.145 NA
ATOM     10  C   UNL     1       0.725  -7.177  -6.064  0.00  0.00    +0.101 A 
ATOM     11  S   UNL     1       0.655  -5.543  -6.793  0.00  0.00    -0.035 S 
ATOM     12  C   UNL     1       0.923  -8.521  -6.716  0.00  0.00    +0.075 C 
ATOM     13  O   UNL     1       0.038   0.175  -5.960  0.00  0.00    -0.282 OA
ENDROOT
BRANCH   6  14
ATOM     14  C   UNL     1      -1.212  -3.177  -3.077  0.00  0.00    -0.022 A 
ATOM     15  C   UNL     1      -2.353  -3.336  -3.841  0.00  0.00    +0.008 A 
ATOM     16  C   UNL     1      -3.515  -3.805  -3.259  0.00  0.00    +0.033 A 
ATOM     17  C   UNL     1      -3.537  -4.115  -1.912  0.00  0.00    +0.126 A 
ATOM     18  C   UNL     1      -2.396  -3.958  -1.148  0.00  0.00    +0.033 A 
ATOM     19  C   UNL     1      -1.232  -3.493  -1.731  0.00  0.00    +0.008 A 
BRANCH  17  20
ATOM     20  N   UNL     1      -4.782  -4.617  -1.288  0.00  0.00    +0.056 N 
ATOM     21  O   UNL     1      -5.780  -4.754  -1.956  0.00  0.00    -0.126 OA
ATOM     22  O   UNL     1      -4.801  -4.888  -0.110  0.00  0.00    -0.126 OA
ENDBRANCH  17  20
ENDBRANCH   6  14
BRANCH   1  23
ATOM     23  C   UNL     1      -0.265  -0.129  -2.977  0.00  0.00    +0.203 C 
ATOM     24  O   UNL     1      -1.292   0.525  -2.985  0.00  0.00    -0.286 OA
BRANCH  23  27
ATOM     25  C   UNL     1      -0.285   2.137  -0.820  0.00  0.00    +0.067 C 
ATOM     26  C   UNL     1       0.816   1.122  -0.987  0.00  0.00    +0.057 A 
ATOM     27  C   UNL     1       0.766   0.138  -1.968  0.00  0.00    +0.082 A 
ATOM     28  S   UNL     1       2.305  -0.711  -1.655  0.00  0.00    -0.069 S 
ATOM     29  C   UNL     1       2.834   0.231  -0.365  0.00  0.00    +0.076 A 
ATOM     30  N   UNL     1       1.877   1.120  -0.220  0.00  0.00    -0.249 NA
ATOM     31  C   UNL     1       4.105   0.092   0.431  0.00  0.00    +0.073 C 
ENDBRANCH  23  27
ENDBRANCH   1  23
TORSDOF 4
