REMARK  Name = ZINC02330245
REMARK  8 active torsions:
REMARK  status: ('A' for Active; 'I' for Inactive)
REMARK    1  A    between atoms: C_1  and  C_2
REMARK    2  A    between atoms: C_4  and  C_28
REMARK    3  A    between atoms: C_6  and  N_8
REMARK    4  A    between atoms: N_8  and  C_9
REMARK    5  A    between atoms: C_9  and  N_11
REMARK    6  A    between atoms: C_16  and  C_17
REMARK    7  A    between atoms: C_16  and  N_53
REMARK    8  A    between atoms: N_19  and  C_20
REMARK                            x       y       z     vdW  Elec       q    Type
REMARK                         _______ _______ _______ _____ _____    ______ ____
ROOT
ATOM      1  N   UNL     1      -4.583   9.264  -1.498  0.00  0.00    -0.316 N 
ATOM      2  C   UNL     1      -3.548   9.871  -0.647  0.00  0.00    +0.088 C 
ATOM      3  C   UNL     1      -2.216   9.165  -0.921  0.00  0.00    -0.059 C 
ATOM      4  C   UNL     1      -3.347   7.175  -1.724  0.00  0.00    -0.059 C 
ATOM      5  C   UNL     1      -4.725   7.800  -1.483  0.00  0.00    +0.088 C 
ATOM      6  N   UNL     1      -2.401   7.711  -0.721  0.00  0.00    +0.387 N 
ATOM      7  H   UNL     1      -2.784   7.550   0.218  0.00  0.00    -0.081 HD
ENDROOT
BRANCH   1   8
ATOM      8  C   UNL     1      -5.380  10.028  -2.270  0.00  0.00    +0.137 C 
ATOM      9  S   UNL     1      -5.095  11.712  -2.392  0.00  0.00    -0.018 S 
BRANCH   8  10
ATOM     10  N   UNL     1      -6.402   9.467  -2.947  0.00  0.00    -0.297 N 
ATOM     11  H   UNL     1      -6.533   8.507  -2.919  0.00  0.00    +0.154 HD
BRANCH  10  17
ATOM     12  C   UNL     1     -10.989  10.613  -4.293  0.00  0.00    +0.044 C 
ATOM     13  C   UNL     1      -9.502  10.848  -4.361  0.00  0.00    -0.048 A 
ATOM     14  C   UNL     1      -8.998  11.859  -5.159  0.00  0.00    +0.006 A 
ATOM     15  C   UNL     1      -7.635  12.078  -5.224  0.00  0.00    -0.048 A 
ATOM     16  C   UNL     1      -6.771  11.287  -4.492  0.00  0.00    +0.026 A 
ATOM     17  C   UNL     1      -7.274  10.271  -3.689  0.00  0.00    +0.033 A 
ATOM     18  C   UNL     1      -8.644  10.050  -3.630  0.00  0.00    +0.026 A 
ATOM     19  C   UNL     1      -7.090  13.181  -6.094  0.00  0.00    +0.044 C 
ENDBRANCH  10  17
ENDBRANCH   8  10
ENDBRANCH   1   8
BRANCH   6  20
ATOM     20  C   UNL     1      -1.101   7.018  -0.833  0.00  0.00    +0.019 C 
BRANCH  20  21
ATOM     21  C   UNL     1      -1.278   5.582  -0.413  0.00  0.00    +0.201 C 
ATOM     22  O   UNL     1      -2.372   5.179  -0.075  0.00  0.00    -0.278 OA
ATOM     23  N   UNL     1      -0.223   4.744  -0.411  0.00  0.00    -0.287 N 
ATOM     24  H   UNL     1       0.660   5.076  -0.637  0.00  0.00    +0.155 HD
BRANCH  23  25
ATOM     25  C   UNL     1      -0.400   3.395  -0.083  0.00  0.00    +0.036 A 
ATOM     26  C   UNL     1      -1.322   3.031   0.890  0.00  0.00    +0.043 A 
ATOM     27  C   UNL     1      -1.495   1.698   1.212  0.00  0.00    +0.044 A 
ATOM     28  C   UNL     1      -0.750   0.727   0.567  0.00  0.00    +0.040 A 
ATOM     29  C   UNL     1       0.174   1.087  -0.399  0.00  0.00    +0.044 A 
ATOM     30  C   UNL     1       0.346   2.419  -0.730  0.00  0.00    +0.043 A 
ATOM     31 CL   UNL     1       1.112  -0.134  -1.201  0.00  0.00    -0.083 Cl
ATOM     32 CL   UNL     1      -2.647   1.242   2.428  0.00  0.00    -0.083 Cl
ENDBRANCH  23  25
ENDBRANCH  20  21
ENDBRANCH   6  20
TORSDOF 6
