REMARK  Name = ZINC62217536
REMARK  8 active torsions:
REMARK  status: ('A' for Active; 'I' for Inactive)
REMARK    1  A    between atoms: C_1  and  C_2
REMARK    2  A    between atoms: C_5  and  C_8
REMARK    3  A    between atoms: C_8  and  C_9
REMARK    4  A    between atoms: C_9  and  C_10
REMARK    5  A    between atoms: C_11  and  C_22
REMARK    6  A    between atoms: N_14  and  C_15
REMARK    7  A    between atoms: C_18  and  O_21
REMARK    8  A    between atoms: C_22  and  N_23
REMARK                            x       y       z     vdW  Elec       q    Type
REMARK                         _______ _______ _______ _____ _____    ______ ____
ROOT
ATOM      1  C   UNL     1       1.793  -6.297  -0.163  0.00  0.00    +0.066 A 
ATOM      2  C   UNL     1       1.629  -7.190   0.841  0.00  0.00    +0.069 A 
ATOM      3  N   UNL     1       1.344  -8.363   0.265  0.00  0.00    -0.136 NA
ATOM      4  N   UNL     1       1.331  -8.211  -1.012  0.00  0.00    -0.060 NA
ATOM      5  N   UNL     1       1.590  -6.987  -1.318  0.00  0.00    -0.217 N 
ENDROOT
BRANCH   5   6
ATOM      6  C   UNL     1       1.655  -6.458  -2.616  0.00  0.00    +0.068 A 
ATOM      7  C   UNL     1       1.065  -5.233  -2.897  0.00  0.00    +0.031 A 
ATOM      8  C   UNL     1       1.129  -4.713  -4.174  0.00  0.00    +0.047 A 
ATOM      9  C   UNL     1       1.783  -5.415  -5.177  0.00  0.00    +0.117 A 
ATOM     10  C   UNL     1       2.372  -6.639  -4.897  0.00  0.00    +0.047 A 
ATOM     11  C   UNL     1       2.313  -7.157  -3.618  0.00  0.00    +0.031 A 
BRANCH   9  12
ATOM     12  O   UNL     1       1.845  -4.903  -6.434  0.00  0.00    -0.507 OA
ATOM     13  H   UNL     1       2.619  -4.344  -6.594  0.00  0.00    +0.292 HD
ENDBRANCH   9  12
ENDBRANCH   5   6
BRANCH   1  14
ATOM     14  C   UNL     1       2.126  -4.833  -0.028  0.00  0.00    +0.062 C 
BRANCH  14  15
ATOM     15  C   UNL     1       3.637  -4.639  -0.172  0.00  0.00    +0.041 C 
BRANCH  15  20
ATOM     16  C   UNL     1       4.927   0.963   0.424  0.00  0.00    +0.044 C 
ATOM     17  C   UNL     1       4.590  -0.498   0.268  0.00  0.00    -0.050 A 
ATOM     18  C   UNL     1       4.567  -1.324   1.377  0.00  0.00    +0.003 A 
ATOM     19  C   UNL     1       4.259  -2.664   1.234  0.00  0.00    +0.004 A 
ATOM     20  C   UNL     1       3.972  -3.178  -0.017  0.00  0.00    -0.047 A 
ATOM     21  C   UNL     1       3.994  -2.352  -1.125  0.00  0.00    +0.004 A 
ATOM     22  C   UNL     1       4.299  -1.011  -0.982  0.00  0.00    +0.003 A 
ENDBRANCH  15  20
ENDBRANCH  14  15
ENDBRANCH   1  14
BRANCH   2  23
ATOM     23  C   UNL     1       1.745  -6.916   2.319  0.00  0.00    -0.026 C 
BRANCH  23  24
ATOM     24  N   UNL     1       0.432  -6.524   2.849  0.00  0.00    +0.382 N 
ATOM     25  H   UNL     1       0.510  -6.341   3.838  0.00  0.00    -0.090 HD
ATOM     26  H   UNL     1       0.115  -5.691   2.377  0.00  0.00    -0.090 HD
ATOM     27  H   UNL     1      -0.229  -7.270   2.696  0.00  0.00    -0.090 HD
ENDBRANCH  23  24
ENDBRANCH   2  23
TORSDOF 7
