REMARK  Name = ZINC04261888
REMARK  4 active torsions:
REMARK  status: ('A' for Active; 'I' for Inactive)
REMARK    1  A    between atoms: C_6  and  S_7
REMARK    2  A    between atoms: C_13  and  C_14
REMARK    3  A    between atoms: C_19  and  S_28
REMARK    4  A    between atoms: C_21  and  S_24
REMARK                            x       y       z     vdW  Elec       q    Type
REMARK                         _______ _______ _______ _____ _____    ______ ____
ROOT
ATOM      1  C   UNL     1       5.959   0.872  -0.051  0.00  0.00    +0.115 C 
ATOM      2  C   UNL     1       6.776   2.126  -0.045  0.00  0.00    +0.213 C 
ATOM      3  O   UNL     1       6.382   3.274  -0.028  0.00  0.00    -0.285 OA
ATOM      4  C   UNL     1       8.175   1.643  -0.065  0.00  0.00    +0.051 A 
ATOM      5  C   UNL     1       9.408   2.277  -0.070  0.00  0.00    +0.043 A 
ATOM      6  C   UNL     1      10.569   1.521  -0.091  0.00  0.00    +0.122 A 
ATOM      7  C   UNL     1      10.499   0.139  -0.105  0.00  0.00    +0.061 A 
ATOM      8  C   UNL     1       9.276  -0.507  -0.100  0.00  0.00    +0.145 A 
ATOM      9  C   UNL     1       8.093   0.234  -0.079  0.00  0.00    +0.079 A 
ATOM     10  N   UNL     1       6.787  -0.148  -0.064  0.00  0.00    -0.348 N 
ATOM     11  H   UNL     1       6.498  -1.075  -0.066  0.00  0.00    +0.166 HD
ENDROOT
BRANCH   1  20
ATOM     12  C   UNL     1      -0.017   1.384   0.010  0.00  0.00    +0.031 A 
ATOM     13  C   UNL     1       1.159   2.105   0.002  0.00  0.00    +0.028 A 
ATOM     14  C   UNL     1       2.380   1.439  -0.013  0.00  0.00    +0.051 A 
ATOM     15  C   UNL     1       2.394   0.029  -0.021  0.00  0.00    +0.049 A 
ATOM     16  C   UNL     1       1.188  -0.681  -0.013  0.00  0.00    +0.043 A 
ATOM     17  C   UNL     1       0.002  -0.004   0.002  0.00  0.00    +0.120 A 
ATOM     18  C   UNL     1       3.799  -0.374  -0.036  0.00  0.00    +0.213 A 
ATOM     19  O   UNL     1       4.277  -1.642  -0.047  0.00  0.00    -0.285 OA
ATOM     20  C   UNL     1       4.548   0.798  -0.037  0.00  0.00    +0.115 A 
ATOM     21  N   UNL     1       3.686   1.879  -0.023  0.00  0.00    -0.350 N 
ATOM     22  H   UNL     1       3.960   2.810  -0.021  0.00  0.00    +0.166 HD
BRANCH  17  23
ATOM     23  S   UNL     1      -1.516  -0.899   0.012  0.00  0.00    +0.140 S 
ATOM     24  O   UNL     1      -1.260  -2.156   0.699  0.00  0.00    -0.140 OA
ATOM     25  O   UNL     1      -2.485  -0.079   0.722  0.00  0.00    -0.140 OA
ATOM     26  O   UNL     1      -1.893  -1.106  -1.377  0.00  0.00    -0.043 OA
ENDBRANCH  17  23
ENDBRANCH   1  20
BRANCH   8  27
ATOM     27  S   UNL     1       9.212  -2.268  -0.120  0.00  0.00    +0.142 S 
ATOM     28  O   UNL     1       9.211  -2.706   1.267  0.00  0.00    -0.140 OA
ATOM     29  O   UNL     1       7.984  -2.638  -0.807  0.00  0.00    -0.140 OA
ATOM     30  O   UNL     1      10.394  -2.726  -0.834  0.00  0.00    -0.043 OA
ENDBRANCH   8  27
BRANCH   6  31
ATOM     31  S   UNL     1      12.139   2.321  -0.099  0.00  0.00    +0.140 S 
ATOM     32  O   UNL     1      13.055   1.446  -0.814  0.00  0.00    -0.140 OA
ATOM     33  O   UNL     1      11.960   3.594  -0.780  0.00  0.00    -0.140 OA
ATOM     34  O   UNL     1      12.530   2.498   1.291  0.00  0.00    -0.043 OA
ENDBRANCH   6  31
TORSDOF 4
