REMARK  Name = ZINC28295697
REMARK  12 active torsions:
REMARK  status: ('A' for Active; 'I' for Inactive)
REMARK    1  A    between atoms: C_1  and  C_2
REMARK    2  A    between atoms: C_5  and  S_8
REMARK    3  A    between atoms: S_8  and  N_11
REMARK    4  A    between atoms: N_11  and  C_12
REMARK    5  A    between atoms: C_12  and  C_13
REMARK    6  A    between atoms: N_15  and  N_16
REMARK    7  A    between atoms: C_17  and  C_18
REMARK    8  A    between atoms: N_20  and  C_27
REMARK    9  A    between atoms: C_27  and  C_28
REMARK   10  A    between atoms: C_28  and  C_30
REMARK   11  A    between atoms: C_28  and  O_37
REMARK   12  A    between atoms: C_30  and  N_31
REMARK                            x       y       z     vdW  Elec       q    Type
REMARK                         _______ _______ _______ _____ _____    ______ ____
ROOT
ATOM      1  C   UNL     1      -2.552  -6.098  -1.579  0.00  0.00    +0.020 A 
ATOM      2  C   UNL     1      -2.627  -4.762  -1.821  0.00  0.00    +0.096 A 
ATOM      3  N   UNL     1      -2.627  -4.080  -0.641  0.00  0.00    -0.344 N 
ATOM      4  C   UNL     1      -2.559  -4.959   0.418  0.00  0.00    +0.050 A 
ATOM      5  C   UNL     1      -2.509  -6.258  -0.114  0.00  0.00    +0.008 A 
ATOM      6  C   UNL     1      -2.437  -7.359   0.736  0.00  0.00    +0.010 A 
ATOM      7  C   UNL     1      -2.413  -7.167   2.100  0.00  0.00    +0.001 A 
ATOM      8  C   UNL     1      -2.462  -5.884   2.628  0.00  0.00    +0.002 A 
ATOM      9  C   UNL     1      -2.534  -4.786   1.798  0.00  0.00    +0.026 A 
ENDROOT
BRANCH   1  11
ATOM     10  N   UNL     1      -2.456  -8.415  -2.203  0.00  0.00    -0.188 NA
ATOM     11  C   UNL     1      -2.525  -7.175  -2.582  0.00  0.00    +0.140 C 
BRANCH  10  14
ATOM     12  C   UNL     1      -2.359 -10.727  -2.764  0.00  0.00    +0.248 C 
ATOM     13  O   UNL     1      -2.318 -10.998  -1.582  0.00  0.00    -0.273 OA
ATOM     14  N   UNL     1      -2.430  -9.440  -3.158  0.00  0.00    -0.206 N 
ATOM     15  H   UNL     1      -2.467  -9.194  -4.229  0.00  0.00    +0.177 HD
BRANCH  12  16
ATOM     16  C   UNL     1      -2.331 -11.829  -3.792  0.00  0.00    +0.203 C 
BRANCH  16  17
ATOM     17  N   UNL     1      -2.253 -13.126  -3.115  0.00  0.00    -0.181 NA
ATOM     18  H   UNL     1      -1.823 -13.194  -2.105  0.00  0.00    +0.149 HD
BRANCH  17  19
ATOM     19  S   UNL     1      -2.579 -14.517  -3.951  0.00  0.00    +0.059 S 
ATOM     20  O   UNL     1      -2.394 -15.592  -3.040  0.00  0.00    -0.153 OA
ATOM     21  O   UNL     1      -3.804 -14.302  -4.637  0.00  0.00    -0.153 OA
BRANCH  19  26
ATOM     22  C   UNL     1       1.684 -15.094  -8.182  0.00  0.00    +0.044 C 
ATOM     23  C   UNL     1       0.620 -14.950  -7.126  0.00  0.00    -0.050 A 
ATOM     24  C   UNL     1       0.809 -15.503  -5.873  0.00  0.00    +0.005 A 
ATOM     25  C   UNL     1      -0.167 -15.371  -4.904  0.00  0.00    +0.029 A 
ATOM     26  C   UNL     1      -1.334 -14.685  -5.187  0.00  0.00    +0.105 A 
ATOM     27  C   UNL     1      -1.526 -14.136  -6.441  0.00  0.00    +0.029 A 
ATOM     28  C   UNL     1      -0.547 -14.264  -7.409  0.00  0.00    +0.005 A 
ENDBRANCH  19  26
ENDBRANCH  17  19
ENDBRANCH  16  17
ENDBRANCH  12  16
ENDBRANCH  10  14
ENDBRANCH   1  11
BRANCH   3  29
ATOM     29  C   UNL     1      -2.695  -2.622  -0.517  0.00  0.00    +0.151 C 
BRANCH  29  30
ATOM     30  C   UNL     1      -1.280  -2.055  -0.382  0.00  0.00    +0.118 C 
BRANCH  30  31
ATOM     31  O   UNL     1      -0.552  -2.298  -1.588  0.00  0.00    -0.392 OA
ATOM     32  H   UNL     1       0.490  -1.960  -1.679  0.00  0.00    +0.210 HD
ENDBRANCH  30  31
BRANCH  30  33
ATOM     33  C   UNL     1      -1.356  -0.548  -0.128  0.00  0.00    -0.045 C 
BRANCH  33  34
ATOM     34  N   UNL     1       0.002  -0.004   0.002  0.00  0.00    +0.381 N 
ATOM     35  C   UNL     1      -0.018   1.464   0.010  0.00  0.00    -0.079 C 
ATOM     36  C   UNL     1       1.417   1.995  -0.001  0.00  0.00    -0.019 C 
ATOM     37  C   UNL     1       2.160   1.470   1.231  0.00  0.00    -0.004 C 
ATOM     38  C   UNL     1       2.125  -0.061   1.224  0.00  0.00    -0.019 C 
ATOM     39  C   UNL     1       0.669  -0.533   1.199  0.00  0.00    -0.079 C 
ATOM     40  H   UNL     1       0.582  -0.327  -0.875  0.00  0.00    -0.082 HD
ENDBRANCH  33  34
ENDBRANCH  30  33
ENDBRANCH  29  30
ENDBRANCH   3  29
TORSDOF 11
