REMARK  Name = ZINC08793532
REMARK  9 active torsions:
REMARK  status: ('A' for Active; 'I' for Inactive)
REMARK    1  A    between atoms: C_1  and  C_2
REMARK    2  A    between atoms: C_7  and  C_8
REMARK    3  A    between atoms: C_7  and  C_9
REMARK    4  A    between atoms: C_10  and  S_14
REMARK    5  A    between atoms: S_14  and  C_15
REMARK    6  A    between atoms: C_18  and  C_26
REMARK    7  A    between atoms: N_19  and  C_20
REMARK    8  A    between atoms: C_26  and  N_27
REMARK    9  A    between atoms: C_28  and  C_30
REMARK                            x       y       z     vdW  Elec       q    Type
REMARK                         _______ _______ _______ _____ _____    ______ ____
ROOT
ATOM      1  C   UNL     1      -3.422  -2.953   1.808  0.00  0.00    +0.193 A 
ATOM      2  N   UNL     1      -3.948  -2.909   0.605  0.00  0.00    -0.122 NA
ATOM      3  N   UNL     1      -5.208  -3.152   0.671  0.00  0.00    -0.132 NA
ATOM      4  C   UNL     1      -5.560  -3.363   1.908  0.00  0.00    +0.152 A 
ATOM      5  N   UNL     1      -4.434  -3.250   2.676  0.00  0.00    -0.302 N 
ENDROOT
BRANCH   5   6
ATOM      6  C   UNL     1      -4.334  -3.410   4.128  0.00  0.00    +0.091 C 
ATOM      7  C   UNL     1      -3.821  -2.110   4.751  0.00  0.00    +0.025 C 
ATOM      8  C   UNL     1      -3.717  -2.277   6.268  0.00  0.00    +0.002 C 
ATOM      9  C   UNL     1      -2.745  -3.414   6.590  0.00  0.00    +0.000 C 
ATOM     10  C   UNL     1      -3.258  -4.714   5.968  0.00  0.00    +0.002 C 
ATOM     11  C   UNL     1      -3.362  -4.547   4.451  0.00  0.00    +0.025 C 
ENDBRANCH   5   6
BRANCH   1  12
ATOM     12  S   UNL     1      -1.731  -2.687   2.222  0.00  0.00    -0.075 S 
BRANCH  12  21
ATOM     13  C   UNL     1      -0.248   1.383  -0.077  0.00  0.00    +0.019 C 
ATOM     14  C   UNL     1      -0.082  -0.136  -0.012  0.00  0.00    +0.033 C 
ATOM     15  C   UNL     1       0.699  -0.786  -1.195  0.00  0.00    +0.015 C 
ATOM     16  C   UNL     1       1.161  -2.157  -0.650  0.00  0.00    +0.006 C 
ATOM     17  C   UNL     1       0.606  -2.204   0.807  0.00  0.00    +0.016 C 
ATOM     18  C   UNL     1       0.727  -0.692   1.212  0.00  0.00    -0.019 C 
ATOM     19  C   UNL     1       2.180  -0.211   1.207  0.00  0.00    +0.012 C 
ATOM     20  C   UNL     1       0.034  -0.396   2.543  0.00  0.00    +0.012 C 
ATOM     21  C   UNL     1      -0.938  -2.341   0.627  0.00  0.00    +0.124 C 
ATOM     22  C   UNL     1      -1.381  -0.946   0.108  0.00  0.00    +0.153 C 
ATOM     23  O   UNL     1      -2.499  -0.582  -0.164  0.00  0.00    -0.296 OA
ENDBRANCH  12  21
ENDBRANCH   1  12
BRANCH   4  24
ATOM     24  C   UNL     1      -6.948  -3.680   2.400  0.00  0.00    +0.180 C 
BRANCH  24  25
ATOM     25  N   UNL     1      -7.147  -5.131   2.402  0.00  0.00    -0.308 N 
ATOM     26  C   UNL     1      -8.323  -5.650   2.807  0.00  0.00    +0.220 C 
ATOM     27  O   UNL     1      -9.217  -4.915   3.170  0.00  0.00    -0.275 OA
ATOM     28  H   UNL     1      -6.432  -5.719   2.111  0.00  0.00    +0.149 HD
BRANCH  26  29
ATOM     29  C   UNL     1      -8.527  -7.143   2.808  0.00  0.00    +0.048 C 
ATOM     30  C   UNL     1      -7.497  -7.798   3.731  0.00  0.00    +0.019 C 
ATOM     31  C   UNL     1      -7.704  -9.314   3.732  0.00  0.00    -0.009 C 
ATOM     32  C   UNL     1      -9.114  -9.635   4.232  0.00  0.00    +0.007 C 
ATOM     33  C   UNL     1     -10.144  -8.980   3.310  0.00  0.00    -0.009 C 
ATOM     34  C   UNL     1      -9.937  -7.465   3.308  0.00  0.00    +0.019 C 
ATOM     35  C   UNL     1      -9.972  -9.520   1.888  0.00  0.00    +0.007 C 
ATOM     36  C   UNL     1      -8.562  -9.199   1.388  0.00  0.00    -0.009 C 
ATOM     37  C   UNL     1      -7.532  -9.853   2.311  0.00  0.00    +0.007 C 
ATOM     38  C   UNL     1      -8.355  -7.683   1.387  0.00  0.00    +0.019 C 
ENDBRANCH  26  29
ENDBRANCH  24  25
ENDBRANCH   4  24
TORSDOF 6
