REMARK  Name = ZINC62012424
REMARK  8 active torsions:
REMARK  status: ('A' for Active; 'I' for Inactive)
REMARK    1  A    between atoms: C_1  and  C_2
REMARK    2  A    between atoms: C_2  and  C_4
REMARK    3  A    between atoms: C_2  and  N_11
REMARK    4  A    between atoms: N_11  and  C_12
REMARK    5  A    between atoms: N_11  and  C_13
REMARK    6  A    between atoms: C_13  and  C_15
REMARK    7  A    between atoms: C_13  and  C_17
REMARK    8  A    between atoms: C_15  and  N_16
REMARK                            x       y       z     vdW  Elec       q    Type
REMARK                         _______ _______ _______ _____ _____    ______ ____
ROOT
ATOM      1  C   UNL     1       2.201  -0.382   2.154  0.00  0.00    +0.071 C 
ENDROOT
BRANCH   1   2
ATOM      2  C   UNL     1       2.646  -1.548   2.998  0.00  0.00    -0.018 A 
ATOM      3  C   UNL     1       1.723  -2.483   3.427  0.00  0.00    +0.006 A 
ATOM      4  C   UNL     1       2.132  -3.553   4.202  0.00  0.00    +0.000 A 
ATOM      5  C   UNL     1       3.464  -3.687   4.548  0.00  0.00    +0.001 A 
ATOM      6  C   UNL     1       4.387  -2.752   4.120  0.00  0.00    +0.015 A 
ATOM      7  C   UNL     1       3.979  -1.685   3.340  0.00  0.00    +0.022 A 
ATOM      8 BR   UNL     1       5.244  -0.409   2.748  0.00  0.00    -0.050 Br
ENDBRANCH   1   2
BRANCH   1   9
ATOM      9  N   UNL     1       0.886  -0.676   1.567  0.00  0.00    -0.294 NA
ATOM     10  C   UNL     1      -0.191  -0.407   2.529  0.00  0.00    +0.106 C 
BRANCH   9  12
ATOM     11  C   UNL     1      -0.747  -0.134  -0.174  0.00  0.00    +0.029 C 
ATOM     12  C   UNL     1       0.683   0.080   0.324  0.00  0.00    +0.085 C 
BRANCH  12  13
ATOM     13  C   UNL     1       1.657  -0.401  -0.721  0.00  0.00    -0.012 A 
ATOM     14  C   UNL     1       2.170  -1.683  -0.650  0.00  0.00    +0.006 A 
ATOM     15  C   UNL     1       3.062  -2.125  -1.608  0.00  0.00    +0.000 A 
ATOM     16  C   UNL     1       3.443  -1.285  -2.639  0.00  0.00    +0.001 A 
ATOM     17  C   UNL     1       2.931  -0.003  -2.711  0.00  0.00    +0.020 A 
ATOM     18  C   UNL     1       2.033   0.437  -1.755  0.00  0.00    +0.046 A 
ATOM     19 CL   UNL     1       1.383   2.045  -1.848  0.00  0.00    -0.083 Cl
ENDBRANCH  12  13
ENDBRANCH   9  12
ENDBRANCH   1   9
BRANCH   1  20
ATOM     20  C   UNL     1       2.101   0.871   3.026  0.00  0.00    -0.063 C 
BRANCH  20  21
ATOM     21  N   UNL     1       1.650   2.004   2.206  0.00  0.00    +0.379 N 
ATOM     22  H   UNL     1       2.198   2.047   1.360  0.00  0.00    -0.090 HD
ATOM     23  H   UNL     1       0.676   1.881   1.970  0.00  0.00    -0.090 HD
ATOM     24  H   UNL     1       1.764   2.861   2.725  0.00  0.00    -0.090 HD
ENDBRANCH  20  21
ENDBRANCH   1  20
TORSDOF 6
