REMARK  Name = ZINC13534700
REMARK  5 active torsions:
REMARK  status: ('A' for Active; 'I' for Inactive)
REMARK    1  A    between atoms: C_2  and  C_14
REMARK    2  A    between atoms: C_14  and  O_15
REMARK    3  A    between atoms: O_15  and  P_16
REMARK    4  A    between atoms: P_16  and  O_19
REMARK    5  A    between atoms: O_19  and  P_20
REMARK                            x       y       z     vdW  Elec       q    Type
REMARK                         _______ _______ _______ _____ _____    ______ ____
ROOT
ATOM      1  C   UNL     1      -0.018   1.467   0.010  0.00  0.00    +0.156 C 
ATOM      2  C   UNL     1       1.399   1.980  -0.001  0.00  0.00    +0.063 C 
ATOM      3  N   UNL     1       2.369   1.287   0.484  0.00  0.00    -0.244 NA
ATOM      4  C   UNL     1       2.173   0.040   0.999  0.00  0.00    +0.168 A 
ATOM      5  C   UNL     1       3.166  -0.605   1.763  0.00  0.00    +0.280 A 
ATOM      6  O   UNL     1       4.238  -0.064   1.980  0.00  0.00    -0.265 OA
ATOM      7  N   UNL     1       2.901  -1.836   2.251  0.00  0.00    -0.293 N 
ATOM      8  H   UNL     1       3.570  -2.299   2.780  0.00  0.00    +0.172 HD
ATOM      9  C   UNL     1       1.702  -2.432   2.007  0.00  0.00    +0.195 A 
ATOM     10  N   UNL     1       0.766  -1.841   1.289  0.00  0.00    -0.199 NA
ATOM     11  C   UNL     1       0.963  -0.630   0.774  0.00  0.00    +0.154 A 
ATOM     12  N   UNL     1       0.002  -0.004   0.002  0.00  0.00    -0.322 N 
ATOM     13  N   UNL     1       1.462  -3.678   2.519  0.00  0.00    -0.329 N 
ATOM     14  H   UNL     1      -0.634  -0.514  -0.523  0.00  0.00    +0.148 HD
ATOM     15  H   UNL     1       2.141  -4.125   3.048  0.00  0.00    +0.145 HD
ATOM     16  H   UNL     1       0.612  -4.115   2.352  0.00  0.00    +0.145 HD
ENDROOT
BRANCH   2  17
ATOM     17  C   UNL     1       1.687   3.336  -0.593  0.00  0.00    +0.224 C 
BRANCH  17  18
ATOM     18  O   UNL     1       3.086   3.611  -0.494  0.00  0.00    -0.279 OA
BRANCH  18  19
ATOM     19  P   UNL     1       3.750   4.977  -1.029  0.00  0.00    +0.514 P 
ATOM     20  O   UNL     1       3.385   5.179  -2.517  0.00  0.00    -0.224 OA
ATOM     21  O   UNL     1       3.217   6.168  -0.202  0.00  0.00    -0.116 OA
BRANCH  19  22
ATOM     22  O   UNL     1       5.351   4.891  -0.876  0.00  0.00    -0.181 OA
BRANCH  22  23
ATOM     23  P   UNL     1       6.579   5.741  -1.476  0.00  0.00    +0.540 P 
ATOM     24  O   UNL     1       6.288   6.093  -2.975  0.00  0.00    -0.222 OA
ATOM     25  O   UNL     1       6.750   7.063  -0.654  0.00  0.00    -0.114 OA
ATOM     26  O   UNL     1       7.894   4.895  -1.384  0.00  0.00    -0.114 OA
ENDBRANCH  22  23
ENDBRANCH  19  22
ENDBRANCH  18  19
ENDBRANCH  17  18
ENDBRANCH   2  17
TORSDOF 5
