REMARK  Name = ZINC52395816
REMARK  9 active torsions:
REMARK  status: ('A' for Active; 'I' for Inactive)
REMARK    1  A    between atoms: C_1  and  C_2
REMARK    2  A    between atoms: C_2  and  C_4
REMARK    3  A    between atoms: C_2  and  N_14
REMARK    4  A    between atoms: C_7  and  S_10
REMARK    5  A    between atoms: S_10  and  N_13
REMARK    6  A    between atoms: C_15  and  C_17
REMARK    7  A    between atoms: C_17  and  C_19
REMARK    8  A    between atoms: C_17  and  N_20
REMARK    9  A    between atoms: N_20  and  C_21
REMARK                            x       y       z     vdW  Elec       q    Type
REMARK                         _______ _______ _______ _____ _____    ______ ____
ROOT
ATOM      1  C   UNL     1      -0.019   1.526   0.010  0.00  0.00    +0.033 C 
ATOM      2  C   UNL     1       0.002  -0.004   0.002  0.00  0.00    +0.100 C 
ENDROOT
BRANCH   2   3
ATOM      3  C   UNL     1       0.707  -0.490  -1.238  0.00  0.00    -0.027 A 
ATOM      4  C   UNL     1       0.038  -0.522  -2.447  0.00  0.00    +0.007 A 
ATOM      5  C   UNL     1       0.685  -0.967  -3.584  0.00  0.00    +0.029 A 
ATOM      6  C   UNL     1       2.002  -1.381  -3.513  0.00  0.00    +0.105 A 
ATOM      7  C   UNL     1       2.672  -1.349  -2.304  0.00  0.00    +0.029 A 
ATOM      8  C   UNL     1       2.026  -0.899  -1.167  0.00  0.00    +0.007 A 
BRANCH   6   9
ATOM      9  S   UNL     1       2.826  -1.951  -4.962  0.00  0.00    +0.056 S 
ATOM     10  O   UNL     1       3.882  -2.794  -4.524  0.00  0.00    -0.153 OA
ATOM     11  O   UNL     1       1.815  -2.397  -5.855  0.00  0.00    -0.153 OA
BRANCH   9  12
ATOM     12  N   UNL     1       3.535  -0.633  -5.671  0.00  0.00    -0.204 NA
ATOM     13  H   UNL     1       3.443   0.244  -5.267  0.00  0.00    +0.144 HD
ATOM     14  H   UNL     1       4.043  -0.738  -6.491  0.00  0.00    +0.144 HD
ENDBRANCH   9  12
ENDBRANCH   6   9
ENDBRANCH   2   3
BRANCH   2  15
ATOM     15  N   UNL     1      -1.372  -0.511   0.012  0.00  0.00    -0.310 N 
ATOM     16  C   UNL     1      -2.029  -0.655   1.181  0.00  0.00    +0.199 C 
ATOM     17  O   UNL     1      -1.481  -0.365   2.224  0.00  0.00    -0.278 OA
ATOM     18  H   UNL     1      -1.810  -0.743  -0.822  0.00  0.00    +0.149 HD
BRANCH  16  19
ATOM     19  C   UNL     1      -3.442  -1.177   1.191  0.00  0.00    +0.012 C 
ATOM     20  C   UNL     1      -3.474  -2.577   0.575  0.00  0.00    -0.004 C 
BRANCH  19  21
ATOM     21  N   UNL     1      -3.930  -1.240   2.575  0.00  0.00    +0.385 N 
ATOM     22  C   UNL     1      -5.346  -1.634   2.578  0.00  0.00    -0.099 C 
ATOM     23  H   UNL     1      -3.391  -1.920   3.091  0.00  0.00    -0.085 HD
ATOM     24  H   UNL     1      -3.833  -0.334   3.009  0.00  0.00    -0.085 HD
ENDBRANCH  19  21
ENDBRANCH  16  19
ENDBRANCH   2  15
TORSDOF 6
