REMARK  Name = ZINC04087101
REMARK  6 active torsions:
REMARK  status: ('A' for Active; 'I' for Inactive)
REMARK    1  A    between atoms: C_1  and  N_50
REMARK    2  A    between atoms: C_7  and  N_12
REMARK    3  A    between atoms: C_8  and  C_9
REMARK    4  A    between atoms: C_13  and  C_15
REMARK    5  A    between atoms: C_20  and  O_21
REMARK    6  A    between atoms: O_21  and  C_22
REMARK                            x       y       z     vdW  Elec       q    Type
REMARK                         _______ _______ _______ _____ _____    ______ ____
ROOT
ATOM      1  N   UNL     1      -0.509   9.349  -0.106  0.00  0.00    -0.275 N 
ATOM      2  C   UNL     1      -0.331   8.014  -0.064  0.00  0.00    +0.252 C 
ATOM      3  O   UNL     1       0.793   7.549  -0.084  0.00  0.00    -0.270 OA
ATOM      4  H   UNL     1      -1.405   9.720  -0.090  0.00  0.00    +0.156 HD
ENDROOT
BRANCH   1  11
ATOM      5  C   UNL     1       5.857  13.710  -0.692  0.00  0.00    -0.096 C 
ATOM      6  C   UNL     1       3.570  14.030   0.036  0.00  0.00    -0.074 C 
ATOM      7  C   UNL     1       2.116  13.737  -0.345  0.00  0.00    +0.018 C 
ATOM      8  C   UNL     1       1.904  12.229  -0.288  0.00  0.00    -0.027 A 
ATOM      9  C   UNL     1       2.968  11.394  -0.293  0.00  0.00    -0.021 A 
ATOM     10  S   UNL     1       2.269   9.771  -0.204  0.00  0.00    -0.079 S 
ATOM     11  C   UNL     1       0.589  10.192  -0.172  0.00  0.00    +0.085 A 
ATOM     12  C   UNL     1       0.608  11.580  -0.223  0.00  0.00    +0.068 A 
ATOM     13  C   UNL     1       4.410  11.792  -0.356  0.00  0.00    -0.036 C 
ATOM     14  N   UNL     1       4.471  13.207  -0.796  0.00  0.00    +0.381 N 
ATOM     15  H   UNL     1       4.168  13.266  -1.776  0.00  0.00    -0.082 HD
BRANCH  12  16
ATOM     16  C   UNL     1      -0.633  12.360  -0.211  0.00  0.00    +0.244 C 
ATOM     17  O   UNL     1      -1.115  12.722   0.847  0.00  0.00    -0.270 OA
ATOM     18  N   UNL     1      -1.241  12.677  -1.371  0.00  0.00    -0.325 N 
ATOM     19  H   UNL     1      -0.857  12.389  -2.214  0.00  0.00    +0.145 HD
ATOM     20  H   UNL     1      -2.062  13.193  -1.363  0.00  0.00    +0.145 HD
ENDBRANCH  12  16
ENDBRANCH   1  11
BRANCH   2  21
ATOM     21  C   UNL     1      -1.499   7.116   0.006  0.00  0.00    +0.079 A 
ATOM     22  C   UNL     1      -2.792   7.646   0.029  0.00  0.00    +0.017 A 
ATOM     23  C   UNL     1      -3.879   6.801   0.095  0.00  0.00    +0.001 A 
ATOM     24  C   UNL     1      -3.696   5.429   0.138  0.00  0.00    +0.004 A 
ATOM     25  C   UNL     1      -2.425   4.892   0.111  0.00  0.00    +0.047 A 
ATOM     26  C   UNL     1      -1.319   5.727   0.051  0.00  0.00    +0.141 A 
BRANCH  26  27
ATOM     27  O   UNL     1      -0.069   5.201   0.029  0.00  0.00    -0.455 OA
BRANCH  27  28
ATOM     28  C   UNL     1       0.580   5.048   1.214  0.00  0.00    +0.128 A 
ATOM     29  C   UNL     1       1.816   4.419   1.254  0.00  0.00    +0.046 A 
ATOM     30  C   UNL     1       2.473   4.265   2.459  0.00  0.00    +0.004 A 
ATOM     31  C   UNL     1       1.899   4.737   3.625  0.00  0.00    +0.000 A 
ATOM     32  C   UNL     1       0.665   5.359   3.589  0.00  0.00    +0.004 A 
ATOM     33  C   UNL     1       0.006   5.521   2.386  0.00  0.00    +0.046 A 
ENDBRANCH  27  28
ENDBRANCH  26  27
ENDBRANCH   2  21
TORSDOF 5
