REMARK  Name = ZINC04456167
REMARK  9 active torsions:
REMARK  status: ('A' for Active; 'I' for Inactive)
REMARK    1  A    between atoms: C_1  and  C_2
REMARK    2  A    between atoms: C_5  and  S_8
REMARK    3  A    between atoms: S_8  and  N_11
REMARK    4  A    between atoms: C_16  and  C_17
REMARK    5  A    between atoms: C_16  and  N_54
REMARK    6  A    between atoms: N_19  and  N_20
REMARK    7  A    between atoms: C_21  and  C_22
REMARK    8  A    between atoms: C_25  and  O_29
REMARK    9  A    between atoms: C_27  and  O_28
REMARK                            x       y       z     vdW  Elec       q    Type
REMARK                         _______ _______ _______ _____ _____    ______ ____
ROOT
ATOM      1  C   UNL     1      -2.915   5.531  -1.730  0.00  0.00    +0.020 C 
ENDROOT
BRANCH   1   7
ATOM      2  N   UNL     1      -2.133   4.176   2.167  0.00  0.00    -0.180 NA
ATOM      3  C   UNL     1      -1.046   4.054   1.184  0.00  0.00    +0.091 C 
ATOM      4  C   UNL     1      -1.647   4.122  -0.224  0.00  0.00    -0.061 C 
ATOM      5  C   UNL     1      -3.599   5.314   0.582  0.00  0.00    -0.061 C 
ATOM      6  C   UNL     1      -3.078   5.295   2.023  0.00  0.00    +0.091 C 
ATOM      7  N   UNL     1      -2.444   5.363  -0.340  0.00  0.00    +0.387 N 
ATOM      8  H   UNL     1      -1.852   6.163  -0.090  0.00  0.00    -0.081 HD
BRANCH   2   9
ATOM      9  S   UNL     1      -2.292   3.081   3.399  0.00  0.00    +0.061 S 
ATOM     10  O   UNL     1      -3.655   3.114   3.798  0.00  0.00    -0.153 OA
ATOM     11  O   UNL     1      -1.653   1.887   2.966  0.00  0.00    -0.153 OA
BRANCH   9  16
ATOM     12  C   UNL     1       0.920   5.162   8.063  0.00  0.00    +0.044 C 
ATOM     13  C   UNL     1       0.118   4.642   6.899  0.00  0.00    -0.050 A 
ATOM     14  C   UNL     1      -1.212   4.993   6.764  0.00  0.00    +0.005 A 
ATOM     15  C   UNL     1      -1.948   4.516   5.695  0.00  0.00    +0.029 A 
ATOM     16  C   UNL     1      -1.354   3.689   4.761  0.00  0.00    +0.105 A 
ATOM     17  C   UNL     1      -0.025   3.333   4.899  0.00  0.00    +0.029 A 
ATOM     18  C   UNL     1       0.712   3.814   5.965  0.00  0.00    +0.005 A 
ENDBRANCH   9  16
ENDBRANCH   2   9
ENDBRANCH   1   7
BRANCH   1  19
ATOM     19  C   UNL     1      -3.806   4.383  -2.131  0.00  0.00    +0.216 C 
ATOM     20  O   UNL     1      -4.096   3.528  -1.320  0.00  0.00    -0.276 OA
ATOM     21  N   UNL     1      -4.281   4.306  -3.390  0.00  0.00    -0.209 N 
ATOM     22  H   UNL     1      -4.050   4.989  -4.038  0.00  0.00    +0.177 HD
BRANCH  21  23
ATOM     23  N   UNL     1      -5.109   3.239  -3.762  0.00  0.00    -0.188 NA
ATOM     24  C   UNL     1      -5.472   3.101  -5.001  0.00  0.00    +0.142 C 
BRANCH  24  25
ATOM     25  C   UNL     1      -4.846   3.925  -6.048  0.00  0.00    +0.036 A 
ATOM     26  C   UNL     1      -3.546   4.407  -5.877  0.00  0.00    +0.016 A 
ATOM     27  C   UNL     1      -2.963   5.178  -6.860  0.00  0.00    +0.046 A 
ATOM     28  C   UNL     1      -3.664   5.477  -8.022  0.00  0.00    +0.120 A 
ATOM     29  C   UNL     1      -4.955   5.003  -8.201  0.00  0.00    +0.091 A 
ATOM     30  C   UNL     1      -5.550   4.224  -7.224  0.00  0.00    +0.129 A 
BRANCH  30  31
ATOM     31  O   UNL     1      -6.811   3.754  -7.400  0.00  0.00    -0.506 OA
ATOM     32  H   UNL     1      -7.503   4.379  -7.142  0.00  0.00    +0.292 HD
ENDBRANCH  30  31
BRANCH  28  33
ATOM     33  O   UNL     1      -3.083   6.237  -8.986  0.00  0.00    -0.507 OA
ATOM     34  H   UNL     1      -2.594   5.727  -9.647  0.00  0.00    +0.292 HD
ENDBRANCH  28  33
ENDBRANCH  24  25
ENDBRANCH  21  23
ENDBRANCH   1  19
TORSDOF 8
