REMARK  Name = ZINC65558485
REMARK  6 active torsions:
REMARK  status: ('A' for Active; 'I' for Inactive)
REMARK    1  A    between atoms: C_3  and  N_9
REMARK    2  A    between atoms: C_10  and  C_12
REMARK    3  A    between atoms: N_14  and  C_15
REMARK    4  A    between atoms: C_15  and  C_16
REMARK    5  A    between atoms: C_16  and  C_17
REMARK    6  A    between atoms: C_16  and  O_24
REMARK                            x       y       z     vdW  Elec       q    Type
REMARK                         _______ _______ _______ _____ _____    ______ ____
ROOT
ATOM      1  C   UNL     1       4.845   4.232  -0.237  0.00  0.00    +0.299 C 
ATOM      2  O   UNL     1       5.903   3.637  -0.250  0.00  0.00    -0.265 OA
ATOM      3  N   UNL     1       4.827   5.576  -0.332  0.00  0.00    -0.305 N 
ATOM      4  H   UNL     1       3.982   6.051  -0.322  0.00  0.00    +0.149 HD
ENDROOT
BRANCH   1   6
ATOM      5  N   UNL     1       3.583   2.130  -0.021  0.00  0.00    -0.275 N 
ATOM      6  C   UNL     1       3.564   3.474  -0.116  0.00  0.00    +0.303 C 
ATOM      7  O   UNL     1       2.506   4.069  -0.103  0.00  0.00    -0.265 OA
ATOM      8  H   UNL     1       4.428   1.660   0.049  0.00  0.00    +0.155 HD
BRANCH   5  11
ATOM      9  C   UNL     1       0.065   1.242  -0.621  0.00  0.00    +0.005 A 
ATOM     10  C   UNL     1       1.250   1.953  -0.619  0.00  0.00    +0.026 A 
ATOM     11  C   UNL     1       2.382   1.412  -0.024  0.00  0.00    +0.072 A 
ATOM     12  C   UNL     1       2.321   0.155   0.568  0.00  0.00    +0.179 A 
ATOM     13  C   UNL     1       1.130  -0.552   0.562  0.00  0.00    +0.160 A 
ATOM     14  C   UNL     1       0.004  -0.007  -0.033  0.00  0.00    +0.041 A 
ATOM     15  F   UNL     1       1.067  -1.774   1.135  0.00  0.00    -0.202 F 
ATOM     16  F   UNL     1       3.420  -0.375   1.147  0.00  0.00    -0.201 F 
ENDBRANCH   5  11
ENDBRANCH   1   6
BRANCH   3  17
ATOM     17  C   UNL     1       6.084   6.319  -0.451  0.00  0.00    +0.140 C 
BRANCH  17  18
ATOM     18  C   UNL     1       5.784   7.817  -0.542  0.00  0.00    +0.162 C 
BRANCH  18  19
ATOM     19  C   UNL     1       7.077   8.581  -0.664  0.00  0.00    -0.018 A 
ATOM     20  C   UNL     1       7.658   8.762  -1.905  0.00  0.00    +0.007 A 
ATOM     21  C   UNL     1       8.844   9.463  -2.018  0.00  0.00    +0.020 A 
ATOM     22  C   UNL     1       9.450   9.984  -0.888  0.00  0.00    +0.041 A 
ATOM     23  C   UNL     1       8.868   9.802   0.354  0.00  0.00    +0.020 A 
ATOM     24  C   UNL     1       7.679   9.106   0.464  0.00  0.00    +0.007 A 
ATOM     25 CL   UNL     1      10.939  10.864  -1.029  0.00  0.00    -0.084 Cl
ENDBRANCH  18  19
BRANCH  18  26
ATOM     26  O   UNL     1       4.970   8.071  -1.689  0.00  0.00    -0.386 OA
ATOM     27  H   UNL     1       5.378   7.810  -2.526  0.00  0.00    +0.210 HD
ENDBRANCH  18  26
ENDBRANCH  17  18
ENDBRANCH   3  17
TORSDOF 6
