REMARK  Name = ZINC39631651
REMARK  12 active torsions:
REMARK  status: ('A' for Active; 'I' for Inactive)
REMARK    1  A    between atoms: C_1  and  C_2
REMARK    2  A    between atoms: C_6  and  C_9
REMARK    3  A    between atoms: C_13  and  C_22
REMARK    4  A    between atoms: N_24  and  C_25
REMARK    5  A    between atoms: C_25  and  C_27
REMARK    6  A    between atoms: C_25  and  C_28
REMARK    7  A    between atoms: C_28  and  C_29
REMARK    8  A    between atoms: C_29  and  C_30
REMARK    9  A    between atoms: C_30  and  C_31
REMARK   10  A    between atoms: C_31  and  C_32
REMARK   11  A    between atoms: C_31  and  C_33
REMARK   12  A    between atoms: C_31  and  O_34
REMARK                            x       y       z     vdW  Elec       q    Type
REMARK                         _______ _______ _______ _____ _____    ______ ____
ROOT
ATOM      1  C   UNL     1       0.695  -3.526   0.847  0.00  0.00    +0.251 C 
ATOM      2  O   UNL     1       1.755  -3.970   1.242  0.00  0.00    -0.270 OA
ATOM      3  N   UNL     1      -0.389  -3.557   1.648  0.00  0.00    -0.296 N 
ATOM      4  C   UNL     1      -1.779  -3.167   1.311  0.00  0.00    +0.121 C 
ATOM      5  C   UNL     1      -2.661  -4.221   2.017  0.00  0.00    +0.100 C 
ATOM      6  C   UNL     1      -1.792  -4.754   3.167  0.00  0.00    -0.004 C 
ATOM      7  C   UNL     1      -0.462  -3.994   3.063  0.00  0.00    +0.115 C 
ATOM      8  C   UNL     1      -1.551  -6.251   2.998  0.00  0.00    -0.010 C 
ATOM      9  C   UNL     1      -0.732  -6.769   4.184  0.00  0.00    -0.082 C 
ATOM     10  N   UNL     1      -1.458  -6.508   5.433  0.00  0.00    +0.379 N 
ATOM     11  C   UNL     1      -1.603  -5.061   5.634  0.00  0.00    -0.082 C 
ATOM     12  C   UNL     1      -2.459  -4.471   4.510  0.00  0.00    -0.010 C 
ATOM     13  H   UNL     1      -2.372  -6.933   5.385  0.00  0.00    -0.086 HD
ATOM     14  H   UNL     1      -0.946  -6.904   6.207  0.00  0.00    -0.086 HD
ENDROOT
BRANCH   1  20
ATOM     15  C   UNL     1       0.711   0.448  -2.177  0.00  0.00    +0.047 C 
ATOM     16  C   UNL     1       0.601  -1.040  -1.971  0.00  0.00    -0.014 A 
ATOM     17  C   UNL     1       0.405  -1.874  -3.056  0.00  0.00    +0.007 A 
ATOM     18  C   UNL     1       0.303  -3.243  -2.878  0.00  0.00    +0.021 A 
ATOM     19  C   UNL     1       0.396  -3.787  -1.612  0.00  0.00    +0.056 A 
ATOM     20  C   UNL     1       0.594  -2.952  -0.509  0.00  0.00    +0.091 A 
ATOM     21  C   UNL     1       0.702  -1.570  -0.698  0.00  0.00    +0.140 A 
ATOM     22  F   UNL     1       0.899  -0.755   0.361  0.00  0.00    -0.204 F 
ATOM     23 CL   UNL     1       0.266  -5.504  -1.392  0.00  0.00    -0.083 Cl
ENDBRANCH   1  20
BRANCH   5  24
ATOM     24  C   UNL     1      -3.014  -5.333   1.063  0.00  0.00    +0.218 C 
ATOM     25  O   UNL     1      -2.218  -5.682   0.218  0.00  0.00    -0.275 OA
ATOM     26  N   UNL     1      -4.215  -5.940   1.151  0.00  0.00    -0.312 N 
ATOM     27  H   UNL     1      -4.822  -5.711   1.871  0.00  0.00    +0.149 HD
BRANCH  26  28
ATOM     28  C   UNL     1      -4.601  -6.945   0.157  0.00  0.00    +0.070 C 
ATOM     29  C   UNL     1      -4.132  -8.326   0.619  0.00  0.00    +0.028 C 
BRANCH  28  30
ATOM     30  C   UNL     1      -6.124  -6.949   0.002  0.00  0.00    +0.022 C 
BRANCH  30  31
ATOM     31  C   UNL     1      -6.580  -5.611  -0.584  0.00  0.00    +0.005 C 
BRANCH  31  32
ATOM     32  C   UNL     1      -8.109  -5.567  -0.626  0.00  0.00    +0.034 C 
BRANCH  32  33
ATOM     33  C   UNL     1      -8.563  -4.287  -1.329  0.00  0.00    +0.061 C 
ATOM     34  C   UNL     1     -10.092  -4.249  -1.381  0.00  0.00    +0.041 C 
ATOM     35  C   UNL     1      -8.049  -3.070  -0.557  0.00  0.00    +0.041 C 
BRANCH  33  36
ATOM     36  O   UNL     1      -8.041  -4.262  -2.659  0.00  0.00    -0.389 OA
ATOM     37  H   UNL     1      -8.326  -5.006  -3.207  0.00  0.00    +0.210 HD
ENDBRANCH  33  36
ENDBRANCH  32  33
ENDBRANCH  31  32
ENDBRANCH  30  31
ENDBRANCH  28  30
ENDBRANCH  26  28
ENDBRANCH   5  24
TORSDOF 8
