REMARK  Name = ZINC06193321
REMARK  14 active torsions:
REMARK  status: ('A' for Active; 'I' for Inactive)
REMARK    1  A    between atoms: C_1  and  C_2
REMARK    2  A    between atoms: C_2  and  N_69
REMARK    3  A    between atoms: C_3  and  C_4
REMARK    4  A    between atoms: C_3  and  N_69
REMARK    5  A    between atoms: C_5  and  C_6
REMARK    6  A    between atoms: C_5  and  N_69
REMARK    7  A    between atoms: C_6  and  N_7
REMARK    8  A    between atoms: N_7  and  C_8
REMARK    9  A    between atoms: N_7  and  C_23
REMARK   10  A    between atoms: C_8  and  C_9
REMARK   11  A    between atoms: C_13  and  C_22
REMARK   12  A    between atoms: C_15  and  C_21
REMARK   13  A    between atoms: C_23  and  N_25
REMARK   14  A    between atoms: N_25  and  C_26
REMARK                            x       y       z     vdW  Elec       q    Type
REMARK                         _______ _______ _______ _____ _____    ______ ____
ROOT
ATOM      1  N   UNL     1      -1.449   8.223  -1.580  0.00  0.00    -0.310 N 
ENDROOT
BRANCH   1   2
ATOM      2  C   UNL     1      -2.475   8.286  -2.452  0.00  0.00    +0.133 C 
ATOM      3  S   UNL     1      -4.086   8.331  -1.875  0.00  0.00    -0.019 S 
BRANCH   2   4
ATOM      4  N   UNL     1      -2.232   8.315  -3.777  0.00  0.00    -0.324 N 
ATOM      5  H   UNL     1      -1.319   8.289  -4.104  0.00  0.00    +0.148 HD
BRANCH   4   6
ATOM      6  C   UNL     1      -3.348   8.384  -4.724  0.00  0.00    +0.072 C 
ATOM      7  C   UNL     1      -3.872   6.973  -4.999  0.00  0.00    +0.022 C 
ATOM      8  C   UNL     1      -5.037   7.045  -5.988  0.00  0.00    +0.002 C 
ATOM      9  C   UNL     1      -4.556   7.674  -7.298  0.00  0.00    +0.000 C 
ATOM     10  C   UNL     1      -4.032   9.085  -7.023  0.00  0.00    +0.002 C 
ATOM     11  C   UNL     1      -2.867   9.013  -6.034  0.00  0.00    +0.022 C 
ENDBRANCH   4   6
ENDBRANCH   2   4
ENDBRANCH   1   2
BRANCH   1  12
ATOM     12  C   UNL     1      -0.069   8.296  -2.067  0.00  0.00    +0.088 C 
BRANCH  12  13
ATOM     13  C   UNL     1       0.381   6.911  -2.535  0.00  0.00    -0.060 C 
BRANCH  13  14
ATOM     14  N   UNL     1       1.712   7.034  -3.167  0.00  0.00    +0.380 N 
ATOM     15  H   UNL     1       1.729   7.880  -3.748  0.00  0.00    -0.082 HD
BRANCH  14  17
ATOM     16  C   UNL     1       2.831   5.858  -1.302  0.00  0.00    -0.017 C 
ATOM     17  C   UNL     1       2.756   7.145  -2.126  0.00  0.00    -0.082 C 
ENDBRANCH  14  17
BRANCH  14  18
ATOM     18  C   UNL     1       1.975   5.858  -4.023  0.00  0.00    -0.082 C 
ATOM     19  C   UNL     1       3.300   6.069  -4.759  0.00  0.00    -0.017 C 
ENDBRANCH  14  18
ENDBRANCH  13  14
ENDBRANCH  12  13
ENDBRANCH   1  12
BRANCH   1  20
ATOM     20  C   UNL     1      -1.713   8.081  -0.146  0.00  0.00    +0.147 C 
BRANCH  20  21
ATOM     21  C   UNL     1      -1.640   6.625   0.236  0.00  0.00    +0.035 A 
ATOM     22  C   UNL     1      -2.765   5.868   0.235  0.00  0.00    +0.020 A 
ATOM     23  C   UNL     1      -2.660   4.457   0.612  0.00  0.00    -0.001 A 
ATOM     24  C   UNL     1      -3.786   3.628   0.631  0.00  0.00    +0.013 A 
ATOM     25  C   UNL     1      -3.654   2.316   0.987  0.00  0.00    -0.050 A 
ATOM     26  C   UNL     1      -2.413   1.798   1.330  0.00  0.00    +0.008 A 
ATOM     27  C   UNL     1      -1.291   2.598   1.324  0.00  0.00    -0.026 A 
ATOM     28  C   UNL     1      -1.400   3.936   0.959  0.00  0.00    +0.052 A 
ATOM     29  N   UNL     1      -0.293   4.758   0.940  0.00  0.00    -0.322 N 
ATOM     30  H   UNL     1       0.602   4.386   1.187  0.00  0.00    +0.169 HD
ATOM     31  C   UNL     1      -0.400   6.053   0.593  0.00  0.00    +0.254 A 
ATOM     32  O   UNL     1       0.600   6.750   0.586  0.00  0.00    -0.268 OA
ATOM     33  C   UNL     1       0.050   2.025   1.705  0.00  0.00    +0.046 C 
ATOM     34  C   UNL     1      -4.868   1.422   1.007  0.00  0.00    +0.044 C 
ENDBRANCH  20  21
ENDBRANCH   1  20
TORSDOF 10
