REMARK  Name = ZINC08994445
REMARK  11 active torsions:
REMARK  status: ('A' for Active; 'I' for Inactive)
REMARK    1  A    between atoms: C_1  and  C_2
REMARK    2  A    between atoms: C_2  and  O_3
REMARK    3  A    between atoms: O_3  and  C_4
REMARK    4  A    between atoms: C_4  and  C_6
REMARK    5  A    between atoms: C_9  and  N_12
REMARK    6  A    between atoms: C_13  and  C_15
REMARK    7  A    between atoms: C_18  and  C_32
REMARK    8  A    between atoms: C_23  and  C_31
REMARK    9  A    between atoms: C_25  and  C_30
REMARK   10  A    between atoms: C_32  and  C_34
REMARK   11  A    between atoms: C_32  and  O_35
REMARK                            x       y       z     vdW  Elec       q    Type
REMARK                         _______ _______ _______ _____ _____    ______ ____
ROOT
ATOM      1  C   UNL     1       0.528   1.561  -2.291  0.00  0.00    +0.076 C 
ATOM      2  C   UNL     1      -0.667   1.622  -1.302  0.00  0.00    -0.001 C 
ATOM      3  C   UNL     1      -0.023   1.090   0.003  0.00  0.00    -0.040 C 
ATOM      4  C   UNL     1       1.728   1.912  -1.398  0.00  0.00    +0.049 C 
ATOM      5  C   UNL     1       2.947   1.129  -1.808  0.00  0.00    -0.027 A 
ATOM      6  C   UNL     1       3.229  -0.217  -1.867  0.00  0.00    +0.008 A 
ATOM      7  C   UNL     1       4.473  -0.645  -2.297  0.00  0.00    -0.050 A 
ATOM      8  C   UNL     1       5.430   0.282  -2.666  0.00  0.00    +0.008 A 
ATOM      9  C   UNL     1       5.152   1.632  -2.607  0.00  0.00    -0.029 A 
ATOM     10  C   UNL     1       3.902   2.071  -2.175  0.00  0.00    +0.039 A 
ATOM     11  N   UNL     1       3.389   3.362  -2.029  0.00  0.00    -0.286 N 
ATOM     12  C   UNL     1       2.121   3.356  -1.577  0.00  0.00    +0.211 C 
ATOM     13  O   UNL     1       1.427   4.327  -1.357  0.00  0.00    -0.277 OA
ATOM     14  C   UNL     1       6.202   2.634  -3.011  0.00  0.00    +0.045 C 
ATOM     15  C   UNL     1       4.783  -2.118  -2.363  0.00  0.00    +0.044 C 
ATOM     16  H   UNL     1       3.888   4.169  -2.230  0.00  0.00    +0.155 HD
ATOM     17  N   UNL     1       1.350   1.630  -0.013  0.00  0.00    +0.395 N 
ATOM     18  H   UNL     1       1.996   0.940   0.387  0.00  0.00    -0.083 HD
ATOM     19  H   UNL     1       1.388   2.495   0.538  0.00  0.00    -0.083 HD
ENDROOT
BRANCH   1  21
ATOM     20  N   UNL     1       1.213   0.006  -4.090  0.00  0.00    -0.285 N 
ATOM     21  C   UNL     1       0.677   0.175  -2.864  0.00  0.00    +0.220 C 
ATOM     22  O   UNL     1       0.314  -0.788  -2.223  0.00  0.00    -0.275 OA
ATOM     23  H   UNL     1       1.574   0.768  -4.570  0.00  0.00    +0.155 HD
BRANCH  20  27
ATOM     24  C   UNL     1       1.319  -3.784  -5.812  0.00  0.00    +0.059 A 
ATOM     25  C   UNL     1       0.241  -3.412  -5.003  0.00  0.00    +0.017 A 
ATOM     26  C   UNL     1       0.209  -2.159  -4.436  0.00  0.00    +0.024 A 
ATOM     27  C   UNL     1       1.248  -1.262  -4.666  0.00  0.00    +0.033 A 
ATOM     28  C   UNL     1       2.320  -1.627  -5.476  0.00  0.00    +0.024 A 
ATOM     29  C   UNL     1       2.361  -2.881  -6.042  0.00  0.00    +0.017 A 
BRANCH  24  30
ATOM     30  C   UNL     1       1.356  -5.126  -6.423  0.00  0.00    +0.339 C 
ATOM     31  O   UNL     1       0.449  -5.910  -6.223  0.00  0.00    -0.245 OA
BRANCH  30  32
ATOM     32  O   UNL     1       2.395  -5.483  -7.202  0.00  0.00    -0.461 OA
BRANCH  32  34
ATOM     33  C   UNL     1       3.619  -7.041  -8.618  0.00  0.00    +0.048 C 
ATOM     34  C   UNL     1       2.365  -6.819  -7.770  0.00  0.00    +0.229 C 
ENDBRANCH  32  34
ENDBRANCH  30  32
ENDBRANCH  24  30
ENDBRANCH  20  27
ENDBRANCH   1  21
BRANCH   3  35
ATOM     35  C   UNL     1      -0.788   1.604   1.225  0.00  0.00    +0.098 C 
ATOM     36  C   UNL     1      -0.042   1.205   2.499  0.00  0.00    +0.036 C 
BRANCH  35  37
ATOM     37  O   UNL     1      -0.889   3.028   1.159  0.00  0.00    -0.394 OA
ATOM     38  H   UNL     1      -0.036   3.483   1.144  0.00  0.00    +0.210 HD
ENDBRANCH  35  37
ENDBRANCH   3  35
TORSDOF 7
