REMARK  Name = ZINC59834133
REMARK  9 active torsions:
REMARK  status: ('A' for Active; 'I' for Inactive)
REMARK    1  A    between atoms: C_2  and  C_3
REMARK    2  A    between atoms: C_3  and  N_4
REMARK    3  A    between atoms: N_4  and  C_5
REMARK    4  A    between atoms: N_4  and  C_13
REMARK    5  A    between atoms: C_5  and  C_6
REMARK    6  A    between atoms: C_13  and  C_14
REMARK    7  A    between atoms: N_16  and  C_17
REMARK    8  A    between atoms: C_21  and  S_23
REMARK    9  A    between atoms: S_23  and  N_26
REMARK                            x       y       z     vdW  Elec       q    Type
REMARK                         _______ _______ _______ _____ _____    ______ ____
ROOT
ATOM      1  C   UNL     1       3.892  -0.922   0.895  0.00  0.00    +0.201 C 
ATOM      2  O   UNL     1       3.695   0.155   0.372  0.00  0.00    -0.278 OA
ATOM      3  N   UNL     1       5.005  -1.121   1.629  0.00  0.00    -0.287 N 
ATOM      4  H   UNL     1       5.199  -2.001   1.988  0.00  0.00    +0.155 HD
ENDROOT
BRANCH   3   5
ATOM      5  C   UNL     1       5.881  -0.057   1.873  0.00  0.00    +0.035 A 
ATOM      6  C   UNL     1       5.385   1.229   2.040  0.00  0.00    +0.023 A 
ATOM      7  C   UNL     1       6.253   2.276   2.281  0.00  0.00    +0.004 A 
ATOM      8  C   UNL     1       7.614   2.045   2.355  0.00  0.00    +0.029 A 
ATOM      9  C   UNL     1       8.111   0.766   2.188  0.00  0.00    +0.114 A 
ATOM     10  C   UNL     1       7.248  -0.287   1.954  0.00  0.00    +0.052 A 
BRANCH   9  11
ATOM     11  S   UNL     1       9.847   0.477   2.283  0.00  0.00    +0.100 S 
ATOM     12  O   UNL     1      10.101  -0.714   1.551  0.00  0.00    -0.146 OA
ATOM     13  O   UNL     1      10.481   1.710   1.975  0.00  0.00    -0.146 OA
BRANCH  11  14
ATOM     14  N   UNL     1      10.202   0.145   3.866  0.00  0.00    -0.118 NA
ATOM     15  C   UNL     1      11.421  -0.108   4.216  0.00  0.00    +0.117 C 
ATOM     16  C   UNL     1      11.750  -0.421   5.674  0.00  0.00    +0.073 C 
ATOM     17  C   UNL     1      12.131  -1.884   5.745  0.00  0.00    +0.008 C 
ATOM     18  C   UNL     1      13.620  -2.139   5.501  0.00  0.00    +0.002 C 
ATOM     19  C   UNL     1      14.188  -1.315   4.345  0.00  0.00    +0.019 C 
ATOM     20  C   UNL     1      13.273  -1.268   3.140  0.00  0.00    +0.102 C 
ATOM     21  N   UNL     1      12.383  -0.101   3.314  0.00  0.00    -0.331 N 
ATOM     22  H   UNL     1      12.510   0.681   2.755  0.00  0.00    +0.147 HD
ENDBRANCH  11  14
ENDBRANCH   9  11
ENDBRANCH   3   5
BRANCH   1  23
ATOM     23  C   UNL     1       2.893  -2.037   0.724  0.00  0.00    +0.020 C 
BRANCH  23  24
ATOM     24  N   UNL     1       1.778  -1.571  -0.112  0.00  0.00    +0.390 N 
ATOM     25  H   UNL     1       1.383  -0.735   0.291  0.00  0.00    -0.080 HD
BRANCH  24  26
ATOM     26  C   UNL     1       2.269  -1.279  -1.465  0.00  0.00    -0.051 C 
BRANCH  26  28
ATOM     27  C   UNL     1       1.318   0.505  -2.833  0.00  0.00    +0.002 C 
ATOM     28  C   UNL     1       1.158  -0.672  -2.282  0.00  0.00    -0.053 C 
ENDBRANCH  26  28
ENDBRANCH  24  26
BRANCH  24  29
ATOM     29  C   UNL     1       0.748  -2.616  -0.179  0.00  0.00    -0.039 C 
BRANCH  29  30
ATOM     30  C   UNL     1       0.150  -2.822   1.188  0.00  0.00    -0.029 A 
ATOM     31  C   UNL     1       0.491  -3.936   1.932  0.00  0.00    +0.004 A 
ATOM     32  C   UNL     1      -0.057  -4.125   3.187  0.00  0.00    +0.000 A 
ATOM     33  C   UNL     1      -0.947  -3.200   3.700  0.00  0.00    +0.003 A 
ATOM     34  C   UNL     1      -1.290  -2.085   2.958  0.00  0.00    +0.038 A 
ATOM     35  C   UNL     1      -0.737  -1.892   1.703  0.00  0.00    +0.125 A 
ATOM     36  F   UNL     1      -1.068  -0.800   0.980  0.00  0.00    -0.205 F 
ENDBRANCH  29  30
ENDBRANCH  24  29
ENDBRANCH  23  24
ENDBRANCH   1  23
TORSDOF 9
