REMARK  Name = ZINC39447842
REMARK  11 active torsions:
REMARK  status: ('A' for Active; 'I' for Inactive)
REMARK    1  A    between atoms: N_9  and  C_11
REMARK    2  A    between atoms: C_11  and  C_12
REMARK    3  A    between atoms: C_12  and  C_14
REMARK    4  A    between atoms: C_12  and  O_31
REMARK    5  A    between atoms: C_14  and  O_15
REMARK    6  A    between atoms: O_15  and  C_16
REMARK    7  A    between atoms: C_21  and  C_22
REMARK    8  A    between atoms: C_22  and  N_23
REMARK    9  A    between atoms: N_23  and  C_24
REMARK   10  A    between atoms: C_24  and  C_25
REMARK   11  A    between atoms: C_25  and  C_26
REMARK                            x       y       z     vdW  Elec       q    Type
REMARK                         _______ _______ _______ _____ _____    ______ ____
ROOT
ATOM      1  O   UNL     1       8.276  -2.195   1.673  0.00  0.00    -0.489 OA
ENDROOT
BRANCH   1   2
ATOM      2  C   UNL     1       9.545  -2.667   1.560  0.00  0.00    +0.122 A 
ATOM      3  C   UNL     1       9.843  -3.641   0.618  0.00  0.00    +0.046 A 
ATOM      4  C   UNL     1      11.134  -4.119   0.504  0.00  0.00    +0.004 A 
ATOM      5  C   UNL     1      12.129  -3.628   1.329  0.00  0.00    +0.000 A 
ATOM      6  C   UNL     1      11.835  -2.659   2.269  0.00  0.00    +0.005 A 
ATOM      7  C   UNL     1      10.547  -2.173   2.383  0.00  0.00    -0.023 A 
BRANCH   7   8
ATOM      8  C   UNL     1      10.228  -1.111   3.404  0.00  0.00    -0.043 C 
BRANCH   8   9
ATOM      9  N   UNL     1       9.617  -1.736   4.585  0.00  0.00    +0.382 N 
ATOM     10  H   UNL     1       8.767  -2.207   4.314  0.00  0.00    -0.085 HD
ATOM     11  H   UNL     1      10.260  -2.403   4.983  0.00  0.00    -0.085 HD
BRANCH   9  12
ATOM     12  C   UNL     1       9.307  -0.701   5.580  0.00  0.00    -0.078 C 
BRANCH  12  13
ATOM     13  C   UNL     1       8.670  -1.351   6.811  0.00  0.00    +0.015 C 
BRANCH  13  14
ATOM     14  C   UNL     1       8.352  -0.289   7.832  0.00  0.00    -0.029 C 
ATOM     15  C   UNL     1       7.194   0.346   8.024  0.00  0.00    +0.135 C 
ATOM     16  N   UNL     1       7.296   1.234   9.037  0.00  0.00    -0.162 NA
ATOM     17  N   UNL     1       8.408   1.279   9.569  0.00  0.00    -0.183 NA
ATOM     18  C   UNL     1       9.272   0.301   8.885  0.00  0.00    +0.198 C 
ENDBRANCH  13  14
ENDBRANCH  12  13
ENDBRANCH   9  12
ENDBRANCH   8   9
ENDBRANCH   7   8
ENDBRANCH   1   2
BRANCH   1  19
ATOM     19  C   UNL     1       7.296  -2.750   0.794  0.00  0.00    +0.258 C 
BRANCH  19  20
ATOM     20  C   UNL     1       5.939  -2.100   1.067  0.00  0.00    +0.135 C 
BRANCH  20  21
ATOM     21  O   UNL     1       6.000  -0.711   0.736  0.00  0.00    -0.390 OA
ATOM     22  H   UNL     1       6.219  -0.536  -0.189  0.00  0.00    +0.210 HD
ENDBRANCH  20  21
BRANCH  20  23
ATOM     23  C   UNL     1       4.866  -2.780   0.214  0.00  0.00    -0.043 C 
BRANCH  23  32
ATOM     24  C   UNL     1      -1.367  -1.283   0.465  0.00  0.00    +0.000 A 
ATOM     25  C   UNL     1      -1.086  -1.829  -0.773  0.00  0.00    +0.000 A 
ATOM     26  C   UNL     1       0.187  -2.284  -1.052  0.00  0.00    +0.002 A 
ATOM     27  C   UNL     1       1.188  -2.196  -0.095  0.00  0.00    -0.061 A 
ATOM     28  C   UNL     1       0.907  -1.649   1.139  0.00  0.00    -0.048 A 
ATOM     29  C   UNL     1      -0.372  -1.194   1.418  0.00  0.00    +0.004 A 
ATOM     30  C   UNL     1       1.966  -1.527   2.204  0.00  0.00    +0.017 C 
ATOM     31  C   UNL     1       3.153  -2.428   1.859  0.00  0.00    -0.074 C 
ATOM     32  N   UNL     1       3.563  -2.153   0.474  0.00  0.00    +0.384 N 
ATOM     33  C   UNL     1       2.561  -2.709  -0.440  0.00  0.00    -0.043 C 
ATOM     34  H   UNL     1       3.632  -1.157   0.333  0.00  0.00    -0.081 HD
ENDBRANCH  23  32
ENDBRANCH  20  23
ENDBRANCH  19  20
ENDBRANCH   1  19
TORSDOF 11
