REMARK  Name = ZINC43158728
REMARK  7 active torsions:
REMARK  status: ('A' for Active; 'I' for Inactive)
REMARK    1  A    between atoms: C_4  and  N_11
REMARK    2  A    between atoms: C_5  and  C_7
REMARK    3  A    between atoms: N_14  and  C_15
REMARK    4  A    between atoms: C_15  and  C_16
REMARK    5  A    between atoms: C_16  and  C_17
REMARK    6  A    between atoms: C_20  and  S_23
REMARK    7  A    between atoms: S_23  and  N_26
REMARK                            x       y       z     vdW  Elec       q    Type
REMARK                         _______ _______ _______ _____ _____    ______ ____
ROOT
ATOM      1  N   UNL     1       3.622  -0.651  -0.036  0.00  0.00    -0.269 N 
ATOM      2  C   UNL     1       4.776   0.037  -0.146  0.00  0.00    +0.304 C 
ATOM      3  O   UNL     1       4.762   1.253  -0.139  0.00  0.00    -0.253 OA
ATOM      4  N   UNL     1       5.945  -0.623  -0.263  0.00  0.00    -0.299 N 
ATOM      5  H   UNL     1       3.639  -1.618   0.041  0.00  0.00    +0.156 HD
ATOM      6  H   UNL     1       5.956  -1.593  -0.268  0.00  0.00    +0.150 HD
ENDROOT
BRANCH   1  10
ATOM      7  C   UNL     1      -0.019   1.375  -0.029  0.00  0.00    +0.001 A 
ATOM      8  C   UNL     1       1.087   1.946  -0.632  0.00  0.00    +0.002 A 
ATOM      9  C   UNL     1       2.296   1.277  -0.636  0.00  0.00    +0.024 A 
ATOM     10  C   UNL     1       2.399   0.030  -0.034  0.00  0.00    +0.046 A 
ATOM     11  C   UNL     1       1.286  -0.541   0.570  0.00  0.00    +0.076 A 
ATOM     12  C   UNL     1       0.081   0.133   0.571  0.00  0.00    +0.014 A 
BRANCH  11  13
ATOM     13  C   UNL     1       1.394  -1.894   1.224  0.00  0.00    +0.419 C 
ATOM     14  F   UNL     1       0.152  -2.254   1.758  0.00  0.00    -0.166 F 
ATOM     15  F   UNL     1       1.785  -2.842   0.273  0.00  0.00    -0.166 F 
ATOM     16  F   UNL     1       2.345  -1.843   2.249  0.00  0.00    -0.166 F 
ENDBRANCH  11  13
ENDBRANCH   1  10
BRANCH   4  17
ATOM     17  C   UNL     1       7.199   0.125  -0.382  0.00  0.00    +0.110 C 
BRANCH  17  18
ATOM     18  C   UNL     1       8.368  -0.856  -0.499  0.00  0.00    +0.054 C 
BRANCH  18  19
ATOM     19  C   UNL     1       9.658  -0.087  -0.622  0.00  0.00    -0.046 A 
ATOM     20  C   UNL     1      10.131   0.276  -1.869  0.00  0.00    +0.005 A 
ATOM     21  C   UNL     1      11.315   0.981  -1.982  0.00  0.00    +0.029 A 
ATOM     22  C   UNL     1      12.025   1.325  -0.847  0.00  0.00    +0.105 A 
ATOM     23  C   UNL     1      11.552   0.963   0.401  0.00  0.00    +0.029 A 
ATOM     24  C   UNL     1      10.366   0.261   0.513  0.00  0.00    +0.005 A 
BRANCH  22  25
ATOM     25  S   UNL     1      13.534   2.223  -0.990  0.00  0.00    +0.056 S 
ATOM     26  O   UNL     1      14.284   1.946   0.185  0.00  0.00    -0.153 OA
ATOM     27  O   UNL     1      14.038   1.965  -2.293  0.00  0.00    -0.153 OA
BRANCH  25  28
ATOM     28  N   UNL     1      13.152   3.833  -0.939  0.00  0.00    -0.204 NA
ATOM     29  H   UNL     1      13.786   4.471  -0.576  0.00  0.00    +0.144 HD
ATOM     30  H   UNL     1      12.294   4.139  -1.274  0.00  0.00    +0.144 HD
ENDBRANCH  25  28
ENDBRANCH  22  25
ENDBRANCH  18  19
ENDBRANCH  17  18
ENDBRANCH   4  17
TORSDOF 7
