REMARK  Name = ZINC44135663
REMARK  13 active torsions:
REMARK  status: ('A' for Active; 'I' for Inactive)
REMARK    1  A    between atoms: C_1  and  C_2
REMARK    2  A    between atoms: C_2  and  C_3
REMARK    3  A    between atoms: C_2  and  C_4
REMARK    4  A    between atoms: C_2  and  N_5
REMARK    5  A    between atoms: C_6  and  C_8
REMARK    6  A    between atoms: N_20  and  C_21
REMARK    7  A    between atoms: C_21  and  C_22
REMARK    8  A    between atoms: C_22  and  C_24
REMARK    9  A    between atoms: C_22  and  O_35
REMARK   10  A    between atoms: C_24  and  C_26
REMARK   11  A    between atoms: C_24  and  N_34
REMARK   12  A    between atoms: C_26  and  S_27
REMARK   13  A    between atoms: S_27  and  C_28
REMARK                            x       y       z     vdW  Elec       q    Type
REMARK                         _______ _______ _______ _____ _____    ______ ____
ROOT
ATOM      1  C   UNL     1       2.692  -0.619  -2.524  0.00  0.00    +0.020 C 
ATOM      2  C   UNL     1       2.827  -2.143  -2.472  0.00  0.00    -0.003 C 
ATOM      3  C   UNL     1       3.415  -2.637  -3.796  0.00  0.00    -0.011 C 
ATOM      4  C   UNL     1       3.626  -4.151  -3.745  0.00  0.00    +0.004 C 
ATOM      5  C   UNL     1       4.209  -4.622  -5.080  0.00  0.00    +0.000 C 
ATOM      6  C   UNL     1       5.546  -3.924  -5.334  0.00  0.00    +0.000 C 
ATOM      7  C   UNL     1       5.338  -2.408  -5.369  0.00  0.00    +0.002 C 
ATOM      8  C   UNL     1       4.762  -1.947  -4.030  0.00  0.00    -0.025 C 
ATOM      9  C   UNL     1       4.555  -0.432  -4.036  0.00  0.00    -0.074 C 
ATOM     10  N   UNL     1       4.011  -0.011  -2.739  0.00  0.00    +0.389 N 
ATOM     11  H   UNL     1       4.636  -0.300  -2.002  0.00  0.00    -0.081 HD
ENDROOT
BRANCH   1  13
ATOM     12  N   UNL     1       0.782  -0.042  -1.063  0.00  0.00    -0.312 N 
ATOM     13  C   UNL     1       2.118  -0.122  -1.223  0.00  0.00    +0.200 C 
ATOM     14  O   UNL     1       2.857   0.205  -0.319  0.00  0.00    -0.278 OA
ATOM     15  H   UNL     1       0.191  -0.304  -1.786  0.00  0.00    +0.149 HD
BRANCH  12  17
ATOM     16  C   UNL     1       0.713   1.866   0.465  0.00  0.00    +0.031 C 
ATOM     17  C   UNL     1       0.223   0.441   0.202  0.00  0.00    +0.026 C 
ATOM     18  C   UNL     1       0.678  -0.473   1.342  0.00  0.00    +0.031 C 
ATOM     19  C   UNL     1      -1.305   0.433   0.121  0.00  0.00    +0.031 C 
ENDBRANCH  12  17
ENDBRANCH   1  13
BRANCH  10  20
ATOM     20  C   UNL     1       3.882   1.452  -2.718  0.00  0.00    -0.048 C 
BRANCH  20  21
ATOM     21  C   UNL     1       5.271   2.088  -2.793  0.00  0.00    +0.084 C 
BRANCH  21  22
ATOM     22  O   UNL     1       6.051   1.663  -1.673  0.00  0.00    -0.395 OA
ATOM     23  H   UNL     1       5.672   1.904  -0.817  0.00  0.00    +0.210 HD
ENDBRANCH  21  22
BRANCH  21  24
ATOM     24  C   UNL     1       5.137   3.612  -2.772  0.00  0.00    -0.038 C 
BRANCH  24  25
ATOM     25  N   UNL     1       4.336   4.049  -3.923  0.00  0.00    +0.382 N 
ATOM     26  H   UNL     1       4.791   3.763  -4.777  0.00  0.00    -0.090 HD
ATOM     27  H   UNL     1       3.419   3.630  -3.874  0.00  0.00    -0.090 HD
ATOM     28  H   UNL     1       4.247   5.054  -3.909  0.00  0.00    -0.090 HD
ENDBRANCH  24  25
BRANCH  24  29
ATOM     29  C   UNL     1       6.526   4.247  -2.847  0.00  0.00    +0.060 C 
BRANCH  29  30
ATOM     30  S   UNL     1       6.378   6.047  -2.673  0.00  0.00    -0.127 S 
BRANCH  30  31
ATOM     31  C   UNL     1       8.040   6.624  -2.779  0.00  0.00    +0.008 A 
ATOM     32  C   UNL     1       9.080   5.721  -2.963  0.00  0.00    +0.015 A 
ATOM     33  C   UNL     1      10.381   6.176  -3.045  0.00  0.00    +0.001 A 
ATOM     34  C   UNL     1      10.649   7.529  -2.945  0.00  0.00    +0.000 A 
ATOM     35  C   UNL     1       9.617   8.431  -2.761  0.00  0.00    +0.001 A 
ATOM     36  C   UNL     1       8.313   7.983  -2.683  0.00  0.00    +0.015 A 
ENDBRANCH  30  31
ENDBRANCH  29  30
ENDBRANCH  24  29
ENDBRANCH  21  24
ENDBRANCH  20  21
ENDBRANCH  10  20
TORSDOF 10
