REMARK  Name = ZINC15947412
REMARK  8 active torsions:
REMARK  status: ('A' for Active; 'I' for Inactive)
REMARK    1  A    between atoms: C_1  and  C_2
REMARK    2  A    between atoms: C_2  and  N_3
REMARK    3  A    between atoms: C_11  and  O_32
REMARK    4  A    between atoms: C_13  and  C_16
REMARK    5  A    between atoms: C_19  and  O_22
REMARK    6  A    between atoms: O_22  and  C_23
REMARK    7  A    between atoms: C_23  and  C_25
REMARK    8  A    between atoms: C_28  and  C_31
REMARK                            x       y       z     vdW  Elec       q    Type
REMARK                         _______ _______ _______ _____ _____    ______ ____
ROOT
ATOM      1  N   UNL     1       1.046  -0.784   0.953  0.00  0.00    +0.383 N 
ATOM      2  C   UNL     1       1.153  -2.249   0.976  0.00  0.00    -0.074 C 
ATOM      3  C   UNL     1       2.083  -2.693   2.110  0.00  0.00    +0.018 C 
ATOM      4  C   UNL     1       1.603  -2.032   3.395  0.00  0.00    -0.027 A 
ATOM      5  C   UNL     1       0.765  -0.969   3.338  0.00  0.00    -0.021 A 
ATOM      6  S   UNL     1       0.473  -0.535   5.029  0.00  0.00    -0.080 S 
ATOM      7  C   UNL     1       1.407  -1.687   5.773  0.00  0.00    +0.080 A 
ATOM      8  C   UNL     1       1.966  -2.445   4.736  0.00  0.00    +0.067 A 
ATOM      9  C   UNL     1       2.850  -3.576   5.116  0.00  0.00    +0.220 C 
ATOM     10  N   UNL     1       3.251  -3.643   6.356  0.00  0.00    -0.223 NA
ATOM     11  C   UNL     1       2.943  -2.650   7.378  0.00  0.00    +0.224 C 
ATOM     12  N   UNL     1       1.674  -1.955   7.096  0.00  0.00    -0.313 N 
ATOM     13  C   UNL     1       0.231  -0.331   2.096  0.00  0.00    -0.035 C 
ATOM     14  H   UNL     1       1.061  -1.702   7.804  0.00  0.00    +0.149 HD
ATOM     15  H   UNL     1       1.968  -0.379   1.016  0.00  0.00    -0.081 HD
ENDROOT
BRANCH  11  16
ATOM     16  C   UNL     1       4.057  -1.636   7.430  0.00  0.00    -0.005 A 
ATOM     17  C   UNL     1       3.787  -0.333   7.807  0.00  0.00    +0.011 A 
ATOM     18  C   UNL     1       4.805   0.599   7.855  0.00  0.00    +0.047 A 
ATOM     19  C   UNL     1       6.100   0.226   7.524  0.00  0.00    +0.132 A 
ATOM     20  C   UNL     1       6.369  -1.081   7.146  0.00  0.00    +0.047 A 
ATOM     21  C   UNL     1       5.347  -2.010   7.105  0.00  0.00    +0.011 A 
BRANCH  19  22
ATOM     22  O   UNL     1       7.104   1.141   7.569  0.00  0.00    -0.422 OA
BRANCH  22  23
ATOM     23  C   UNL     1       7.492   1.595   8.777  0.00  0.00    +0.344 C 
ATOM     24  O   UNL     1       7.023   1.110   9.788  0.00  0.00    -0.245 OA
BRANCH  23  25
ATOM     25  C   UNL     1       8.489   2.681   8.873  0.00  0.00    +0.059 A 
ATOM     26  C   UNL     1       9.027   3.244   7.714  0.00  0.00    +0.015 A 
ATOM     27  C   UNL     1       9.957   4.258   7.811  0.00  0.00    +0.004 A 
ATOM     28  C   UNL     1      10.358   4.717   9.053  0.00  0.00    -0.050 A 
ATOM     29  C   UNL     1       9.830   4.163  10.206  0.00  0.00    +0.004 A 
ATOM     30  C   UNL     1       8.894   3.153  10.123  0.00  0.00    +0.015 A 
ATOM     31  C   UNL     1      11.375   5.825   9.151  0.00  0.00    +0.044 C 
ENDBRANCH  23  25
ENDBRANCH  22  23
ENDBRANCH  19  22
ENDBRANCH  11  16
BRANCH   1  33
ATOM     32  C   UNL     1       0.412   1.168  -0.383  0.00  0.00    -0.017 C 
ATOM     33  C   UNL     1       0.409  -0.360  -0.301  0.00  0.00    -0.082 C 
ENDBRANCH   1  33
BRANCH   9  34
ATOM     34  O   UNL     1       3.227  -4.506   4.207  0.00  0.00    -0.492 OA
ATOM     35  H   UNL     1       3.802  -5.195   4.566  0.00  0.00    +0.294 HD
ENDBRANCH   9  34
TORSDOF 6
