REMARK  Name = ZINC43250345
REMARK  8 active torsions:
REMARK  status: ('A' for Active; 'I' for Inactive)
REMARK    1  A    between atoms: C_1  and  C_2
REMARK    2  A    between atoms: C_2  and  C_3
REMARK    3  A    between atoms: C_3  and  C_5
REMARK    4  A    between atoms: C_3  and  N_21
REMARK    5  A    between atoms: C_5  and  C_7
REMARK    6  A    between atoms: C_5  and  O_13
REMARK    7  A    between atoms: C_8  and  C_12
REMARK    8  A    between atoms: O_13  and  C_14
REMARK                            x       y       z     vdW  Elec       q    Type
REMARK                         _______ _______ _______ _____ _____    ______ ____
ROOT
ATOM      1  C   UNL     1       0.654  -2.033   1.292  0.00  0.00    +0.196 C 
ENDROOT
BRANCH   1   2
ATOM      2  C   UNL     1       1.445  -2.743   2.360  0.00  0.00    +0.031 A 
ATOM      3  C   UNL     1       2.652  -3.352   2.265  0.00  0.00    -0.037 A 
ATOM      4  C   UNL     1       3.193  -3.946   3.390  0.00  0.00    +0.011 A 
ATOM      5  C   UNL     1       2.502  -3.900   4.555  0.00  0.00    +0.046 A 
ATOM      6  S   UNL     1       1.039  -2.992   4.080  0.00  0.00    -0.098 S 
ATOM      7  C   UNL     1       3.392  -3.384   0.953  0.00  0.00    +0.045 C 
ENDBRANCH   1   2
BRANCH   1   8
ATOM      8  C   UNL     1       0.754  -0.521   1.502  0.00  0.00    -0.029 C 
BRANCH   8   9
ATOM      9  N   UNL     1       2.162  -0.108   1.425  0.00  0.00    +0.383 N 
ATOM     10  H   UNL     1       2.228   0.889   1.564  0.00  0.00    -0.089 HD
ATOM     11  H   UNL     1       2.692  -0.583   2.140  0.00  0.00    -0.089 HD
ATOM     12  H   UNL     1       2.533  -0.346   0.517  0.00  0.00    -0.089 HD
ENDBRANCH   8   9
BRANCH   8  14
ATOM     13  C   UNL     1      -0.052   1.704   0.700  0.00  0.00    +0.002 C 
ATOM     14  C   UNL     1      -0.049   0.200   0.418  0.00  0.00    -0.016 C 
ENDBRANCH   8  14
ENDBRANCH   1   8
BRANCH   1  15
ATOM     15  O   UNL     1      -0.716  -2.434   1.367  0.00  0.00    -0.484 OA
BRANCH  15  16
ATOM     16  C   UNL     1      -1.058  -3.583   0.725  0.00  0.00    +0.134 A 
ATOM     17  C   UNL     1      -0.079  -4.366   0.132  0.00  0.00    +0.047 A 
ATOM     18  C   UNL     1      -0.429  -5.532  -0.519  0.00  0.00    +0.004 A 
ATOM     19  C   UNL     1      -1.755  -5.920  -0.582  0.00  0.00    +0.001 A 
ATOM     20  C   UNL     1      -2.734  -5.141   0.008  0.00  0.00    +0.018 A 
ATOM     21  C   UNL     1      -2.388  -3.976   0.667  0.00  0.00    +0.055 A 
ATOM     22  I   UNL     1      -3.869  -2.801   1.568  0.00  0.00    -0.040 I 
ENDBRANCH  15  16
ENDBRANCH   1  15
TORSDOF 6
