REMARK  Name = ZINC39691354
REMARK  10 active torsions:
REMARK  status: ('A' for Active; 'I' for Inactive)
REMARK    1  A    between atoms: C_1  and  S_2
REMARK    2  A    between atoms: S_2  and  C_3
REMARK    3  A    between atoms: C_3  and  C_4
REMARK    4  A    between atoms: C_4  and  C_5
REMARK    5  A    between atoms: C_9  and  C_18
REMARK    6  A    between atoms: N_20  and  C_21
REMARK    7  A    between atoms: C_21  and  C_22
REMARK    8  A    between atoms: C_22  and  N_23
REMARK    9  A    between atoms: C_24  and  C_26
REMARK   10  A    between atoms: C_26  and  C_27
REMARK                            x       y       z     vdW  Elec       q    Type
REMARK                         _______ _______ _______ _____ _____    ______ ____
ROOT
ATOM      1  C   UNL     1       2.215  -7.212   2.692  0.00  0.00    +0.218 C 
ATOM      2  O   UNL     1       1.189  -7.439   3.297  0.00  0.00    -0.275 OA
ATOM      3  N   UNL     1       2.908  -8.225   2.135  0.00  0.00    -0.314 N 
ATOM      4  H   UNL     1       3.729  -8.043   1.651  0.00  0.00    +0.149 HD
ENDROOT
BRANCH   1   9
ATOM      5  C   UNL     1       1.797  -2.327   3.047  0.00  0.00    +0.216 C 
ATOM      6  O   UNL     1       2.272  -1.474   3.767  0.00  0.00    -0.276 OA
ATOM      7  N   UNL     1       2.016  -3.631   3.311  0.00  0.00    -0.300 N 
ATOM      8  C   UNL     1       1.530  -4.806   2.550  0.00  0.00    +0.121 C 
ATOM      9  C   UNL     1       2.716  -5.796   2.563  0.00  0.00    +0.100 C 
ATOM     10  C   UNL     1       3.542  -5.403   3.799  0.00  0.00    -0.004 C 
ATOM     11  C   UNL     1       2.802  -4.212   4.425  0.00  0.00    +0.115 C 
ATOM     12  C   UNL     1       3.604  -6.566   4.785  0.00  0.00    -0.010 C 
ATOM     13  C   UNL     1       4.479  -6.171   5.978  0.00  0.00    -0.082 C 
ATOM     14  N   UNL     1       5.827  -5.830   5.508  0.00  0.00    +0.379 N 
ATOM     15  C   UNL     1       5.769  -4.653   4.633  0.00  0.00    -0.082 C 
ATOM     16  C   UNL     1       4.949  -4.984   3.383  0.00  0.00    -0.010 C 
ATOM     17  H   UNL     1       6.417  -5.630   6.301  0.00  0.00    -0.086 HD
ATOM     18  H   UNL     1       6.210  -6.611   4.995  0.00  0.00    -0.086 HD
BRANCH   5  19
ATOM     19  C   UNL     1       0.964  -1.929   1.856  0.00  0.00    +0.106 C 
BRANCH  19  20
ATOM     20  C   UNL     1       0.872  -0.404   1.784  0.00  0.00    +0.078 C 
BRANCH  20  22
ATOM     21  C   UNL     1      -0.142   1.888   0.409  0.00  0.00    +0.084 C 
ATOM     22  S   UNL     1      -0.132   0.075   0.351  0.00  0.00    -0.164 S 
ENDBRANCH  20  22
ENDBRANCH  19  20
ENDBRANCH   5  19
ENDBRANCH   1   9
BRANCH   3  23
ATOM     23  C   UNL     1       2.421  -9.601   2.260  0.00  0.00    +0.123 C 
BRANCH  23  24
ATOM     24  C   UNL     1       3.385 -10.550   1.544  0.00  0.00    +0.123 C 
BRANCH  24  25
ATOM     25  N   UNL     1       2.898 -11.926   1.669  0.00  0.00    -0.314 N 
ATOM     26  C   UNL     1       3.590 -12.939   1.112  0.00  0.00    +0.217 C 
ATOM     27  O   UNL     1       4.617 -12.712   0.507  0.00  0.00    -0.275 OA
ATOM     28  H   UNL     1       2.077 -12.108   2.153  0.00  0.00    +0.149 HD
BRANCH  26  29
ATOM     29  C   UNL     1       3.090 -14.355   1.241  0.00  0.00    +0.131 C 
BRANCH  29  30
ATOM     30  C   UNL     1       4.039 -15.289   0.536  0.00  0.00    -0.031 A 
ATOM     31  C   UNL     1       3.801 -15.662  -0.751  0.00  0.00    +0.005 A 
ATOM     32  C   UNL     1       4.666 -16.526  -1.420  0.00  0.00    +0.001 A 
ATOM     33  C   UNL     1       5.775 -17.021  -0.805  0.00  0.00    +0.008 A 
ATOM     34  C   UNL     1       6.054 -16.658   0.524  0.00  0.00    -0.018 A 
ATOM     35  C   UNL     1       5.176 -15.775   1.202  0.00  0.00    -0.014 A 
ATOM     36  C   UNL     1       5.458 -15.408   2.529  0.00  0.00    +0.009 A 
ATOM     37  C   UNL     1       6.570 -15.899   3.141  0.00  0.00    +0.001 A 
ATOM     38  C   UNL     1       7.436 -16.762   2.473  0.00  0.00    +0.001 A 
ATOM     39  C   UNL     1       7.188 -17.150   1.192  0.00  0.00    +0.008 A 
ENDBRANCH  29  30
ENDBRANCH  26  29
ENDBRANCH  24  25
ENDBRANCH  23  24
ENDBRANCH   3  23
TORSDOF 9
