REMARK  Name = ZINC42360435
REMARK  7 active torsions:
REMARK  status: ('A' for Active; 'I' for Inactive)
REMARK    1  A    between atoms: C_1  and  N_2
REMARK    2  A    between atoms: N_2  and  C_3
REMARK    3  A    between atoms: N_2  and  C_10
REMARK    4  A    between atoms: C_3  and  C_4
REMARK    5  A    between atoms: C_10  and  C_11
REMARK    6  A    between atoms: C_13  and  N_18
REMARK    7  A    between atoms: C_16  and  O_17
REMARK                            x       y       z     vdW  Elec       q    Type
REMARK                         _______ _______ _______ _____ _____    ______ ____
ROOT
ATOM      1  C   UNL     1      -1.376  -0.512   0.012  0.00  0.00    -0.039 C 
ENDROOT
BRANCH   1   2
ATOM      2  C   UNL     1      -2.043  -0.130   1.309  0.00  0.00    -0.021 A 
ATOM      3  C   UNL     1      -2.979   0.885   1.330  0.00  0.00    +0.028 A 
ATOM      4  C   UNL     1      -3.594   1.237   2.524  0.00  0.00    +0.025 A 
ATOM      5  C   UNL     1      -3.266   0.568   3.696  0.00  0.00    +0.026 A 
ATOM      6  C   UNL     1      -2.330  -0.447   3.673  0.00  0.00    +0.047 A 
ATOM      7  C   UNL     1      -1.720  -0.801   2.479  0.00  0.00    +0.118 A 
BRANCH   4   8
ATOM      8  N   UNL     1      -4.542   2.266   2.547  0.00  0.00    -0.358 N 
ATOM      9  H   UNL     1      -4.771   2.733   1.728  0.00  0.00    +0.142 HD
ATOM     10  H   UNL     1      -4.971   2.511   3.381  0.00  0.00    +0.142 HD
ENDBRANCH   4   8
BRANCH   7  11
ATOM     11  O   UNL     1      -0.802  -1.804   2.456  0.00  0.00    -0.507 OA
ATOM     12  H   UNL     1       0.106  -1.509   2.607  0.00  0.00    +0.292 HD
ENDBRANCH   7  11
ENDBRANCH   1   2
BRANCH   1  14
ATOM     13  C   UNL     1      -0.018   1.465   0.010  0.00  0.00    -0.095 C 
ATOM     14  N   UNL     1       0.002  -0.004   0.002  0.00  0.00    +0.383 N 
ATOM     15  H   UNL     1       0.490  -0.338   0.820  0.00  0.00    -0.081 HD
BRANCH  14  16
ATOM     16  C   UNL     1       0.690  -0.478  -1.207  0.00  0.00    -0.042 C 
BRANCH  16  17
ATOM     17  C   UNL     1       2.137  -0.060  -1.158  0.00  0.00    -0.056 A 
ATOM     18  C   UNL     1       2.534   1.155  -1.686  0.00  0.00    +0.024 A 
ATOM     19  C   UNL     1       3.844   1.500  -1.625  0.00  0.00    +0.055 A 
ATOM     20  S   UNL     1       4.561   0.087  -0.803  0.00  0.00    -0.090 S 
ATOM     21  C   UNL     1       3.067  -0.866  -0.591  0.00  0.00    +0.048 A 
ATOM     22 BR   UNL     1       4.692   3.071  -2.250  0.00  0.00    -0.043 Br
ENDBRANCH  16  17
ENDBRANCH  14  16
ENDBRANCH   1  14
TORSDOF 6
