REMARK  Name = ZINC46279832
REMARK  17 active torsions:
REMARK  status: ('A' for Active; 'I' for Inactive)
REMARK    1  A    between atoms: C_1  and  C_2
REMARK    2  A    between atoms: C_2  and  N_3
REMARK    3  A    between atoms: N_3  and  C_4
REMARK    4  A    between atoms: N_3  and  C_6
REMARK    5  A    between atoms: C_4  and  C_5
REMARK    6  A    between atoms: C_6  and  C_8
REMARK    7  A    between atoms: C_6  and  C_9
REMARK    8  A    between atoms: C_9  and  N_10
REMARK    9  A    between atoms: N_13  and  C_14
REMARK   10  A    between atoms: C_14  and  C_15
REMARK   11  A    between atoms: C_15  and  C_16
REMARK   12  A    between atoms: C_16  and  N_17
REMARK   13  A    between atoms: C_23  and  O_25
REMARK   14  A    between atoms: O_25  and  C_26
REMARK   15  A    between atoms: C_26  and  C_27
REMARK   16  A    between atoms: C_26  and  C_28
REMARK   17  A    between atoms: C_26  and  C_29
REMARK                            x       y       z     vdW  Elec       q    Type
REMARK                         _______ _______ _______ _____ _____    ______ ____
ROOT
ATOM      1  C   UNL     1      -5.021  -1.372   1.101  0.00  0.00    +0.104 C 
ENDROOT
BRANCH   1   5
ATOM      2  N   UNL     1      -1.648  -1.590  -0.345  0.00  0.00    -0.301 N 
ATOM      3  C   UNL     1      -2.952  -1.826  -0.103  0.00  0.00    +0.300 C 
ATOM      4  O   UNL     1      -3.543  -2.681  -0.736  0.00  0.00    -0.253 OA
ATOM      5  N   UNL     1      -3.603  -1.115   0.839  0.00  0.00    -0.299 N 
ATOM      6  H   UNL     1      -1.177  -0.908   0.159  0.00  0.00    +0.150 HD
ATOM      7  H   UNL     1      -3.132  -0.433   1.343  0.00  0.00    +0.150 HD
BRANCH   2   8
ATOM      8  C   UNL     1      -0.941  -2.363  -1.369  0.00  0.00    +0.090 C 
BRANCH   8   9
ATOM      9  C   UNL     1       0.540  -1.978  -1.367  0.00  0.00    -0.054 C 
ATOM     10  C   UNL     1       1.265  -2.734  -2.482  0.00  0.00    -0.012 C 
BRANCH   9  11
ATOM     11  N   UNL     1       0.671  -0.532  -1.589  0.00  0.00    +0.382 N 
ATOM     12  H   UNL     1       0.115  -0.035  -0.910  0.00  0.00    -0.081 HD
BRANCH  11  14
ATOM     13  C   UNL     1       2.523  -0.343   0.002  0.00  0.00    -0.017 C 
ATOM     14  C   UNL     1       2.080  -0.141  -1.448  0.00  0.00    -0.082 C 
ENDBRANCH  11  14
BRANCH  11  15
ATOM     15  C   UNL     1       0.204  -0.201  -2.942  0.00  0.00    -0.082 C 
ATOM     16  C   UNL     1       0.194   1.318  -3.121  0.00  0.00    -0.017 C 
ENDBRANCH  11  15
ENDBRANCH   9  11
ENDBRANCH   8   9
ENDBRANCH   2   8
ENDBRANCH   1   5
BRANCH   1  17
ATOM     17  C   UNL     1      -5.512  -0.436   2.208  0.00  0.00    +0.000 C 
BRANCH  17  18
ATOM     18  C   UNL     1      -6.994  -0.705   2.482  0.00  0.00    -0.077 C 
BRANCH  18  19
ATOM     19  N   UNL     1      -7.465   0.194   3.545  0.00  0.00    +0.382 N 
ATOM     20  C   UNL     1      -6.765  -0.122   4.796  0.00  0.00    -0.059 C 
ATOM     21  C   UNL     1      -7.171   0.887   5.875  0.00  0.00    +0.092 C 
ATOM     22  N   UNL     1      -8.638   0.888   5.984  0.00  0.00    -0.271 N 
ATOM     23  C   UNL     1      -9.425   1.035   4.750  0.00  0.00    +0.092 C 
ATOM     24  C   UNL     1      -8.912   0.019   3.724  0.00  0.00    -0.059 C 
ATOM     25  C   UNL     1      -9.244   0.758   7.181  0.00  0.00    +0.403 C 
ATOM     26  O   UNL     1      -8.578   0.637   8.190  0.00  0.00    -0.226 OA
ATOM     27  H   UNL     1      -7.272   1.149   3.286  0.00  0.00    -0.082 HD
BRANCH  25  28
ATOM     28  O   UNL     1     -10.588   0.761   7.259  0.00  0.00    -0.445 OA
BRANCH  28  29
ATOM     29  C   UNL     1     -11.163   0.619   8.559  0.00  0.00    +0.107 C 
ATOM     30  C   UNL     1     -10.697   1.771   9.452  0.00  0.00    +0.055 C 
ATOM     31  C   UNL     1     -12.689   0.646   8.448  0.00  0.00    +0.055 C 
ATOM     32  C   UNL     1     -10.720  -0.712   9.170  0.00  0.00    +0.055 C 
ENDBRANCH  28  29
ENDBRANCH  25  28
ENDBRANCH  18  19
ENDBRANCH  17  18
ENDBRANCH   1  17
TORSDOF 11
