REMARK  Name = ZINC12873251
REMARK  15 active torsions:
REMARK  status: ('A' for Active; 'I' for Inactive)
REMARK    1  A    between atoms: C_1  and  C_2
REMARK    2  A    between atoms: C_5  and  C_8
REMARK    3  A    between atoms: C_8  and  N_9
REMARK    4  A    between atoms: C_10  and  C_12
REMARK    5  A    between atoms: C_12  and  C_14
REMARK    6  A    between atoms: C_12  and  N_17
REMARK    7  A    between atoms: C_14  and  C_15
REMARK    8  A    between atoms: C_14  and  C_16
REMARK    9  A    between atoms: C_18  and  C_20
REMARK   10  A    between atoms: C_26  and  C_28
REMARK   11  A    between atoms: C_28  and  C_30
REMARK   12  A    between atoms: C_28  and  N_34
REMARK   13  A    between atoms: C_30  and  C_31
REMARK   14  A    between atoms: C_31  and  C_32
REMARK   15  A    between atoms: C_31  and  C_33
REMARK                            x       y       z     vdW  Elec       q    Type
REMARK                         _______ _______ _______ _____ _____    ______ ____
ROOT
ATOM      1  N   UNL     1       3.797  -7.455   0.079  0.00  0.00    -0.304 N 
ATOM      2  C   UNL     1       4.714  -8.418   0.297  0.00  0.00    +0.217 C 
ATOM      3  O   UNL     1       5.776  -8.139   0.813  0.00  0.00    -0.275 OA
ATOM      4  H   UNL     1       2.948  -7.678  -0.334  0.00  0.00    +0.149 HD
ENDROOT
BRANCH   2   5
ATOM      5  C   UNL     1       4.421  -9.842  -0.101  0.00  0.00    +0.078 C 
ATOM      6  C   UNL     1       3.180 -10.335   0.646  0.00  0.00    +0.032 C 
ATOM      7  C   UNL     1       2.865 -11.771   0.213  0.00  0.00    +0.108 C 
ATOM      8  N   UNL     1       4.061 -12.599   0.416  0.00  0.00    -0.303 N 
ATOM      9  C   UNL     1       5.331 -12.167  -0.184  0.00  0.00    +0.108 C 
ATOM     10  C   UNL     1       5.618 -10.727   0.253  0.00  0.00    +0.032 C 
ATOM     11  C   UNL     1       3.996 -13.734   1.141  0.00  0.00    +0.201 C 
ATOM     12  O   UNL     1       2.942 -14.080   1.632  0.00  0.00    -0.277 OA
BRANCH  11  13
ATOM     13  C   UNL     1       5.231 -14.573   1.340  0.00  0.00    +0.013 C 
BRANCH  13  14
ATOM     14  N   UNL     1       5.046 -15.448   2.505  0.00  0.00    +0.386 N 
ATOM     15  H   UNL     1       4.312 -16.113   2.313  0.00  0.00    -0.089 HD
ATOM     16  H   UNL     1       5.905 -15.942   2.695  0.00  0.00    -0.089 HD
ATOM     17  H   UNL     1       4.794 -14.891   3.308  0.00  0.00    -0.089 HD
ENDBRANCH  13  14
BRANCH  13  18
ATOM     18  C   UNL     1       5.474 -15.428   0.094  0.00  0.00    -0.004 C 
BRANCH  18  19
ATOM     19  C   UNL     1       6.789 -16.194   0.249  0.00  0.00    -0.018 C 
ATOM     20  C   UNL     1       6.954 -17.167  -0.920  0.00  0.00    +0.007 C 
ATOM     21  C   UNL     1       7.957 -15.206   0.260  0.00  0.00    +0.007 C 
ENDBRANCH  18  19
ENDBRANCH  13  18
ENDBRANCH  11  13
ENDBRANCH   2   5
BRANCH   1  22
ATOM     22  C   UNL     1       4.082  -6.071   0.466  0.00  0.00    +0.161 C 
BRANCH  22  24
ATOM     23  N   UNL     1       2.776  -4.211   1.441  0.00  0.00    -0.310 N 
ATOM     24  C   UNL     1       2.786  -5.339   0.705  0.00  0.00    +0.234 C 
ATOM     25  O   UNL     1       1.753  -5.766   0.234  0.00  0.00    -0.274 OA
ATOM     26  H   UNL     1       3.586  -3.912   1.882  0.00  0.00    +0.149 HD
BRANCH  23  27
ATOM     27  C   UNL     1       1.540  -3.436   1.576  0.00  0.00    +0.139 C 
BRANCH  27  32
ATOM     28  C   UNL     1       2.515   1.188   4.902  0.00  0.00    +0.044 C 
ATOM     29  C   UNL     1       2.261  -0.018   4.035  0.00  0.00    -0.050 A 
ATOM     30  C   UNL     1       2.438   0.065   2.666  0.00  0.00    +0.003 A 
ATOM     31  C   UNL     1       2.205  -1.041   1.871  0.00  0.00    +0.005 A 
ATOM     32  C   UNL     1       1.795  -2.230   2.443  0.00  0.00    -0.030 A 
ATOM     33  C   UNL     1       1.618  -2.313   3.812  0.00  0.00    +0.005 A 
ATOM     34  C   UNL     1       1.855  -1.208   4.608  0.00  0.00    +0.003 A 
ENDBRANCH  27  32
ENDBRANCH  23  27
ENDBRANCH  22  24
BRANCH  22  35
ATOM     35  C   UNL     1       4.861  -5.378  -0.654  0.00  0.00    +0.012 C 
ATOM     36  C   UNL     1       4.021  -5.377  -1.933  0.00  0.00    +0.009 C 
ATOM     37  C   UNL     1       5.169  -3.937  -0.244  0.00  0.00    +0.009 C 
ENDBRANCH  22  35
ENDBRANCH   1  22
TORSDOF 10
