REMARK  Name = ZINC27696058
REMARK  10 active torsions:
REMARK  status: ('A' for Active; 'I' for Inactive)
REMARK    1  A    between atoms: C_1  and  C_2
REMARK    2  A    between atoms: C_2  and  C_4
REMARK    3  A    between atoms: C_2  and  C_16
REMARK    4  A    between atoms: C_9  and  O_14
REMARK    5  A    between atoms: O_14  and  C_15
REMARK    6  A    between atoms: N_24  and  C_25
REMARK    7  A    between atoms: C_25  and  C_26
REMARK    8  A    between atoms: C_26  and  C_28
REMARK    9  A    between atoms: C_26  and  O_35
REMARK   10  A    between atoms: C_28  and  N_29
REMARK                            x       y       z     vdW  Elec       q    Type
REMARK                         _______ _______ _______ _____ _____    ______ ____
ROOT
ATOM      1  C   UNL     1      -0.560  -4.801   1.168  0.00  0.00    +0.118 A 
ATOM      2  N   UNL     1      -1.801  -4.553   1.469  0.00  0.00    -0.232 NA
ATOM      3  C   UNL     1      -2.112  -5.149   2.650  0.00  0.00    +0.089 A 
ATOM      4  C   UNL     1      -3.275  -5.209   3.422  0.00  0.00    +0.030 A 
ATOM      5  C   UNL     1      -3.277  -5.906   4.596  0.00  0.00    +0.002 A 
ATOM      6  C   UNL     1      -2.133  -6.560   5.033  0.00  0.00    +0.002 A 
ATOM      7  C   UNL     1      -0.975  -6.514   4.288  0.00  0.00    +0.028 A 
ATOM      8  C   UNL     1      -0.954  -5.810   3.092  0.00  0.00    +0.069 A 
ATOM      9  N   UNL     1       0.009  -5.576   2.130  0.00  0.00    -0.325 N 
ENDROOT
BRANCH   1  11
ATOM     10  C   UNL     1      -0.578  -4.835  -1.312  0.00  0.00    +0.020 C 
ATOM     11  C   UNL     1       0.143  -4.306  -0.070  0.00  0.00    +0.082 C 
BRANCH  11  12
ATOM     12  C   UNL     1       0.131  -2.800  -0.086  0.00  0.00    -0.037 A 
ATOM     13  C   UNL     1      -1.087  -2.122  -0.089  0.00  0.00    +0.005 A 
ATOM     14  C   UNL     1      -1.132  -0.762  -0.104  0.00  0.00    +0.009 A 
ATOM     15  C   UNL     1       0.065  -0.026  -0.115  0.00  0.00    -0.014 A 
ATOM     16  C   UNL     1       0.057   1.378  -0.131  0.00  0.00    +0.054 A 
ATOM     17  C   UNL     1       1.240   2.060  -0.142  0.00  0.00    +0.121 A 
ATOM     18  C   UNL     1       2.462   1.378  -0.138  0.00  0.00    +0.046 A 
ATOM     19  C   UNL     1       2.503   0.019  -0.123  0.00  0.00    +0.012 A 
ATOM     20  C   UNL     1       1.304  -0.715  -0.111  0.00  0.00    -0.017 A 
ATOM     21  C   UNL     1       1.311  -2.120  -0.096  0.00  0.00    +0.012 A 
BRANCH  17  22
ATOM     22  O   UNL     1       1.231   3.419  -0.158  0.00  0.00    -0.495 OA
ATOM     23  C   UNL     1       2.500   4.076  -0.169  0.00  0.00    +0.277 C 
ENDBRANCH  17  22
ENDBRANCH  11  12
ENDBRANCH   1  11
BRANCH   9  24
ATOM     24  C   UNL     1       1.389  -6.069   2.145  0.00  0.00    +0.153 C 
BRANCH  24  25
ATOM     25  C   UNL     1       2.284  -5.055   2.860  0.00  0.00    +0.118 C 
BRANCH  25  26
ATOM     26  O   UNL     1       2.324  -3.841   2.107  0.00  0.00    -0.392 OA
ATOM     27  H   UNL     1       2.922  -2.990   2.467  0.00  0.00    +0.210 HD
ENDBRANCH  25  26
BRANCH  25  28
ATOM     28  C   UNL     1       3.699  -5.624   2.986  0.00  0.00    -0.045 C 
BRANCH  28  29
ATOM     29  N   UNL     1       4.556  -4.655   3.683  0.00  0.00    +0.381 N 
ATOM     30  C   UNL     1       5.975  -4.922   3.416  0.00  0.00    -0.079 C 
ATOM     31  C   UNL     1       6.829  -3.812   4.036  0.00  0.00    -0.019 C 
ATOM     32  C   UNL     1       6.574  -3.761   5.545  0.00  0.00    -0.004 C 
ATOM     33  C   UNL     1       5.081  -3.531   5.795  0.00  0.00    -0.019 C 
ATOM     34  C   UNL     1       4.278  -4.649   5.125  0.00  0.00    -0.079 C 
ATOM     35  H   UNL     1       4.324  -3.654   3.292  0.00  0.00    -0.082 HD
ENDBRANCH  28  29
ENDBRANCH  25  28
ENDBRANCH  24  25
ENDBRANCH   9  24
TORSDOF 8
