REMARK  Name = ZINC15019108
REMARK  9 active torsions:
REMARK  status: ('A' for Active; 'I' for Inactive)
REMARK    1  A    between atoms: C_1  and  C_2
REMARK    2  A    between atoms: C_2  and  C_4
REMARK    3  A    between atoms: C_2  and  N_26
REMARK    4  A    between atoms: C_7  and  S_10
REMARK    5  A    between atoms: N_8  and  C_9
REMARK    6  A    between atoms: S_10  and  C_11
REMARK    7  A    between atoms: C_11  and  C_12
REMARK    8  A    between atoms: N_14  and  C_15
REMARK    9  A    between atoms: C_16  and  C_24
REMARK                            x       y       z     vdW  Elec       q    Type
REMARK                         _______ _______ _______ _____ _____    ______ ____
ROOT
ATOM      1  C   UNL     1       0.707  -0.490  -1.238  0.00  0.00    +0.155 A 
ATOM      2  N   UNL     1       0.225  -0.496  -2.448  0.00  0.00    -0.132 NA
ATOM      3  N   UNL     1       1.093  -0.974  -3.267  0.00  0.00    -0.122 NA
ATOM      4  C   UNL     1       2.183  -1.310  -2.615  0.00  0.00    +0.192 A 
ATOM      5  N   UNL     1       1.970  -1.012  -1.300  0.00  0.00    -0.308 N 
ATOM      6  C   UNL     1       2.901  -1.209  -0.187  0.00  0.00    +0.152 C 
ENDROOT
BRANCH   1   8
ATOM      7  C   UNL     1      -0.019   1.526   0.010  0.00  0.00    +0.037 C 
ATOM      8  C   UNL     1       0.002  -0.004   0.002  0.00  0.00    +0.146 C 
BRANCH   8   9
ATOM      9  N   UNL     1      -1.372  -0.511   0.012  0.00  0.00    -0.255 N 
ATOM     10  C   UNL     1      -1.821  -1.330   1.058  0.00  0.00    +0.079 A 
ATOM     11  C   UNL     1      -1.108  -1.420   2.243  0.00  0.00    +0.027 A 
ATOM     12  C   UNL     1      -1.568  -2.234   3.262  0.00  0.00    +0.002 A 
ATOM     13  C   UNL     1      -2.736  -2.957   3.101  0.00  0.00    +0.004 A 
ATOM     14  C   UNL     1      -3.452  -2.871   1.921  0.00  0.00    +0.047 A 
ATOM     15  C   UNL     1      -2.998  -2.058   0.897  0.00  0.00    +0.143 A 
ATOM     16  O   UNL     1      -3.691  -1.960  -0.269  0.00  0.00    -0.481 OA
ATOM     17  C   UNL     1      -3.648  -0.697  -0.938  0.00  0.00    +0.325 C 
ATOM     18  C   UNL     1      -2.228  -0.193  -0.983  0.00  0.00    +0.258 C 
ATOM     19  O   UNL     1      -1.855   0.493  -1.911  0.00  0.00    -0.271 OA
ENDBRANCH   8   9
ENDBRANCH   1   8
BRANCH   4  20
ATOM     20  S   UNL     1       3.642  -2.013  -3.308  0.00  0.00    -0.077 S 
BRANCH  20  21
ATOM     21  C   UNL     1       3.155  -2.097  -5.049  0.00  0.00    +0.173 C 
BRANCH  21  22
ATOM     22  C   UNL     1       4.283  -2.685  -5.858  0.00  0.00    +0.228 C 
ATOM     23  O   UNL     1       5.314  -3.014  -5.311  0.00  0.00    -0.275 OA
ATOM     24  N   UNL     1       4.146  -2.844  -7.189  0.00  0.00    -0.278 N 
ATOM     25  H   UNL     1       3.321  -2.581  -7.627  0.00  0.00    +0.155 HD
BRANCH  24  26
ATOM     26  C   UNL     1       5.184  -3.385  -7.934  0.00  0.00    +0.090 A 
ATOM     27  C   UNL     1       5.229  -3.630  -9.299  0.00  0.00    +0.084 A 
ATOM     28  C   UNL     1       6.449  -4.205  -9.838  0.00  0.00    -0.018 A 
ATOM     29  C   UNL     1       7.419  -4.452  -8.931  0.00  0.00    -0.004 A 
ATOM     30  S   UNL     1       6.736  -3.925  -7.385  0.00  0.00    -0.077 S 
ATOM     31  C   UNL     1       8.770  -5.043  -9.191  0.00  0.00    +0.043 C 
ATOM     32  C   UNL     1       8.759  -5.678 -10.589  0.00  0.00    +0.005 C 
ATOM     33  C   UNL     1       8.153  -4.679 -11.579  0.00  0.00    +0.005 C 
ATOM     34  C   UNL     1       6.655  -4.526 -11.313  0.00  0.00    +0.037 C 
BRANCH  27  35
ATOM     35  C   UNL     1       4.116  -3.323 -10.145  0.00  0.00    +0.102 C 
ATOM     36  N   UNL     1       3.232  -3.079 -10.816  0.00  0.00    -0.191 NA
ENDBRANCH  27  35
ENDBRANCH  24  26
ENDBRANCH  21  22
ENDBRANCH  20  21
ENDBRANCH   4  20
TORSDOF 7
