REMARK  Name = ZINC55024017
REMARK  9 active torsions:
REMARK  status: ('A' for Active; 'I' for Inactive)
REMARK    1  A    between atoms: C_1  and  N_2
REMARK    2  A    between atoms: N_2  and  C_3
REMARK    3  A    between atoms: N_2  and  C_12
REMARK    4  A    between atoms: C_3  and  C_4
REMARK    5  A    between atoms: C_4  and  C_5
REMARK    6  A    between atoms: C_12  and  C_13
REMARK    7  A    between atoms: N_15  and  C_16
REMARK    8  A    between atoms: C_19  and  S_22
REMARK    9  A    between atoms: S_22  and  N_25
REMARK                            x       y       z     vdW  Elec       q    Type
REMARK                         _______ _______ _______ _____ _____    ______ ____
ROOT
ATOM      1  C   UNL     1       2.159  -0.073   1.119  0.00  0.00    +0.201 C 
ATOM      2  O   UNL     1       2.560   0.560   0.166  0.00  0.00    -0.278 OA
ATOM      3  N   UNL     1       3.008  -0.409   2.111  0.00  0.00    -0.287 N 
ATOM      4  H   UNL     1       2.674  -0.857   2.904  0.00  0.00    +0.155 HD
ENDROOT
BRANCH   3   5
ATOM      5  C   UNL     1       4.370  -0.113   1.996  0.00  0.00    +0.033 A 
ATOM      6  C   UNL     1       5.319  -0.984   2.515  0.00  0.00    +0.025 A 
ATOM      7  C   UNL     1       6.663  -0.688   2.400  0.00  0.00    +0.030 A 
ATOM      8  C   UNL     1       7.065   0.475   1.768  0.00  0.00    +0.105 A 
ATOM      9  C   UNL     1       6.123   1.345   1.250  0.00  0.00    +0.030 A 
ATOM     10  C   UNL     1       4.777   1.051   1.357  0.00  0.00    +0.025 A 
BRANCH   8  11
ATOM     11  S   UNL     1       8.780   0.849   1.623  0.00  0.00    +0.056 S 
ATOM     12  O   UNL     1       8.877   2.259   1.473  0.00  0.00    -0.153 OA
ATOM     13  O   UNL     1       9.439   0.147   2.668  0.00  0.00    -0.153 OA
BRANCH  11  14
ATOM     14  N   UNL     1       9.308   0.184   0.201  0.00  0.00    -0.204 NA
ATOM     15  H   UNL     1       8.689  -0.301  -0.367  0.00  0.00    +0.144 HD
ATOM     16  H   UNL     1      10.236   0.281  -0.065  0.00  0.00    +0.144 HD
ENDBRANCH  11  14
ENDBRANCH   8  11
ENDBRANCH   3   5
BRANCH   1  17
ATOM     17  C   UNL     1       0.711  -0.485   1.196  0.00  0.00    +0.018 C 
BRANCH  17  19
ATOM     18  C   UNL     1      -0.012   1.467   0.004  0.00  0.00    -0.096 C 
ATOM     19  N   UNL     1       0.001  -0.002   0.004  0.00  0.00    +0.384 N 
ATOM     20  H   UNL     1       0.471  -0.334  -0.825  0.00  0.00    -0.082 HD
BRANCH  19  21
ATOM     21  C   UNL     1      -1.379  -0.504   0.019  0.00  0.00    -0.074 C 
BRANCH  21  22
ATOM     22  C   UNL     1      -2.081  -0.105  -1.281  0.00  0.00    +0.016 C 
BRANCH  22  23
ATOM     23  C   UNL     1      -3.497  -0.620  -1.266  0.00  0.00    -0.049 A 
ATOM     24  C   UNL     1      -3.780  -1.879  -1.763  0.00  0.00    +0.006 A 
ATOM     25  C   UNL     1      -5.078  -2.352  -1.749  0.00  0.00    +0.038 A 
ATOM     26  C   UNL     1      -6.096  -1.565  -1.236  0.00  0.00    +0.123 A 
ATOM     27  C   UNL     1      -5.811  -0.305  -0.738  0.00  0.00    +0.038 A 
ATOM     28  C   UNL     1      -4.512   0.164  -0.749  0.00  0.00    +0.006 A 
ATOM     29  F   UNL     1      -7.366  -2.027  -1.222  0.00  0.00    -0.205 F 
ENDBRANCH  22  23
ENDBRANCH  21  22
ENDBRANCH  19  21
ENDBRANCH  17  19
ENDBRANCH   1  17
TORSDOF 8
