REMARK  Name = ZINC57943675
REMARK  8 active torsions:
REMARK  status: ('A' for Active; 'I' for Inactive)
REMARK    1  A    between atoms: C_1  and  N_2
REMARK    2  A    between atoms: N_2  and  C_3
REMARK    3  A    between atoms: N_2  and  C_4
REMARK    4  A    between atoms: C_4  and  C_10
REMARK    5  A    between atoms: C_10  and  N_11
REMARK    6  A    between atoms: N_11  and  C_12
REMARK    7  A    between atoms: C_12  and  C_13
REMARK    8  A    between atoms: C_16  and  O_20
REMARK                            x       y       z     vdW  Elec       q    Type
REMARK                         _______ _______ _______ _____ _____    ______ ____
ROOT
ATOM      1  N   UNL     1      -1.861   1.211  -1.646  0.00  0.00    +0.383 N 
ATOM      2  H   UNL     1      -2.442   1.652  -0.949  0.00  0.00    -0.085 HD
ATOM      3  H   UNL     1      -0.907   1.520  -1.534  0.00  0.00    -0.085 HD
ENDROOT
BRANCH   1   4
ATOM      4  C   UNL     1      -1.927  -0.248  -1.487  0.00  0.00    -0.060 C 
BRANCH   4   5
ATOM      5  C   UNL     1      -1.315  -0.641  -0.141  0.00  0.00    +0.006 C 
ATOM      6  C   UNL     1      -2.163  -0.064   0.994  0.00  0.00    +0.020 C 
ATOM      7  C   UNL     1      -3.587  -0.619   0.899  0.00  0.00    +0.002 C 
ATOM      8  C   UNL     1      -3.549  -2.144   1.015  0.00  0.00    +0.000 C 
ATOM      9  C   UNL     1      -2.700  -2.721  -0.120  0.00  0.00    +0.002 C 
ATOM     10  C   UNL     1      -1.277  -2.167  -0.025  0.00  0.00    +0.020 C 
BRANCH   5  12
ATOM     11  C   UNL     1       0.656  -0.431   1.250  0.00  0.00    +0.105 C 
ATOM     12  N   UNL     1       0.051  -0.110  -0.050  0.00  0.00    -0.304 NA
ATOM     13  C   UNL     1       0.884  -0.604  -1.155  0.00  0.00    +0.105 C 
ENDBRANCH   5  12
ENDBRANCH   4   5
ENDBRANCH   1   4
BRANCH   1  14
ATOM     14  C   UNL     1      -2.340   1.579  -2.986  0.00  0.00    -0.047 C 
BRANCH  14  15
ATOM     15  C   UNL     1      -2.273   3.076  -3.149  0.00  0.00    -0.063 A 
ATOM     16  C   UNL     1      -3.356   3.858  -2.793  0.00  0.00    +0.005 A 
ATOM     17  C   UNL     1      -3.298   5.231  -2.943  0.00  0.00    +0.047 A 
ATOM     18  C   UNL     1      -2.151   5.824  -3.450  0.00  0.00    +0.131 A 
ATOM     19  C   UNL     1      -1.065   5.037  -3.805  0.00  0.00    +0.059 A 
ATOM     20  C   UNL     1      -1.126   3.665  -3.649  0.00  0.00    +0.020 A 
ATOM     21 BR   UNL     1       0.501   5.841  -4.497  0.00  0.00    -0.047 Br
BRANCH  18  22
ATOM     22  O   UNL     1      -2.091   7.174  -3.598  0.00  0.00    -0.506 OA
ATOM     23  H   UNL     1      -1.752   7.640  -2.821  0.00  0.00    +0.292 HD
ENDBRANCH  18  22
ENDBRANCH  14  15
ENDBRANCH   1  14
TORSDOF 6
