REMARK  Name = ZINC65388162
REMARK  9 active torsions:
REMARK  status: ('A' for Active; 'I' for Inactive)
REMARK    1  A    between atoms: C_1  and  C_2
REMARK    2  A    between atoms: C_4  and  C_28
REMARK    3  A    between atoms: C_5  and  N_9
REMARK    4  A    between atoms: C_6  and  C_8
REMARK    5  A    between atoms: C_10  and  C_12
REMARK    6  A    between atoms: C_12  and  C_13
REMARK    7  A    between atoms: C_13  and  N_14
REMARK    8  A    between atoms: C_18  and  C_20
REMARK    9  A    between atoms: C_23  and  C_25
REMARK                            x       y       z     vdW  Elec       q    Type
REMARK                         _______ _______ _______ _____ _____    ______ ____
ROOT
ATOM      1  N   UNL     1      -0.685  -8.465   2.023  0.00  0.00    +0.385 N 
ATOM      2  C   UNL     1      -2.079  -8.699   1.602  0.00  0.00    -0.078 C 
ATOM      3  C   UNL     1      -2.755  -9.538   2.707  0.00  0.00    -0.020 C 
ATOM      4  C   UNL     1      -1.554 -10.212   3.419  0.00  0.00    -0.012 C 
ATOM      5  C   UNL     1      -0.480  -9.098   3.343  0.00  0.00    -0.031 C 
ATOM      6  H   UNL     1      -0.055  -8.873   1.349  0.00  0.00    -0.081 HD
ENDROOT
BRANCH   5   7
ATOM      7  C   UNL     1       0.902  -9.694   3.430  0.00  0.00    -0.023 A 
ATOM      8  C   UNL     1       1.747  -9.688   4.490  0.00  0.00    +0.010 A 
ATOM      9  C   UNL     1       2.975 -10.292   4.369  0.00  0.00    +0.021 A 
ATOM     10  C   UNL     1       3.244 -10.868   3.137  0.00  0.00    +0.074 A 
ATOM     11  S   UNL     1       1.744 -10.525   2.237  0.00  0.00    -0.090 S 
BRANCH  10  12
ATOM     12  C   UNL     1       4.446 -11.579   2.692  0.00  0.00    +0.248 C 
ATOM     13  O   UNL     1       4.507 -12.023   1.560  0.00  0.00    -0.270 OA
ATOM     14  N   UNL     1       5.484 -11.742   3.536  0.00  0.00    -0.325 N 
ATOM     15  H   UNL     1       5.436 -11.388   4.438  0.00  0.00    +0.145 HD
ATOM     16  H   UNL     1       6.280 -12.212   3.242  0.00  0.00    +0.145 HD
ENDBRANCH  10  12
ENDBRANCH   5   7
BRANCH   1  17
ATOM     17  C   UNL     1      -0.435  -7.021   2.123  0.00  0.00    -0.069 C 
BRANCH  17  18
ATOM     18  C   UNL     1      -0.526  -6.390   0.733  0.00  0.00    +0.077 C 
BRANCH  18  20
ATOM     19  N   UNL     1      -0.299  -4.141  -0.272  0.00  0.00    -0.285 N 
ATOM     20  C   UNL     1      -0.270  -4.908   0.836  0.00  0.00    +0.215 C 
ATOM     21  O   UNL     1      -0.036  -4.407   1.915  0.00  0.00    -0.276 OA
ATOM     22  H   UNL     1      -0.420  -4.551  -1.143  0.00  0.00    +0.155 HD
BRANCH  19  27
ATOM     23  C   UNL     1       0.286   1.486   0.158  0.00  0.00    +0.044 C 
ATOM     24  C   UNL     1       0.130  -0.009   0.044  0.00  0.00    -0.050 A 
ATOM     25  C   UNL     1       1.121  -0.844   0.526  0.00  0.00    +0.008 A 
ATOM     26  C   UNL     1       0.981  -2.215   0.423  0.00  0.00    -0.029 A 
ATOM     27  C   UNL     1      -0.155  -2.753  -0.166  0.00  0.00    +0.039 A 
ATOM     28  C   UNL     1      -1.148  -1.911  -0.649  0.00  0.00    -0.029 A 
ATOM     29  C   UNL     1      -1.005  -0.542  -0.539  0.00  0.00    +0.008 A 
ATOM     30  C   UNL     1      -2.383  -2.491  -1.289  0.00  0.00    +0.045 C 
ATOM     31  C   UNL     1       2.062  -3.124   0.949  0.00  0.00    +0.045 C 
ENDBRANCH  19  27
ENDBRANCH  18  20
ENDBRANCH  17  18
ENDBRANCH   1  17
TORSDOF 6
