REMARK  Name = ZINC36094581
REMARK  8 active torsions:
REMARK  status: ('A' for Active; 'I' for Inactive)
REMARK    1  A    between atoms: C_1  and  C_2
REMARK    2  A    between atoms: C_5  and  O_8
REMARK    3  A    between atoms: O_8  and  C_9
REMARK    4  A    between atoms: N_12  and  C_32
REMARK    5  A    between atoms: C_15  and  N_16
REMARK    6  A    between atoms: N_16  and  C_17
REMARK    7  A    between atoms: C_21  and  C_23
REMARK    8  A    between atoms: N_28  and  C_31
REMARK                            x       y       z     vdW  Elec       q    Type
REMARK                         _______ _______ _______ _____ _____    ______ ____
ROOT
ATOM      1  C   UNL     1       0.245  -5.060   1.058  0.00  0.00    +0.174 A 
ATOM      2  C   UNL     1      -0.097  -6.396   1.331  0.00  0.00    +0.181 A 
ATOM      3  N   UNL     1      -0.477  -6.752   2.528  0.00  0.00    -0.168 NA
ATOM      4  N   UNL     1      -0.555  -5.821   3.569  0.00  0.00    -0.195 N 
ATOM      5  C   UNL     1      -0.237  -4.528   3.356  0.00  0.00    +0.297 A 
ATOM      6  O   UNL     1      -0.307  -3.719   4.268  0.00  0.00    -0.264 OA
ATOM      7  C   UNL     1       0.181  -4.120   2.073  0.00  0.00    +0.143 A 
ENDROOT
BRANCH   4   8
ATOM      8  C   UNL     1      -0.966  -6.234   4.841  0.00  0.00    +0.069 A 
ATOM      9  C   UNL     1      -1.967  -5.541   5.508  0.00  0.00    +0.031 A 
ATOM     10  C   UNL     1      -2.371  -5.950   6.764  0.00  0.00    +0.040 A 
ATOM     11  C   UNL     1      -1.778  -7.052   7.358  0.00  0.00    +0.124 A 
ATOM     12  C   UNL     1      -0.779  -7.745   6.695  0.00  0.00    +0.040 A 
ATOM     13  C   UNL     1      -0.377  -7.343   5.437  0.00  0.00    +0.031 A 
ATOM     14  F   UNL     1      -2.174  -7.450   8.587  0.00  0.00    -0.205 F 
ENDBRANCH   4   8
BRANCH   7  15
ATOM     15  N   UNL     1       0.521  -2.785   1.828  0.00  0.00    -0.307 N 
ATOM     16  H   UNL     1       0.035  -2.275   1.161  0.00  0.00    +0.152 HD
BRANCH  15  17
ATOM     17  C   UNL     1       1.560  -2.186   2.544  0.00  0.00    +0.032 A 
ATOM     18  C   UNL     1       2.352  -2.952   3.392  0.00  0.00    +0.023 A 
ATOM     19  C   UNL     1       3.381  -2.364   4.102  0.00  0.00    +0.003 A 
ATOM     20  C   UNL     1       3.630  -1.012   3.975  0.00  0.00    +0.013 A 
ATOM     21  C   UNL     1       2.841  -0.234   3.126  0.00  0.00    +0.039 A 
ATOM     22  C   UNL     1       1.806  -0.828   2.404  0.00  0.00    +0.036 A 
BRANCH  21  23
ATOM     23  C   UNL     1       3.106   1.214   2.988  0.00  0.00    +0.247 C 
ATOM     24  O   UNL     1       4.250   1.623   2.963  0.00  0.00    -0.270 OA
ATOM     25  N   UNL     1       2.078   2.080   2.889  0.00  0.00    -0.301 N 
ATOM     26  C   UNL     1       0.687   1.624   3.035  0.00  0.00    +0.089 C 
ATOM     27  C   UNL     1      -0.017   2.529   4.052  0.00  0.00    -0.060 C 
ATOM     28  N   UNL     1       0.121   3.930   3.636  0.00  0.00    +0.380 N 
ATOM     29  C   UNL     1       1.535   4.325   3.668  0.00  0.00    -0.060 C 
ATOM     30  C   UNL     1       2.316   3.510   2.638  0.00  0.00    +0.089 C 
ATOM     31  C   UNL     1      -0.646   4.787   4.550  0.00  0.00    -0.096 C 
ATOM     32  H   UNL     1      -0.236   4.038   2.699  0.00  0.00    -0.082 HD
ENDBRANCH  21  23
ENDBRANCH  15  17
ENDBRANCH   7  15
BRANCH   1  33
ATOM     33  O   UNL     1       0.639  -4.696  -0.188  0.00  0.00    -0.452 OA
BRANCH  33  38
ATOM     34  C   UNL     1      -3.166  -4.916  -4.336  0.00  0.00    +0.044 C 
ATOM     35  C   UNL     1      -2.147  -4.857  -3.226  0.00  0.00    -0.050 A 
ATOM     36  C   UNL     1      -0.855  -4.448  -3.497  0.00  0.00    +0.007 A 
ATOM     37  C   UNL     1       0.081  -4.393  -2.481  0.00  0.00    +0.046 A 
ATOM     38  C   UNL     1      -0.279  -4.749  -1.189  0.00  0.00    +0.129 A 
ATOM     39  C   UNL     1      -1.577  -5.159  -0.920  0.00  0.00    +0.046 A 
ATOM     40  C   UNL     1      -2.510  -5.206  -1.938  0.00  0.00    +0.007 A 
ENDBRANCH  33  38
ENDBRANCH   1  33
TORSDOF 6
