REMARK  Name = ZINC37940994
REMARK  13 active torsions:
REMARK  status: ('A' for Active; 'I' for Inactive)
REMARK    1  A    between atoms: C_1  and  C_2
REMARK    2  A    between atoms: C_2  and  N_3
REMARK    3  A    between atoms: N_3  and  C_4
REMARK    4  A    between atoms: N_3  and  C_6
REMARK    5  A    between atoms: C_4  and  C_5
REMARK    6  A    between atoms: C_6  and  C_7
REMARK    7  A    between atoms: C_7  and  N_8
REMARK    8  A    between atoms: N_8  and  C_9
REMARK    9  A    between atoms: C_9  and  C_11
REMARK   10  A    between atoms: C_9  and  C_13
REMARK   11  A    between atoms: C_15  and  O_21
REMARK   12  A    between atoms: C_16  and  O_20
REMARK   13  A    between atoms: O_21  and  C_22
REMARK                            x       y       z     vdW  Elec       q    Type
REMARK                         _______ _______ _______ _____ _____    ______ ____
ROOT
ATOM      1  C   UNL     1      -2.818  -3.878  -1.939  0.00  0.00    +0.188 C 
ENDROOT
BRANCH   1   2
ATOM      2  C   UNL     1      -3.013  -5.136  -2.746  0.00  0.00    -0.012 A 
ATOM      3  C   UNL     1      -4.045  -5.214  -3.663  0.00  0.00    +0.055 A 
ATOM      4  C   UNL     1      -4.227  -6.369  -4.405  0.00  0.00    +0.163 A 
ATOM      5  C   UNL     1      -3.368  -7.450  -4.227  0.00  0.00    +0.173 A 
ATOM      6  C   UNL     1      -2.335  -7.365  -3.307  0.00  0.00    +0.063 A 
ATOM      7  C   UNL     1      -2.156  -6.207  -2.572  0.00  0.00    +0.025 A 
ATOM      8 BR   UNL     1      -1.165  -8.831  -3.061  0.00  0.00    -0.046 Br
BRANCH   5   9
ATOM      9  O   UNL     1      -3.542  -8.586  -4.954  0.00  0.00    -0.503 OA
ATOM     10  H   UNL     1      -3.060  -8.595  -5.792  0.00  0.00    +0.292 HD
ENDBRANCH   5   9
BRANCH   4  11
ATOM     11  O   UNL     1      -5.242  -6.448  -5.307  0.00  0.00    -0.491 OA
ATOM     12  C   UNL     1      -6.084  -5.301  -5.436  0.00  0.00    +0.277 C 
ENDBRANCH   4  11
ENDBRANCH   1   2
BRANCH   1  13
ATOM     13  N   UNL     1      -1.383  -3.584  -1.831  0.00  0.00    -0.300 NA
ATOM     14  H   UNL     1      -0.885  -3.905  -2.648  0.00  0.00    +0.123 HD
BRANCH  13  15
ATOM     15  C   UNL     1      -1.155  -2.151  -1.603  0.00  0.00    +0.064 C 
BRANCH  15  16
ATOM     16  C   UNL     1       0.348  -1.884  -1.496  0.00  0.00    -0.064 C 
BRANCH  16  17
ATOM     17  N   UNL     1       0.576  -0.451  -1.269  0.00  0.00    +0.380 N 
ATOM     18  H   UNL     1       0.124   0.081  -1.998  0.00  0.00    -0.082 HD
BRANCH  17  20
ATOM     19  C   UNL     1       0.128   1.449   0.210  0.00  0.00    -0.017 C 
ATOM     20  C   UNL     1       0.019  -0.067   0.035  0.00  0.00    -0.082 C 
ENDBRANCH  17  20
BRANCH  17  21
ATOM     21  C   UNL     1       2.019  -0.176  -1.285  0.00  0.00    -0.082 C 
ATOM     22  C   UNL     1       2.573  -0.440  -2.687  0.00  0.00    -0.017 C 
ENDBRANCH  17  21
ENDBRANCH  16  17
ENDBRANCH  15  16
ENDBRANCH  13  15
ENDBRANCH   1  13
BRANCH   1  23
ATOM     23  C   UNL     1      -3.383  -4.066  -0.593  0.00  0.00    +0.086 C 
ATOM     24  N   UNL     1      -3.820  -4.211   0.445  0.00  0.00    -0.195 NA
ENDBRANCH   1  23
TORSDOF 10
