REMARK  Name = ZINC39693377
REMARK  14 active torsions:
REMARK  status: ('A' for Active; 'I' for Inactive)
REMARK    1  A    between atoms: C_1  and  C_2
REMARK    2  A    between atoms: C_2  and  C_3
REMARK    3  A    between atoms: C_2  and  C_4
REMARK    4  A    between atoms: C_2  and  O_5
REMARK    5  A    between atoms: O_5  and  C_6
REMARK    6  A    between atoms: N_8  and  C_9
REMARK    7  A    between atoms: C_9  and  C_10
REMARK    8  A    between atoms: C_10  and  N_11
REMARK    9  A    between atoms: C_12  and  C_14
REMARK   10  A    between atoms: C_25  and  C_27
REMARK   11  A    between atoms: C_29  and  O_35
REMARK   12  A    between atoms: C_31  and  O_33
REMARK   13  A    between atoms: O_33  and  C_34
REMARK   14  A    between atoms: O_35  and  C_36
REMARK                            x       y       z     vdW  Elec       q    Type
REMARK                         _______ _______ _______ _____ _____    ______ ____
ROOT
ATOM      1  C   UNL     1       8.687   0.107  -5.216  0.00  0.00    +0.100 C 
ATOM      2  C   UNL     1       9.270  -0.583  -3.962  0.00  0.00    +0.121 C 
ATOM      3  N   UNL     1       9.786  -1.881  -4.455  0.00  0.00    -0.296 N 
ATOM      4  C   UNL     1      10.390  -1.562  -5.770  0.00  0.00    +0.115 C 
ATOM      5  C   UNL     1       9.428  -0.536  -6.400  0.00  0.00    -0.004 C 
ATOM      6  C   UNL     1      10.214   0.522  -7.169  0.00  0.00    -0.010 C 
ATOM      7  C   UNL     1      10.894  -0.131  -8.376  0.00  0.00    -0.082 C 
ATOM      8  N   UNL     1       9.879  -0.741  -9.242  0.00  0.00    +0.379 N 
ATOM      9  C   UNL     1       9.191  -1.821  -8.524  0.00  0.00    -0.082 C 
ATOM     10  C   UNL     1       8.438  -1.239  -7.324  0.00  0.00    -0.010 C 
ATOM     11  C   UNL     1       9.721  -3.081  -3.844  0.00  0.00    +0.247 C 
ATOM     12  O   UNL     1       9.079  -3.208  -2.820  0.00  0.00    -0.270 OA
ATOM     13  H   UNL     1       9.207  -0.040  -9.516  0.00  0.00    -0.086 HD
ATOM     14  H   UNL     1      10.323  -1.117 -10.066  0.00  0.00    -0.086 HD
ENDROOT
BRANCH  11  15
ATOM     15  C   UNL     1      10.430  -4.244  -4.422  0.00  0.00    +0.044 A 
ATOM     16  C   UNL     1      11.490  -4.047  -5.307  0.00  0.00    +0.059 A 
ATOM     17  C   UNL     1      12.152  -5.139  -5.845  0.00  0.00    +0.124 A 
ATOM     18  C   UNL     1      11.761  -6.426  -5.505  0.00  0.00    +0.091 A 
ATOM     19  C   UNL     1      10.707  -6.625  -4.625  0.00  0.00    +0.124 A 
ATOM     20  C   UNL     1      10.044  -5.539  -4.078  0.00  0.00    +0.059 A 
BRANCH  19  21
ATOM     21  O   UNL     1      10.328  -7.888  -4.296  0.00  0.00    -0.495 OA
ATOM     22  C   UNL     1      11.059  -8.961  -4.892  0.00  0.00    +0.277 C 
ENDBRANCH  19  21
BRANCH  17  23
ATOM     23  O   UNL     1      13.185  -4.949  -6.707  0.00  0.00    -0.495 OA
ATOM     24  C   UNL     1      13.822  -6.118  -7.224  0.00  0.00    +0.277 C 
ENDBRANCH  17  23
ENDBRANCH  11  15
BRANCH   1  26
ATOM     25  N   UNL     1       6.419   0.693  -6.011  0.00  0.00    -0.314 N 
ATOM     26  C   UNL     1       7.207  -0.154  -5.319  0.00  0.00    +0.218 C 
ATOM     27  O   UNL     1       6.724  -1.126  -4.778  0.00  0.00    -0.275 OA
ATOM     28  H   UNL     1       6.806   1.471  -6.443  0.00  0.00    +0.149 HD
BRANCH  25  29
ATOM     29  C   UNL     1       4.980   0.439  -6.111  0.00  0.00    +0.123 C 
BRANCH  29  30
ATOM     30  C   UNL     1       4.324   1.541  -6.945  0.00  0.00    +0.126 C 
BRANCH  30  33
ATOM     31  C   UNL     1       2.098   2.134  -7.737  0.00  0.00    +0.401 C 
ATOM     32  O   UNL     1       2.582   3.108  -8.278  0.00  0.00    -0.226 OA
ATOM     33  N   UNL     1       2.885   1.287  -7.045  0.00  0.00    -0.280 N 
ATOM     34  H   UNL     1       2.499   0.510  -6.613  0.00  0.00    +0.152 HD
BRANCH  31  35
ATOM     35  O   UNL     1       0.775   1.901  -7.829  0.00  0.00    -0.445 OA
BRANCH  35  37
ATOM     36  C   UNL     1       0.511   2.886 -10.020  0.00  0.00    +0.055 C 
ATOM     37  C   UNL     1       0.001   2.840  -8.579  0.00  0.00    +0.107 C 
ATOM     38  C   UNL     1       0.131   4.227  -7.947  0.00  0.00    +0.055 C 
ATOM     39  C   UNL     1      -1.468   2.411  -8.571  0.00  0.00    +0.055 C 
ENDBRANCH  35  37
ENDBRANCH  31  35
ENDBRANCH  30  33
ENDBRANCH  29  30
ENDBRANCH  25  29
ENDBRANCH   1  26
TORSDOF 9
