REMARK  Name = ZINC58863632
REMARK  9 active torsions:
REMARK  status: ('A' for Active; 'I' for Inactive)
REMARK    1  A    between atoms: C_1  and  C_2
REMARK    2  A    between atoms: C_2  and  N_3
REMARK    3  A    between atoms: N_3  and  C_4
REMARK    4  A    between atoms: N_3  and  C_6
REMARK    5  A    between atoms: C_4  and  C_5
REMARK    6  A    between atoms: C_6  and  C_8
REMARK    7  A    between atoms: C_6  and  C_21
REMARK    8  A    between atoms: C_8  and  N_9
REMARK    9  A    between atoms: N_12  and  C_13
REMARK                            x       y       z     vdW  Elec       q    Type
REMARK                         _______ _______ _______ _____ _____    ______ ____
ROOT
ATOM      1  N   UNL     1       1.526  -1.656  -1.405  0.00  0.00    -0.300 N 
ATOM      2  C   UNL     1       2.349  -1.886  -2.447  0.00  0.00    +0.304 C 
ATOM      3  O   UNL     1       3.312  -2.616  -2.312  0.00  0.00    -0.253 OA
ATOM      4  N   UNL     1       2.104  -1.307  -3.640  0.00  0.00    -0.267 N 
ATOM      5  H   UNL     1       0.757  -1.074  -1.513  0.00  0.00    +0.150 HD
ATOM      6  H   UNL     1       1.384  -0.664  -3.728  0.00  0.00    +0.156 HD
ENDROOT
BRANCH   4   7
ATOM      7  C   UNL     1       2.891  -1.635  -4.752  0.00  0.00    +0.072 A 
ATOM      8  C   UNL     1       3.461  -2.896  -4.853  0.00  0.00    +0.026 A 
ATOM      9  C   UNL     1       4.237  -3.217  -5.950  0.00  0.00    +0.003 A 
ATOM     10  C   UNL     1       4.447  -2.284  -6.949  0.00  0.00    +0.023 A 
ATOM     11  C   UNL     1       3.881  -1.024  -6.852  0.00  0.00    +0.078 A 
ATOM     12  C   UNL     1       3.098  -0.699  -5.758  0.00  0.00    +0.163 A 
ATOM     13  F   UNL     1       2.540   0.528  -5.667  0.00  0.00    -0.202 F 
ATOM     14 CL   UNL     1       4.148   0.145  -8.107  0.00  0.00    -0.081 Cl
ENDBRANCH   4   7
BRANCH   1  15
ATOM     15  C   UNL     1       1.792  -2.285  -0.109  0.00  0.00    +0.095 C 
BRANCH  15  16
ATOM     16  C   UNL     1       0.837  -1.713   0.941  0.00  0.00    -0.020 C 
BRANCH  16  17
ATOM     17  C   UNL     1       0.650  -2.716   2.049  0.00  0.00    -0.052 A 
ATOM     18  C   UNL     1      -0.513  -3.459   2.134  0.00  0.00    +0.009 A 
ATOM     19  C   UNL     1      -0.650  -4.353   3.144  0.00  0.00    +0.045 A 
ATOM     20  S   UNL     1       0.895  -4.163   4.018  0.00  0.00    -0.105 S 
ATOM     21  C   UNL     1       1.621  -2.908   2.975  0.00  0.00    +0.047 A 
ENDBRANCH  16  17
BRANCH  16  22
ATOM     22  N   UNL     1       1.402  -0.474   1.492  0.00  0.00    +0.385 N 
ATOM     23  H   UNL     1       2.233  -0.690   2.023  0.00  0.00    -0.081 HD
BRANCH  22  25
ATOM     24  C   UNL     1       2.366   1.715   0.966  0.00  0.00    -0.017 C 
ATOM     25  C   UNL     1       1.746   0.438   0.394  0.00  0.00    -0.081 C 
ENDBRANCH  22  25
BRANCH  22  26
ATOM     26  C   UNL     1       0.413   0.167   2.369  0.00  0.00    -0.081 C 
ATOM     27  C   UNL     1       0.230  -0.676   3.633  0.00  0.00    -0.017 C 
ENDBRANCH  22  26
ENDBRANCH  16  22
ENDBRANCH  15  16
ENDBRANCH   1  15
TORSDOF 7
