REMARK  Name = ZINC04155895
REMARK  10 active torsions:
REMARK  status: ('A' for Active; 'I' for Inactive)
REMARK    1  A    between atoms: C_1  and  C_2
REMARK    2  A    between atoms: C_2  and  C_19
REMARK    3  A    between atoms: N_3  and  N_4
REMARK    4  A    between atoms: C_5  and  C_7
REMARK    5  A    between atoms: C_7  and  C_8
REMARK    6  A    between atoms: C_8  and  C_9
REMARK    7  A    between atoms: C_9  and  O_10
REMARK    8  A    between atoms: O_10  and  C_11
REMARK    9  A    between atoms: C_23  and  N_25
REMARK   10  A    between atoms: C_26  and  C_28
REMARK                            x       y       z     vdW  Elec       q    Type
REMARK                         _______ _______ _______ _____ _____    ______ ____
ROOT
ATOM      1  C   UNL     1       7.758  -5.962   0.856  0.00  0.00    +0.068 C 
ATOM      2  C   UNL     1       6.412  -5.723   0.223  0.00  0.00    +0.063 C 
ATOM      3  N   UNL     1       6.105  -4.545  -0.225  0.00  0.00    -0.185 NA
ENDROOT
BRANCH   2   4
ATOM      4  C   UNL     1       5.442  -6.829   0.114  0.00  0.00    -0.001 A 
ATOM      5  C   UNL     1       5.342  -7.778   1.134  0.00  0.00    +0.010 A 
ATOM      6  C   UNL     1       4.431  -8.809   1.031  0.00  0.00    +0.002 A 
ATOM      7  C   UNL     1       3.621  -8.913  -0.085  0.00  0.00    +0.023 A 
ATOM      8  C   UNL     1       3.716  -7.977  -1.109  0.00  0.00    +0.034 A 
ATOM      9  C   UNL     1       4.625  -6.934  -1.013  0.00  0.00    +0.033 A 
BRANCH   8  10
ATOM     10  N   UNL     1       2.895  -8.088  -2.235  0.00  0.00    -0.281 N 
ATOM     11  C   UNL     1       3.381  -7.788  -3.456  0.00  0.00    +0.248 C 
ATOM     12  O   UNL     1       4.557  -7.508  -3.590  0.00  0.00    -0.270 OA
ATOM     13  H   UNL     1       1.975  -8.380  -2.138  0.00  0.00    +0.155 HD
BRANCH  11  14
ATOM     14  C   UNL     1       2.486  -7.799  -4.631  0.00  0.00    +0.037 A 
ATOM     15  C   UNL     1       1.137  -8.125  -4.481  0.00  0.00    +0.014 A 
ATOM     16  C   UNL     1       0.305  -8.128  -5.581  0.00  0.00    +0.021 A 
ATOM     17  C   UNL     1       0.808  -7.820  -6.835  0.00  0.00    +0.041 A 
ATOM     18  C   UNL     1       2.147  -7.501  -6.990  0.00  0.00    +0.021 A 
ATOM     19  C   UNL     1       2.987  -7.489  -5.897  0.00  0.00    +0.014 A 
ATOM     20 CL   UNL     1      -0.244  -7.832  -8.215  0.00  0.00    -0.084 Cl
ENDBRANCH  11  14
ENDBRANCH   8  10
ENDBRANCH   2   4
BRANCH   3  21
ATOM     21  N   UNL     1       4.808  -4.287  -0.687  0.00  0.00    -0.207 N 
ATOM     22  C   UNL     1       4.519  -3.099  -1.254  0.00  0.00    +0.232 C 
ATOM     23  O   UNL     1       5.382  -2.253  -1.365  0.00  0.00    -0.274 OA
ATOM     24  H   UNL     1       4.118  -4.963  -0.598  0.00  0.00    +0.177 HD
BRANCH  22  25
ATOM     25  C   UNL     1       3.124  -2.821  -1.752  0.00  0.00    +0.101 C 
BRANCH  25  26
ATOM     26  C   UNL     1       3.065  -1.413  -2.347  0.00  0.00    +0.050 C 
BRANCH  26  27
ATOM     27  C   UNL     1       1.649  -1.131  -2.852  0.00  0.00    +0.229 C 
BRANCH  27  28
ATOM     28  O   UNL     1       1.594   0.185  -3.407  0.00  0.00    -0.490 OA
BRANCH  28  29
ATOM     29  C   UNL     1       0.397   0.595  -3.905  0.00  0.00    +0.139 A 
ATOM     30  C   UNL     1      -0.701  -0.250  -3.858  0.00  0.00    +0.048 A 
ATOM     31  C   UNL     1      -1.915   0.166  -4.370  0.00  0.00    +0.023 A 
ATOM     32  C   UNL     1      -2.039   1.431  -4.918  0.00  0.00    +0.043 A 
ATOM     33  C   UNL     1      -0.945   2.277  -4.965  0.00  0.00    +0.043 A 
ATOM     34  C   UNL     1       0.273   1.862  -4.460  0.00  0.00    +0.084 A 
ATOM     35 CL   UNL     1       1.646   2.922  -4.519  0.00  0.00    -0.080 Cl
ATOM     36 CL   UNL     1      -3.567   1.954  -5.553  0.00  0.00    -0.083 Cl
ENDBRANCH  28  29
ENDBRANCH  27  28
ENDBRANCH  26  27
ENDBRANCH  25  26
ENDBRANCH  22  25
ENDBRANCH   3  21
TORSDOF 9
