REMARK  Name = ZINC52908769
REMARK  11 active torsions:
REMARK  status: ('A' for Active; 'I' for Inactive)
REMARK    1  A    between atoms: C_1  and  C_2
REMARK    2  A    between atoms: C_2  and  N_3
REMARK    3  A    between atoms: N_3  and  C_4
REMARK    4  A    between atoms: N_3  and  C_21
REMARK    5  A    between atoms: C_4  and  C_5
REMARK    6  A    between atoms: C_5  and  C_7
REMARK    7  A    between atoms: C_8  and  N_20
REMARK    8  A    between atoms: N_9  and  C_16
REMARK    9  A    between atoms: C_16  and  C_17
REMARK   10  A    between atoms: C_17  and  O_18
REMARK   11  A    between atoms: O_18  and  C_19
REMARK                            x       y       z     vdW  Elec       q    Type
REMARK                         _______ _______ _______ _____ _____    ______ ____
ROOT
ATOM      1  C   UNL     1      -1.190  -3.443   1.448  0.00  0.00    +0.118 A 
ATOM      2  C   UNL     1      -0.755  -4.077   2.625  0.00  0.00    +0.116 A 
ATOM      3  N   UNL     1      -0.896  -5.431   2.736  0.00  0.00    -0.279 N 
ATOM      4  C   UNL     1      -1.439  -6.159   1.749  0.00  0.00    +0.331 A 
ATOM      5  O   UNL     1      -1.543  -7.361   1.897  0.00  0.00    -0.246 OA
ATOM      6  N   UNL     1      -1.873  -5.609   0.603  0.00  0.00    -0.274 N 
ATOM      7  H   UNL     1      -2.259  -6.175  -0.084  0.00  0.00    +0.173 HD
ATOM      8  C   UNL     1      -1.784  -4.279   0.397  0.00  0.00    +0.266 A 
ATOM      9  O   UNL     1      -2.182  -3.783  -0.641  0.00  0.00    -0.267 OA
ENDROOT
BRANCH   2  10
ATOM     10  N   UNL     1      -0.201  -3.354   3.635  0.00  0.00    -0.344 N 
ATOM     11  H   UNL     1      -0.175  -2.385   3.582  0.00  0.00    +0.144 HD
ATOM     12  H   UNL     1       0.168  -3.806   4.410  0.00  0.00    +0.144 HD
ENDBRANCH   2  10
BRANCH   1  13
ATOM     13  C   UNL     1      -1.066  -2.046   1.285  0.00  0.00    +0.155 C 
ATOM     14  O   UNL     1      -0.676  -1.359   2.207  0.00  0.00    -0.294 OA
BRANCH  13  15
ATOM     15  C   UNL     1      -1.417  -1.408  -0.035  0.00  0.00    +0.003 C 
BRANCH  15  16
ATOM     16  N   UNL     1      -1.204   0.043   0.051  0.00  0.00    +0.386 N 
ATOM     17  H   UNL     1      -1.728   0.414   0.830  0.00  0.00    -0.081 HD
BRANCH  16  18
ATOM     18  C   UNL     1      -1.659   0.679  -1.192  0.00  0.00    -0.068 C 
ATOM     19  C   UNL     1      -1.374   2.195  -1.145  0.00  0.00    -0.015 C 
ATOM     20  C   UNL     1      -2.594   2.832  -1.856  0.00  0.00    -0.002 C 
ATOM     21  C   UNL     1      -3.771   1.947  -1.375  0.00  0.00    -0.002 C 
ATOM     22  C   UNL     1      -3.182   0.522  -1.339  0.00  0.00    -0.015 C 
ENDBRANCH  16  18
BRANCH  16  24
ATOM     23  C   UNL     1       1.008  -0.145  -0.983  0.00  0.00    -0.017 C 
ATOM     24  C   UNL     1       0.226   0.318   0.248  0.00  0.00    -0.081 C 
ENDBRANCH  16  24
ENDBRANCH  15  16
ENDBRANCH  13  15
ENDBRANCH   1  13
BRANCH   3  25
ATOM     25  C   UNL     1      -0.446  -6.101   3.959  0.00  0.00    +0.156 C 
BRANCH  25  26
ATOM     26  C   UNL     1      -1.595  -6.149   4.967  0.00  0.00    +0.181 C 
BRANCH  26  27
ATOM     27  O   UNL     1      -2.646  -6.969   4.452  0.00  0.00    -0.381 OA
ATOM     28  C   UNL     1      -3.775  -7.082   5.322  0.00  0.00    +0.194 C 
ENDBRANCH  26  27
ENDBRANCH  25  26
ENDBRANCH   3  25
TORSDOF 9
