REMARK  Name = ZINC43216278
REMARK  14 active torsions:
REMARK  status: ('A' for Active; 'I' for Inactive)
REMARK    1  A    between atoms: C_1  and  C_2
REMARK    2  A    between atoms: C_2  and  C_3
REMARK    3  A    between atoms: C_2  and  C_4
REMARK    4  A    between atoms: C_4  and  C_6
REMARK    5  A    between atoms: C_4  and  N_37
REMARK    6  A    between atoms: C_8  and  C_11
REMARK    7  A    between atoms: N_13  and  C_14
REMARK    8  A    between atoms: C_14  and  C_16
REMARK    9  A    between atoms: C_14  and  C_25
REMARK   10  A    between atoms: C_16  and  S_17
REMARK   11  A    between atoms: S_17  and  C_18
REMARK   12  A    between atoms: C_18  and  C_19
REMARK   13  A    between atoms: N_27  and  C_28
REMARK   14  A    between atoms: C_31  and  N_34
REMARK                            x       y       z     vdW  Elec       q    Type
REMARK                         _______ _______ _______ _____ _____    ______ ____
ROOT
ATOM      1  C   UNL     1       7.247  -2.428  -0.262  0.00  0.00    +0.169 C 
ENDROOT
BRANCH   1   4
ATOM      2  C   UNL     1       5.681  -0.633  -0.778  0.00  0.00    +0.266 C 
ATOM      3  O   UNL     1       6.626   0.129  -0.856  0.00  0.00    -0.268 OA
ATOM      4  N   UNL     1       5.886  -1.933  -0.486  0.00  0.00    -0.298 N 
ATOM      5  H   UNL     1       5.132  -2.540  -0.424  0.00  0.00    +0.150 HD
BRANCH   2   8
ATOM      6  C   UNL     1       2.164  -0.081  -1.203  0.00  0.00    +0.182 A 
ATOM      7  N   UNL     1       3.167  -0.867  -0.950  0.00  0.00    -0.210 NA
ATOM      8  C   UNL     1       4.312  -0.135  -1.004  0.00  0.00    +0.163 A 
ATOM      9  C   UNL     1       3.957   1.144  -1.304  0.00  0.00    +0.230 A 
ATOM     10  O   UNL     1       2.620   1.159  -1.430  0.00  0.00    -0.449 OA
BRANCH   6  11
ATOM     11  C   UNL     1       0.716  -0.498  -1.243  0.00  0.00    +0.015 C 
BRANCH  11  12
ATOM     12  N   UNL     1       0.072   0.079  -2.430  0.00  0.00    +0.386 N 
ATOM     13  H   UNL     1       0.540  -0.251  -3.261  0.00  0.00    -0.089 HD
ATOM     14  H   UNL     1      -0.897  -0.201  -2.457  0.00  0.00    -0.089 HD
ATOM     15  H   UNL     1       0.131   1.085  -2.389  0.00  0.00    -0.089 HD
ENDBRANCH  11  12
BRANCH  11  17
ATOM     16  C   UNL     1      -0.014   1.532   0.017  0.00  0.00    +0.006 C 
ATOM     17  C   UNL     1       0.006   0.002   0.016  0.00  0.00    -0.023 C 
ATOM     18  C   UNL     1      -1.429  -0.527   0.037  0.00  0.00    +0.006 C 
ENDBRANCH  11  17
ENDBRANCH   6  11
ENDBRANCH   2   8
ENDBRANCH   1   4
BRANCH   1  19
ATOM     19  C   UNL     1       7.300  -3.904  -0.562  0.00  0.00    +0.238 C 
ATOM     20  O   UNL     1       6.300  -4.485  -0.927  0.00  0.00    -0.273 OA
ATOM     21  N   UNL     1       8.459  -4.578  -0.424  0.00  0.00    -0.284 N 
ATOM     22  H   UNL     1       9.273  -4.102  -0.198  0.00  0.00    +0.155 HD
BRANCH  21  23
ATOM     23  C   UNL     1       8.487  -5.965  -0.608  0.00  0.00    +0.034 A 
ATOM     24  C   UNL     1       9.329  -6.753   0.166  0.00  0.00    +0.025 A 
ATOM     25  C   UNL     1       9.355  -8.121  -0.018  0.00  0.00    +0.034 A 
ATOM     26  C   UNL     1       8.544  -8.707  -0.972  0.00  0.00    +0.126 A 
ATOM     27  C   UNL     1       7.705  -7.926  -1.746  0.00  0.00    +0.034 A 
ATOM     28  C   UNL     1       7.670  -6.557  -1.562  0.00  0.00    +0.025 A 
BRANCH  26  29
ATOM     29  N   UNL     1       8.574 -10.174  -1.167  0.00  0.00    +0.056 N 
ATOM     30  O   UNL     1       9.307 -10.859  -0.492  0.00  0.00    -0.126 OA
ATOM     31  O   UNL     1       7.865 -10.688  -2.001  0.00  0.00    -0.126 OA
ENDBRANCH  26  29
ENDBRANCH  21  23
ENDBRANCH   1  19
BRANCH   1  32
ATOM     32  C   UNL     1       7.642  -2.189   1.197  0.00  0.00    +0.101 C 
BRANCH  32  33
ATOM     33  S   UNL     1       7.578  -0.413   1.558  0.00  0.00    -0.154 S 
BRANCH  33  34
ATOM     34  C   UNL     1       8.068  -0.301   3.301  0.00  0.00    +0.104 C 
BRANCH  34  35
ATOM     35  C   UNL     1       8.056   1.142   3.734  0.00  0.00    -0.038 A 
ATOM     36  C   UNL     1       9.195   1.914   3.599  0.00  0.00    +0.004 A 
ATOM     37  C   UNL     1       9.185   3.237   3.997  0.00  0.00    +0.000 A 
ATOM     38  C   UNL     1       8.035   3.790   4.529  0.00  0.00    +0.000 A 
ATOM     39  C   UNL     1       6.896   3.019   4.664  0.00  0.00    +0.000 A 
ATOM     40  C   UNL     1       6.905   1.696   4.262  0.00  0.00    +0.004 A 
ENDBRANCH  34  35
ENDBRANCH  33  34
ENDBRANCH  32  33
ENDBRANCH   1  32
TORSDOF 12
