REMARK  Name = ZINC21788985
REMARK  4 active torsions:
REMARK  status: ('A' for Active; 'I' for Inactive)
REMARK    1  A    between atoms: C_2  and  N_19
REMARK    2  A    between atoms: C_5  and  N_8
REMARK    3  A    between atoms: C_9  and  C_11
REMARK    4  A    between atoms: C_11  and  N_12
REMARK                            x       y       z     vdW  Elec       q    Type
REMARK                         _______ _______ _______ _____ _____    ______ ____
ROOT
ATOM      1  N   UNL     1       3.625  -0.652  -0.036  0.00  0.00    -0.285 N 
ATOM      2  C   UNL     1       4.745  -0.022  -0.443  0.00  0.00    +0.201 C 
ATOM      3  O   UNL     1       4.712   1.161  -0.709  0.00  0.00    -0.278 OA
ATOM      4  H   UNL     1       3.672  -1.704   0.283  0.00  0.00    +0.155 HD
ENDROOT
BRANCH   1   9
ATOM      5  C   UNL     1       0.387   0.710  -1.136  0.00  0.00    +0.044 A 
ATOM      6  C   UNL     1      -0.017   1.384   0.009  0.00  0.00    +0.027 A 
ATOM      7  C   UNL     1       0.791   1.381   1.138  0.00  0.00    +0.044 A 
ATOM      8  C   UNL     1       1.997   0.707   1.124  0.00  0.00    +0.065 A 
ATOM      9  C   UNL     1       2.401   0.032  -0.021  0.00  0.00    +0.070 A 
ATOM     10  C   UNL     1       1.593   0.035  -1.151  0.00  0.00    +0.065 A 
ATOM     11 CL   UNL     1       2.099  -0.807  -2.583  0.00  0.00    -0.082 Cl
ATOM     12 CL   UNL     1       3.006   0.702   2.536  0.00  0.00    -0.082 Cl
BRANCH   6  13
ATOM     13  N   UNL     1      -1.235   2.071   0.022  0.00  0.00    -0.358 N 
ATOM     14  H   UNL     1      -1.556   2.606   0.928  0.00  0.00    +0.142 HD
ATOM     15  H   UNL     1      -1.873   2.078  -0.875  0.00  0.00    +0.142 HD
ENDBRANCH   6  13
ENDBRANCH   1   9
BRANCH   2  16
ATOM     16  C   UNL     1       6.038  -0.787  -0.567  0.00  0.00    +0.019 C 
BRANCH  16  17
ATOM     17  N   UNL     1       7.100   0.119  -1.024  0.00  0.00    +0.386 N 
ATOM     18  C   UNL     1       6.815   0.627  -2.368  0.00  0.00    -0.067 C 
ATOM     19  C   UNL     1       7.652   1.883  -2.637  0.00  0.00    +0.050 C 
ATOM     20  S   UNL     1       9.412   1.428  -2.547  0.00  0.00    -0.164 S 
ATOM     21  C   UNL     1       9.516   0.540  -0.962  0.00  0.00    +0.050 C 
ATOM     22  C   UNL     1       8.413  -0.524  -0.931  0.00  0.00    -0.067 C 
ATOM     23  H   UNL     1       7.130   0.993  -0.357  0.00  0.00    -0.081 HD
ENDBRANCH  16  17
ENDBRANCH   2  16
TORSDOF 4
