REMARK  Name = ZINC40322141
REMARK  11 active torsions:
REMARK  status: ('A' for Active; 'I' for Inactive)
REMARK    1  A    between atoms: C_1  and  O_2
REMARK    2  A    between atoms: O_2  and  C_3
REMARK    3  A    between atoms: C_6  and  C_11
REMARK    4  A    between atoms: C_8  and  O_9
REMARK    5  A    between atoms: O_9  and  C_10
REMARK    6  A    between atoms: C_11  and  C_13
REMARK    7  A    between atoms: C_11  and  N_32
REMARK    8  A    between atoms: C_13  and  N_14
REMARK    9  A    between atoms: C_15  and  C_17
REMARK   10  A    between atoms: C_20  and  S_22
REMARK   11  A    between atoms: S_22  and  C_25
REMARK                            x       y       z     vdW  Elec       q    Type
REMARK                         _______ _______ _______ _____ _____    ______ ____
ROOT
ATOM      1  N   UNL     1       4.310  -3.385  -2.976  0.00  0.00    -0.310 N 
ATOM      2  C   UNL     1       5.581  -3.548  -2.558  0.00  0.00    +0.279 C 
ATOM      3  O   UNL     1       6.499  -3.079  -3.205  0.00  0.00    -0.267 OA
ATOM      4  H   UNL     1       3.579  -3.759  -2.460  0.00  0.00    +0.149 HD
ENDROOT
BRANCH   2   5
ATOM      5  C   UNL     1       5.858  -4.290  -1.324  0.00  0.00    +0.192 A 
ATOM      6  C   UNL     1       7.092  -4.523  -0.787  0.00  0.00    +0.056 A 
ATOM      7  C   UNL     1       6.888  -5.265   0.386  0.00  0.00    +0.070 A 
ATOM      8  C   UNL     1       5.555  -5.451   0.513  0.00  0.00    +0.246 A 
ATOM      9  O   UNL     1       4.938  -4.857  -0.517  0.00  0.00    -0.433 OA
BRANCH   8  10
ATOM     10  S   UNL     1       4.761  -6.325   1.820  0.00  0.00    +0.058 S 
ATOM     11  O   UNL     1       3.507  -6.761   1.314  0.00  0.00    -0.161 OA
ATOM     12  O   UNL     1       5.723  -7.226   2.351  0.00  0.00    -0.161 OA
BRANCH  10  13
ATOM     13  C   UNL     1       4.411  -5.156   3.091  0.00  0.00    +0.097 A 
ATOM     14  C   UNL     1       5.342  -4.916   4.085  0.00  0.00    +0.029 A 
ATOM     15  C   UNL     1       5.068  -3.999   5.082  0.00  0.00    +0.022 A 
ATOM     16  C   UNL     1       3.862  -3.321   5.086  0.00  0.00    +0.041 A 
ATOM     17  C   UNL     1       2.931  -3.561   4.091  0.00  0.00    +0.022 A 
ATOM     18  C   UNL     1       3.208  -4.474   3.091  0.00  0.00    +0.029 A 
ATOM     19 CL   UNL     1       3.518  -2.170   6.339  0.00  0.00    -0.084 Cl
ENDBRANCH  10  13
ENDBRANCH   8  10
ENDBRANCH   2   5
BRANCH   1  20
ATOM     20  C   UNL     1       4.034  -2.643  -4.209  0.00  0.00    +0.094 C 
BRANCH  20  21
ATOM     21  C   UNL     1       2.522  -2.490  -4.383  0.00  0.00    -0.020 C 
BRANCH  21  25
ATOM     22  C   UNL     1       0.967  -0.032  -1.248  0.00  0.00    +0.161 A 
ATOM     23  C   UNL     1       1.586   0.547  -2.344  0.00  0.00    +0.049 A 
ATOM     24  C   UNL     1       2.088  -0.250  -3.356  0.00  0.00    +0.006 A 
ATOM     25  C   UNL     1       1.973  -1.625  -3.277  0.00  0.00    -0.056 A 
ATOM     26  C   UNL     1       1.357  -2.210  -2.187  0.00  0.00    +0.051 A 
ATOM     27  C   UNL     1       0.857  -1.417  -1.166  0.00  0.00    +0.162 A 
BRANCH  22  29
ATOM     28  C   UNL     1       0.622   2.164  -0.403  0.00  0.00    +0.277 C 
ATOM     29  O   UNL     1       0.473   0.751  -0.252  0.00  0.00    -0.491 OA
ENDBRANCH  22  29
BRANCH  27  30
ATOM     30  O   UNL     1       0.256  -1.990  -0.090  0.00  0.00    -0.491 OA
ATOM     31  C   UNL     1       0.178  -3.417  -0.073  0.00  0.00    +0.277 C 
ENDBRANCH  27  30
ENDBRANCH  21  25
BRANCH  21  32
ATOM     32  N   UNL     1       2.240  -1.862  -5.681  0.00  0.00    +0.385 N 
ATOM     33  C   UNL     1       2.705  -2.739  -6.786  0.00  0.00    -0.078 C 
ATOM     34  C   UNL     1       1.869  -2.256  -7.998  0.00  0.00    -0.020 C 
ATOM     35  C   UNL     1       0.493  -1.942  -7.366  0.00  0.00    -0.020 C 
ATOM     36  C   UNL     1       0.780  -1.715  -5.870  0.00  0.00    -0.078 C 
ATOM     37  H   UNL     1       2.691  -0.961  -5.737  0.00  0.00    -0.081 HD
ENDBRANCH  21  32
ENDBRANCH  20  21
ENDBRANCH   1  20
TORSDOF 9
