REMARK  Name = ZINC66402497
REMARK  7 active torsions:
REMARK  status: ('A' for Active; 'I' for Inactive)
REMARK    1  A    between atoms: C_1  and  C_2
REMARK    2  A    between atoms: N_8  and  C_9
REMARK    3  A    between atoms: C_9  and  C_11
REMARK    4  A    between atoms: C_9  and  C_12
REMARK    5  A    between atoms: C_12  and  N_13
REMARK    6  A    between atoms: N_16  and  C_17
REMARK    7  A    between atoms: C_19  and  C_25
REMARK                            x       y       z     vdW  Elec       q    Type
REMARK                         _______ _______ _______ _____ _____    ______ ____
ROOT
ATOM      1  N   UNL     1       2.512  -2.144   2.428  0.00  0.00    -0.301 N 
ATOM      2  C   UNL     1       2.976  -2.933   3.417  0.00  0.00    +0.304 C 
ATOM      3  O   UNL     1       3.420  -2.435   4.434  0.00  0.00    -0.253 OA
ATOM      4  N   UNL     1       2.948  -4.273   3.279  0.00  0.00    -0.265 N 
ATOM      5  H   UNL     1       2.158  -2.540   1.617  0.00  0.00    +0.150 HD
ATOM      6  H   UNL     1       2.669  -4.668   2.438  0.00  0.00    +0.157 HD
ENDROOT
BRANCH   4   7
ATOM      7  C   UNL     1       3.323  -5.096   4.351  0.00  0.00    +0.100 A 
ATOM      8  C   UNL     1       2.446  -6.018   4.855  0.00  0.00    +0.042 A 
ATOM      9  C   UNL     1       2.847  -6.828   5.927  0.00  0.00    +0.073 A 
ATOM     10  C   UNL     1       4.087  -6.695   6.450  0.00  0.00    +0.098 A 
ATOM     11  N   UNL     1       4.959  -5.780   5.951  0.00  0.00    -0.327 N 
ATOM     12  H   UNL     1       5.844  -5.699   6.340  0.00  0.00    +0.168 HD
ATOM     13  C   UNL     1       4.611  -4.988   4.918  0.00  0.00    +0.270 A 
ATOM     14  O   UNL     1       5.407  -4.175   4.477  0.00  0.00    -0.266 OA
BRANCH   9  15
ATOM     15  C   UNL     1       1.895  -7.849   6.496  0.00  0.00    +0.419 C 
ATOM     16  F   UNL     1       2.515  -8.530   7.548  0.00  0.00    -0.166 F 
ATOM     17  F   UNL     1       0.748  -7.203   6.970  0.00  0.00    -0.166 F 
ATOM     18  F   UNL     1       1.537  -8.761   5.497  0.00  0.00    -0.166 F 
ENDBRANCH   9  15
ENDBRANCH   4   7
BRANCH   1  19
ATOM     19  C   UNL     1       2.542  -0.687   2.578  0.00  0.00    +0.090 C 
BRANCH  19  20
ATOM     20  C   UNL     1       1.824  -0.037   1.394  0.00  0.00    -0.054 C 
ATOM     21  C   UNL     1       2.029   1.479   1.442  0.00  0.00    -0.012 C 
BRANCH  20  28
ATOM     22  C   UNL     1       0.788  -2.167  -0.115  0.00  0.00    -0.013 C 
ATOM     23  C   UNL     1       0.181  -1.775   1.234  0.00  0.00    -0.071 C 
ATOM     24  C   UNL     1      -1.318  -2.082   1.227  0.00  0.00    -0.016 C 
ATOM     25  C   UNL     1      -1.921  -1.688   2.578  0.00  0.00    -0.003 C 
ATOM     26  C   UNL     1      -1.633  -0.207   2.843  0.00  0.00    -0.019 C 
ATOM     27  C   UNL     1      -0.122   0.030   2.790  0.00  0.00    -0.078 C 
ATOM     28  N   UNL     1       0.389  -0.340   1.465  0.00  0.00    +0.384 N 
ATOM     29  H   UNL     1      -0.100   0.188   0.757  0.00  0.00    -0.081 HD
ENDBRANCH  20  28
ENDBRANCH  19  20
ENDBRANCH   1  19
TORSDOF 5
