REMARK  Name = ZINC40619410
REMARK  12 active torsions:
REMARK  status: ('A' for Active; 'I' for Inactive)
REMARK    1  A    between atoms: C_1  and  C_2
REMARK    2  A    between atoms: C_2  and  C_31
REMARK    3  A    between atoms: C_4  and  N_10
REMARK    4  A    between atoms: C_6  and  C_8
REMARK    5  A    between atoms: C_6  and  C_9
REMARK    6  A    between atoms: C_12  and  N_28
REMARK    7  A    between atoms: C_13  and  N_17
REMARK    8  A    between atoms: N_17  and  C_18
REMARK    9  A    between atoms: C_20  and  O_26
REMARK   10  A    between atoms: C_23  and  O_24
REMARK   11  A    between atoms: O_24  and  C_25
REMARK   12  A    between atoms: O_26  and  C_27
REMARK                            x       y       z     vdW  Elec       q    Type
REMARK                         _______ _______ _______ _____ _____    ______ ____
ROOT
ATOM      1  N   UNL     1       3.144  -1.462  -2.235  0.00  0.00    -0.324 N 
ATOM      2  C   UNL     1       4.189  -0.791  -2.850  0.00  0.00    +0.155 A 
ATOM      3  C   UNL     1       4.574  -1.122  -4.146  0.00  0.00    +0.205 A 
ATOM      4  C   UNL     1       5.629  -0.419  -4.720  0.00  0.00    +0.159 A 
ATOM      5  N   UNL     1       6.228   0.538  -4.013  0.00  0.00    -0.218 NA
ATOM      6  C   UNL     1       5.834   0.822  -2.789  0.00  0.00    +0.225 A 
ATOM      7  N   UNL     1       4.836   0.182  -2.213  0.00  0.00    -0.218 NA
ATOM      8  H   UNL     1       2.678  -2.170  -2.706  0.00  0.00    +0.148 HD
ENDROOT
BRANCH   1  12
ATOM      9  C   UNL     1       0.657   0.366   0.908  0.00  0.00    -0.010 C 
ATOM     10  C   UNL     1       0.843  -1.149   0.766  0.00  0.00    -0.072 C 
ATOM     11  C   UNL     1       1.278  -1.485  -0.656  0.00  0.00    +0.009 C 
ATOM     12  C   UNL     1       2.743  -1.100  -0.870  0.00  0.00    +0.069 C 
ATOM     13  C   UNL     1       3.592  -1.886   0.130  0.00  0.00    +0.009 C 
ATOM     14  C   UNL     1       3.174  -1.554   1.559  0.00  0.00    -0.072 C 
ATOM     15  N   UNL     1       1.743  -1.667   1.781  0.00  0.00    +0.386 N 
ATOM     16  C   UNL     1       3.687  -0.161   1.938  0.00  0.00    -0.010 C 
ATOM     17  C   UNL     1       3.877  -2.566   2.493  0.00  0.00    -0.010 C 
ATOM     18  C   UNL     1      -0.543  -1.798   0.991  0.00  0.00    -0.010 C 
ATOM     19  H   UNL     1       1.519  -1.213   2.672  0.00  0.00    -0.084 HD
ATOM     20  H   UNL     1       1.520  -2.657   1.931  0.00  0.00    -0.084 HD
ENDBRANCH   1  12
BRANCH   3  21
ATOM     21  N   UNL     1       3.880  -2.194  -4.895  0.00  0.00    +0.063 N 
ATOM     22  O   UNL     1       2.921  -1.929  -5.581  0.00  0.00    -0.126 OA
ATOM     23  O   UNL     1       4.273  -3.335  -4.820  0.00  0.00    -0.126 OA
ENDBRANCH   3  21
BRANCH   4  24
ATOM     24  N   UNL     1       6.051  -0.711  -6.008  0.00  0.00    -0.295 N 
ATOM     25  H   UNL     1       5.552  -1.341  -6.551  0.00  0.00    +0.154 HD
BRANCH  24  26
ATOM     26  C   UNL     1       7.198  -0.095  -6.526  0.00  0.00    +0.078 A 
ATOM     27  C   UNL     1       8.180   0.378  -5.668  0.00  0.00    +0.072 A 
ATOM     28  C   UNL     1       9.314   0.986  -6.183  0.00  0.00    +0.122 A 
ATOM     29  C   UNL     1       9.467   1.122  -7.555  0.00  0.00    +0.049 A 
ATOM     30  C   UNL     1       8.489   0.651  -8.412  0.00  0.00    +0.051 A 
ATOM     31  C   UNL     1       7.357   0.037  -7.903  0.00  0.00    +0.141 A 
BRANCH  31  32
ATOM     32  O   UNL     1       6.399  -0.431  -8.748  0.00  0.00    -0.493 OA
ATOM     33  C   UNL     1       6.628  -0.261 -10.148  0.00  0.00    +0.277 C 
ENDBRANCH  31  32
BRANCH  28  34
ATOM     34  O   UNL     1      10.277   1.451  -5.343  0.00  0.00    -0.495 OA
ATOM     35  C   UNL     1      11.418   2.067  -5.943  0.00  0.00    +0.277 C 
ENDBRANCH  28  34
ENDBRANCH  24  26
ENDBRANCH   4  24
TORSDOF 6
