REMARK  Name = ZINC39627012
REMARK  14 active torsions:
REMARK  status: ('A' for Active; 'I' for Inactive)
REMARK    1  A    between atoms: C_1  and  C_2
REMARK    2  A    between atoms: C_2  and  C_3
REMARK    3  A    between atoms: C_3  and  C_4
REMARK    4  A    between atoms: C_4  and  C_5
REMARK    5  A    between atoms: C_5  and  C_7
REMARK    6  A    between atoms: C_5  and  C_8
REMARK    7  A    between atoms: C_12  and  C_21
REMARK    8  A    between atoms: N_23  and  C_24
REMARK    9  A    between atoms: C_24  and  C_25
REMARK   10  A    between atoms: C_25  and  N_26
REMARK   11  A    between atoms: N_26  and  C_27
REMARK   12  A    between atoms: N_26  and  C_29
REMARK   13  A    between atoms: C_27  and  C_28
REMARK   14  A    between atoms: C_29  and  C_30
REMARK                            x       y       z     vdW  Elec       q    Type
REMARK                         _______ _______ _______ _____ _____    ______ ____
ROOT
ATOM      1  C   UNL     1      -3.860  -5.674   2.014  0.00  0.00    +0.218 C 
ATOM      2  O   UNL     1      -3.098  -6.520   2.432  0.00  0.00    -0.275 OA
ATOM      3  N   UNL     1      -5.139  -5.995   1.740  0.00  0.00    -0.300 N 
ATOM      4  C   UNL     1      -6.182  -5.133   1.133  0.00  0.00    +0.121 C 
ATOM      5  C   UNL     1      -6.957  -6.071   0.181  0.00  0.00    +0.100 C 
ATOM      6  C   UNL     1      -6.719  -7.483   0.741  0.00  0.00    -0.004 C 
ATOM      7  C   UNL     1      -5.821  -7.291   1.972  0.00  0.00    +0.115 C 
ATOM      8  C   UNL     1      -8.044  -8.121   1.147  0.00  0.00    -0.010 C 
ATOM      9  C   UNL     1      -7.788  -9.546   1.647  0.00  0.00    -0.082 C 
ATOM     10  N   UNL     1      -7.149 -10.332   0.584  0.00  0.00    +0.379 N 
ATOM     11  C   UNL     1      -5.834  -9.765   0.264  0.00  0.00    -0.082 C 
ATOM     12  C   UNL     1      -6.007  -8.349  -0.294  0.00  0.00    -0.010 C 
ATOM     13  H   UNL     1      -7.037 -11.285   0.894  0.00  0.00    -0.086 HD
ATOM     14  H   UNL     1      -7.731 -10.315  -0.241  0.00  0.00    -0.086 HD
ENDROOT
BRANCH   5  15
ATOM     15  C   UNL     1      -8.427  -5.738   0.198  0.00  0.00    +0.218 C 
ATOM     16  O   UNL     1      -8.917  -5.207   1.172  0.00  0.00    -0.275 OA
ATOM     17  N   UNL     1      -9.196  -6.030  -0.870  0.00  0.00    -0.317 N 
ATOM     18  H   UNL     1      -8.804  -6.454  -1.649  0.00  0.00    +0.149 HD
BRANCH  17  19
ATOM     19  C   UNL     1     -10.624  -5.706  -0.853  0.00  0.00    +0.085 C 
BRANCH  19  20
ATOM     20  C   UNL     1     -11.261  -6.138  -2.176  0.00  0.00    -0.060 C 
BRANCH  20  21
ATOM     21  N   UNL     1     -12.710  -5.903  -2.122  0.00  0.00    +0.380 N 
ATOM     22  H   UNL     1     -13.095  -6.366  -1.313  0.00  0.00    -0.082 HD
BRANCH  21  23
ATOM     23  C   UNL     1     -12.969  -4.460  -2.032  0.00  0.00    -0.082 C 
ATOM     24  C   UNL     1     -14.469  -4.222  -1.851  0.00  0.00    -0.017 C 
ENDBRANCH  21  23
BRANCH  21  25
ATOM     25  C   UNL     1     -13.338  -6.439  -3.338  0.00  0.00    -0.082 C 
ATOM     26  C   UNL     1     -13.200  -7.962  -3.354  0.00  0.00    -0.017 C 
ENDBRANCH  21  25
ENDBRANCH  20  21
ENDBRANCH  19  20
ENDBRANCH  17  19
ENDBRANCH   5  15
BRANCH   1  27
ATOM     27  C   UNL     1      -3.374  -4.263   1.801  0.00  0.00    +0.072 C 
ATOM     28  C   UNL     1      -2.730  -4.148   0.418  0.00  0.00    +0.017 C 
BRANCH  27  29
ATOM     29  C   UNL     1      -2.342  -3.911   2.875  0.00  0.00    +0.012 C 
BRANCH  29  30
ATOM     30  C   UNL     1      -1.942  -2.441   2.735  0.00  0.00    +0.000 C 
BRANCH  30  32
ATOM     31  C   UNL     1      -0.510  -0.619   3.669  0.00  0.00    +0.004 C 
ATOM     32  C   UNL     1      -0.910  -2.089   3.809  0.00  0.00    -0.003 C 
ENDBRANCH  30  32
ENDBRANCH  29  30
ENDBRANCH  27  29
ENDBRANCH   1  27
TORSDOF 10
