REMARK  Name = ZINC12324440
REMARK  5 active torsions:
REMARK  status: ('A' for Active; 'I' for Inactive)
REMARK    1  A    between atoms: C_1  and  C_2
REMARK    2  A    between atoms: C_2  and  N_3
REMARK    3  A    between atoms: C_5  and  C_18
REMARK    4  A    between atoms: C_6  and  C_11
REMARK    5  A    between atoms: C_9  and  O_10
REMARK                            x       y       z     vdW  Elec       q    Type
REMARK                         _______ _______ _______ _____ _____    ______ ____
ROOT
ATOM      1  N   UNL     1       0.688  -0.476  -1.203  0.00  0.00    -0.264 N 
ATOM      2  C   UNL     1      -0.029  -0.708  -2.373  0.00  0.00    +0.087 C 
ATOM      3  C   UNL     1       0.619  -0.797  -3.535  0.00  0.00    +0.019 C 
ATOM      4  C   UNL     1       2.112  -0.644  -3.604  0.00  0.00    +0.147 C 
ATOM      5  N   UNL     1       2.722  -0.779  -2.287  0.00  0.00    -0.332 N 
ATOM      6  C   UNL     1       2.045  -0.689  -1.190  0.00  0.00    +0.261 C 
ATOM      7  H   UNL     1       3.677  -0.939  -2.232  0.00  0.00    +0.165 HD
ENDROOT
BRANCH   3   8
ATOM      8  C   UNL     1      -0.143  -1.051  -4.774  0.00  0.00    +0.080 A 
ATOM      9  C   UNL     1      -1.503  -1.189  -4.734  0.00  0.00    +0.076 A 
ATOM     10  S   UNL     1      -1.862  -1.469  -6.463  0.00  0.00    -0.060 S 
ATOM     11  C   UNL     1      -0.181  -1.375  -7.061  0.00  0.00    +0.156 A 
ATOM     12  N   UNL     1       0.486  -1.143  -5.945  0.00  0.00    -0.225 NA
ATOM     13  N   UNL     1       0.297  -1.506  -8.355  0.00  0.00    -0.338 N 
ATOM     14  H   UNL     1      -0.320  -1.674  -9.085  0.00  0.00    +0.144 HD
ATOM     15  H   UNL     1       1.248  -1.431  -8.531  0.00  0.00    +0.144 HD
ENDBRANCH   3   8
BRANCH   4  16
ATOM     16  C   UNL     1       2.442   0.717  -4.162  0.00  0.00    -0.021 A 
ATOM     17  C   UNL     1       2.401   1.828  -3.341  0.00  0.00    +0.007 A 
ATOM     18  C   UNL     1       2.704   3.076  -3.852  0.00  0.00    +0.020 A 
ATOM     19  C   UNL     1       3.049   3.213  -5.185  0.00  0.00    +0.041 A 
ATOM     20  C   UNL     1       3.090   2.100  -6.006  0.00  0.00    +0.020 A 
ATOM     21  C   UNL     1       2.792   0.852  -5.492  0.00  0.00    +0.007 A 
ATOM     22 CL   UNL     1       3.429   4.780  -5.827  0.00  0.00    -0.084 Cl
ENDBRANCH   4  16
BRANCH   1  24
ATOM     23  C   UNL     1      -0.019   1.526   0.010  0.00  0.00    +0.025 C 
ATOM     24  C   UNL     1       0.002  -0.004   0.002  0.00  0.00    +0.111 C 
ENDBRANCH   1  24
BRANCH   6  25
ATOM     25  O   UNL     1       2.685  -0.812  -0.007  0.00  0.00    -0.483 OA
ATOM     26  H   UNL     1       3.637  -0.959  -0.088  0.00  0.00    +0.295 HD
ENDBRANCH   6  25
TORSDOF 4
