REMARK  Name = ZINC04520449
REMARK  6 active torsions:
REMARK  status: ('A' for Active; 'I' for Inactive)
REMARK    1  A    between atoms: C_1  and  C_2
REMARK    2  A    between atoms: C_2  and  C_4
REMARK    3  A    between atoms: N_5  and  N_6
REMARK    4  A    between atoms: N_6  and  C_7
REMARK    5  A    between atoms: N_13  and  N_14
REMARK    6  A    between atoms: N_14  and  C_15
REMARK                            x       y       z     vdW  Elec       q    Type
REMARK                         _______ _______ _______ _____ _____    ______ ____
ROOT
ATOM      1  C   UNL     1      -1.209  -0.728   0.001  0.00  0.00    +0.169 C 
ATOM      2  N   UNL     1      -1.198  -2.124  -0.104  0.00  0.00    -0.248 N 
ATOM      3  N   UNL     1      -2.341  -0.074  -0.072  0.00  0.00    -0.290 N 
ATOM      4  H   UNL     1      -1.910  -2.580  -0.580  0.00  0.00    +0.172 HD
ATOM      5  H   UNL     1      -2.348   0.893  -0.000  0.00  0.00    +0.186 HD
ENDROOT
BRANCH   1   7
ATOM      6  C   UNL     1      -0.016   1.464   0.429  0.00  0.00    +0.095 C 
ATOM      7  C   UNL     1       0.005  -0.023   0.185  0.00  0.00    +0.193 C 
ATOM      8  O   UNL     1       1.064  -0.617   0.148  0.00  0.00    -0.289 OA
ENDBRANCH   1   7
BRANCH   2   9
ATOM      9  N   UNL     1      -0.161  -2.863   0.480  0.00  0.00    -0.265 N 
ATOM     10  H   UNL     1       0.507  -2.416   1.023  0.00  0.00    +0.170 HD
BRANCH   9  11
ATOM     11  C   UNL     1      -0.087  -4.243   0.279  0.00  0.00    +0.044 A 
ATOM     12  C   UNL     1      -1.040  -4.885  -0.503  0.00  0.00    +0.024 A 
ATOM     13  C   UNL     1      -0.964  -6.250  -0.700  0.00  0.00    +0.002 A 
ATOM     14  C   UNL     1       0.057  -6.978  -0.118  0.00  0.00    +0.000 A 
ATOM     15  C   UNL     1       1.007  -6.343   0.661  0.00  0.00    +0.002 A 
ATOM     16  C   UNL     1       0.941  -4.977   0.857  0.00  0.00    +0.024 A 
ENDBRANCH   9  11
ENDBRANCH   2   9
BRANCH   3  17
ATOM     17  N   UNL     1      -3.542  -0.771  -0.255  0.00  0.00    -0.259 N 
ATOM     18  H   UNL     1      -3.535  -1.739  -0.327  0.00  0.00    +0.172 HD
BRANCH  17  19
ATOM     19  C   UNL     1      -4.748  -0.075  -0.333  0.00  0.00    +0.046 A 
ATOM     20  C   UNL     1      -4.759   1.312  -0.235  0.00  0.00    +0.026 A 
ATOM     21  C   UNL     1      -5.955   1.998  -0.313  0.00  0.00    +0.017 A 
ATOM     22  C   UNL     1      -7.141   1.307  -0.488  0.00  0.00    +0.018 A 
ATOM     23  C   UNL     1      -7.133  -0.073  -0.586  0.00  0.00    +0.017 A 
ATOM     24  C   UNL     1      -5.941  -0.765  -0.514  0.00  0.00    +0.026 A 
ATOM     25 BR   UNL     1      -8.776   2.252  -0.593  0.00  0.00    -0.050 Br
ENDBRANCH  17  19
ENDBRANCH   3  17
TORSDOF 5
