REMARK  Name = ZINC34761449
REMARK  9 active torsions:
REMARK  status: ('A' for Active; 'I' for Inactive)
REMARK    1  A    between atoms: C_1  and  N_2
REMARK    2  A    between atoms: N_2  and  C_3
REMARK    3  A    between atoms: N_2  and  C_4
REMARK    4  A    between atoms: C_4  and  C_5
REMARK    5  A    between atoms: C_5  and  N_6
REMARK    6  A    between atoms: C_12  and  C_14
REMARK    7  A    between atoms: C_17  and  C_20
REMARK    8  A    between atoms: N_24  and  C_28
REMARK    9  A    between atoms: C_28  and  C_29
REMARK                            x       y       z     vdW  Elec       q    Type
REMARK                         _______ _______ _______ _____ _____    ______ ____
ROOT
ATOM      1  C   UNL     1       1.133  -1.471   8.484  0.00  0.00    +0.037 A 
ATOM      2  C   UNL     1       0.578  -0.193   8.588  0.00  0.00    +0.013 A 
ATOM      3  C   UNL     1       0.027   0.222   9.773  0.00  0.00    +0.009 A 
ATOM      4  C   UNL     1       0.020  -0.636  10.879  0.00  0.00    -0.024 A 
ATOM      5  C   UNL     1       0.576  -1.917  10.774  0.00  0.00    +0.009 A 
ATOM      6  C   UNL     1       1.123  -2.330   9.586  0.00  0.00    +0.013 A 
ENDROOT
BRANCH   1  13
ATOM      7  N   UNL     1       4.866   0.202   5.703  0.00  0.00    -0.301 NA
ATOM      8  C   UNL     1       4.285   0.533   7.011  0.00  0.00    +0.103 C 
ATOM      9  C   UNL     1       2.772   0.290   6.970  0.00  0.00    +0.123 C 
ATOM     10  N   UNL     1       2.533  -1.087   6.513  0.00  0.00    -0.295 N 
ATOM     11  C   UNL     1       3.194  -1.536   5.278  0.00  0.00    +0.123 C 
ATOM     12  C   UNL     1       4.690  -1.221   5.386  0.00  0.00    +0.103 C 
ATOM     13  C   UNL     1       1.727  -1.916   7.207  0.00  0.00    +0.247 C 
ATOM     14  O   UNL     1       1.490  -3.030   6.782  0.00  0.00    -0.270 OA
BRANCH   7  15
ATOM     15  C   UNL     1       6.284   0.583   5.645  0.00  0.00    +0.066 C 
BRANCH  15  16
ATOM     16  C   UNL     1       6.407   2.106   5.732  0.00  0.00    -0.064 C 
BRANCH  16  18
ATOM     17  C   UNL     1       8.375   2.126   4.361  0.00  0.00    -0.097 C 
ATOM     18  N   UNL     1       7.825   2.486   5.675  0.00  0.00    +0.377 N 
ATOM     19  C   UNL     1       7.951   3.936   5.878  0.00  0.00    -0.097 C 
ATOM     20  H   UNL     1       8.333   1.999   6.397  0.00  0.00    -0.083 HD
ENDBRANCH  16  18
ENDBRANCH  15  16
ENDBRANCH   7  15
ENDBRANCH   1  13
BRANCH   4  21
ATOM     21  C   UNL     1      -0.571  -0.193  12.150  0.00  0.00    +0.028 C 
ATOM     22  C   UNL     1      -1.417   0.866  12.171  0.00  0.00    +0.080 C 
ATOM     23  C   UNL     1      -1.997   1.587  13.327  0.00  0.00    +0.261 C 
ATOM     24  O   UNL     1      -1.746   1.268  14.473  0.00  0.00    -0.269 OA
ATOM     25  N   UNL     1      -2.803   2.598  13.048  0.00  0.00    -0.224 N 
ATOM     26  C   UNL     1      -3.079   2.950  11.776  0.00  0.00    +0.286 C 
ATOM     27  O   UNL     1      -3.795   3.849  11.380  0.00  0.00    -0.262 OA
ATOM     28  S   UNL     1      -2.133   1.780  10.813  0.00  0.00    -0.026 S 
BRANCH  25  29
ATOM     29  C   UNL     1      -3.411   3.353  14.146  0.00  0.00    +0.158 C 
BRANCH  29  30
ATOM     30  C   UNL     1      -2.509   4.499  14.528  0.00  0.00    +0.041 A 
ATOM     31  C   UNL     1      -1.532   4.320  15.492  0.00  0.00    +0.131 A 
ATOM     32  C   UNL     1      -0.704   5.373  15.841  0.00  0.00    +0.039 A 
ATOM     33  C   UNL     1      -0.852   6.603  15.228  0.00  0.00    +0.006 A 
ATOM     34  C   UNL     1      -1.827   6.783  14.266  0.00  0.00    +0.039 A 
ATOM     35  C   UNL     1      -2.653   5.729  13.910  0.00  0.00    +0.131 A 
ATOM     36  F   UNL     1      -3.602   5.904  12.965  0.00  0.00    -0.205 F 
ATOM     37  F   UNL     1      -1.387   3.118  16.092  0.00  0.00    -0.205 F 
ENDBRANCH  29  30
ENDBRANCH  25  29
ENDBRANCH   4  21
TORSDOF 7
