REMARK  Name = ZINC60369205
REMARK  6 active torsions:
REMARK  status: ('A' for Active; 'I' for Inactive)
REMARK    1  A    between atoms: C_4  and  N_17
REMARK    2  A    between atoms: C_5  and  C_7
REMARK    3  A    between atoms: C_7  and  N_8
REMARK    4  A    between atoms: C_12  and  C_14
REMARK    5  A    between atoms: C_18  and  C_20
REMARK    6  A    between atoms: C_20  and  C_21
REMARK                            x       y       z     vdW  Elec       q    Type
REMARK                         _______ _______ _______ _____ _____    ______ ____
ROOT
ATOM      1  C   UNL     1      -0.010   1.391  -0.020  0.00  0.00    +0.000 A 
ATOM      2  C   UNL     1       1.179   2.097  -0.025  0.00  0.00    +0.002 A 
ATOM      3  C   UNL     1       2.384   1.424  -0.031  0.00  0.00    +0.023 A 
ATOM      4  C   UNL     1       2.402   0.035  -0.031  0.00  0.00    +0.035 A 
ATOM      5  C   UNL     1       1.206  -0.672  -0.026  0.00  0.00    -0.043 A 
ATOM      6  C   UNL     1       0.004   0.008  -0.021  0.00  0.00    +0.003 A 
ENDROOT
BRANCH   4   7
ATOM      7  N   UNL     1       3.622  -0.651  -0.037  0.00  0.00    -0.285 N 
ATOM      8  C   UNL     1       4.730  -0.058   0.448  0.00  0.00    +0.223 C 
ATOM      9  O   UNL     1       4.653   1.029   0.980  0.00  0.00    -0.275 OA
ATOM     10  H   UNL     1       3.669  -1.553  -0.391  0.00  0.00    +0.155 HD
BRANCH   8  11
ATOM     11  C   UNL     1       6.066  -0.745   0.328  0.00  0.00    +0.155 C 
BRANCH  11  12
ATOM     12  C   UNL     1       7.134   0.122   0.944  0.00  0.00    +0.100 A 
ATOM     13  C   UNL     1       7.921   1.149   0.256  0.00  0.00    +0.045 A 
ATOM     14  C   UNL     1       7.951   1.625  -1.057  0.00  0.00    +0.013 A 
ATOM     15  C   UNL     1       8.823   2.619  -1.400  0.00  0.00    +0.001 A 
ATOM     16  C   UNL     1       9.680   3.161  -0.453  0.00  0.00    +0.004 A 
ATOM     17  C   UNL     1       9.667   2.706   0.848  0.00  0.00    +0.049 A 
ATOM     18  C   UNL     1       8.787   1.695   1.217  0.00  0.00    +0.168 A 
ATOM     19  O   UNL     1       8.545   1.055   2.378  0.00  0.00    -0.354 OA
ATOM     20  N   UNL     1       7.522   0.100   2.182  0.00  0.00    -0.082 NA
ENDBRANCH  11  12
ENDBRANCH   8  11
ENDBRANCH   4   7
BRANCH   5  21
ATOM     21  C   UNL     1       1.221  -2.179  -0.027  0.00  0.00    -0.040 C 
BRANCH  21  22
ATOM     22  N   UNL     1       1.472  -2.667   1.336  0.00  0.00    +0.390 N 
ATOM     23  C   UNL     1       0.308  -2.369   2.209  0.00  0.00    -0.077 C 
ATOM     24  C   UNL     1       0.463  -3.389   3.365  0.00  0.00    -0.020 C 
ATOM     25  C   UNL     1       0.985  -4.653   2.644  0.00  0.00    -0.008 C 
ATOM     26  C   UNL     1       1.609  -4.139   1.333  0.00  0.00    +0.019 C 
ATOM     27  H   UNL     1       2.307  -2.240   1.710  0.00  0.00    -0.080 HD
BRANCH  26  28
ATOM     28  C   UNL     1       3.066  -4.519   1.275  0.00  0.00    +0.197 C 
ATOM     29  O   UNL     1       3.917  -3.656   1.239  0.00  0.00    -0.278 OA
ATOM     30  N   UNL     1       3.424  -5.819   1.263  0.00  0.00    -0.331 N 
ATOM     31  H   UNL     1       2.743  -6.509   1.292  0.00  0.00    +0.145 HD
ATOM     32  H   UNL     1       4.362  -6.063   1.226  0.00  0.00    +0.145 HD
ENDBRANCH  26  28
ENDBRANCH  21  22
ENDBRANCH   5  21
TORSDOF 6
