REMARK  Name = ZINC60061464
REMARK  14 active torsions:
REMARK  status: ('A' for Active; 'I' for Inactive)
REMARK    1  A    between atoms: C_1  and  C_2
REMARK    2  A    between atoms: C_2  and  O_3
REMARK    3  A    between atoms: O_3  and  C_4
REMARK    4  A    between atoms: C_4  and  C_6
REMARK    5  A    between atoms: C_10  and  O_31
REMARK    6  A    between atoms: C_13  and  O_29
REMARK    7  A    between atoms: C_15  and  N_16
REMARK    8  A    between atoms: N_16  and  C_17
REMARK    9  A    between atoms: C_17  and  C_18
REMARK   10  A    between atoms: C_18  and  C_19
REMARK   11  A    between atoms: C_22  and  S_25
REMARK   12  A    between atoms: S_25  and  N_28
REMARK   13  A    between atoms: O_29  and  C_30
REMARK   14  A    between atoms: O_31  and  C_32
REMARK                            x       y       z     vdW  Elec       q    Type
REMARK                         _______ _______ _______ _____ _____    ______ ____
ROOT
ATOM      1  C   UNL     1      -3.470  -2.798  -0.528  0.00  0.00    +0.096 A 
ATOM      2  C   UNL     1      -4.618  -2.107  -0.103  0.00  0.00    +0.100 A 
ATOM      3  N   UNL     1      -5.312  -2.504   0.932  0.00  0.00    -0.357 N 
ATOM      4  C   UNL     1      -4.971  -3.588   1.644  0.00  0.00    +0.094 A 
ATOM      5  C   UNL     1      -5.740  -3.989   2.752  0.00  0.00    +0.144 A 
ATOM      6  C   UNL     1      -5.376  -5.105   3.473  0.00  0.00    +0.051 A 
ATOM      7  C   UNL     1      -4.255  -5.847   3.122  0.00  0.00    +0.050 A 
ATOM      8  C   UNL     1      -3.480  -5.480   2.042  0.00  0.00    +0.131 A 
ATOM      9  C   UNL     1      -3.830  -4.345   1.288  0.00  0.00    +0.065 A 
ATOM     10  C   UNL     1      -3.061  -3.945   0.171  0.00  0.00    +0.056 A 
ATOM     11  H   UNL     1      -6.099  -1.999   1.192  0.00  0.00    +0.165 HD
ENDROOT
BRANCH   1  12
ATOM     12  C   UNL     1      -2.710  -2.328  -1.695  0.00  0.00    +0.342 C 
ATOM     13  O   UNL     1      -2.467  -1.144  -1.826  0.00  0.00    -0.245 OA
BRANCH  12  14
ATOM     14  O   UNL     1      -2.281  -3.210  -2.620  0.00  0.00    -0.461 OA
BRANCH  14  16
ATOM     15  C   UNL     1      -1.149  -3.826  -4.664  0.00  0.00    +0.048 C 
ATOM     16  C   UNL     1      -1.548  -2.683  -3.727  0.00  0.00    +0.229 C 
ENDBRANCH  14  16
ENDBRANCH  12  14
ENDBRANCH   1  12
BRANCH  10  17
ATOM     17  N   UNL     1      -1.946  -4.654  -0.215  0.00  0.00    -0.342 N 
ATOM     18  H   UNL     1      -2.042  -5.449  -0.763  0.00  0.00    +0.146 HD
BRANCH  17  19
ATOM     19  C   UNL     1      -0.614  -4.207   0.200  0.00  0.00    +0.106 C 
BRANCH  19  20
ATOM     20  C   UNL     1       0.417  -5.282  -0.151  0.00  0.00    +0.054 C 
BRANCH  20  21
ATOM     21  C   UNL     1       1.787  -4.823   0.276  0.00  0.00    -0.046 A 
ATOM     22  C   UNL     1       2.578  -4.099  -0.598  0.00  0.00    +0.005 A 
ATOM     23  C   UNL     1       3.834  -3.678  -0.205  0.00  0.00    +0.029 A 
ATOM     24  C   UNL     1       4.301  -3.980   1.060  0.00  0.00    +0.105 A 
ATOM     25  C   UNL     1       3.510  -4.702   1.934  0.00  0.00    +0.029 A 
ATOM     26  C   UNL     1       2.252  -5.120   1.544  0.00  0.00    +0.005 A 
BRANCH  24  27
ATOM     27  S   UNL     1       5.903  -3.444   1.560  0.00  0.00    +0.056 S 
ATOM     28  O   UNL     1       6.321  -4.322   2.596  0.00  0.00    -0.153 OA
ATOM     29  O   UNL     1       6.658  -3.257   0.370  0.00  0.00    -0.153 OA
BRANCH  27  30
ATOM     30  N   UNL     1       5.727  -1.948   2.249  0.00  0.00    -0.204 NA
ATOM     31  H   UNL     1       6.335  -1.662   2.948  0.00  0.00    +0.144 HD
ATOM     32  H   UNL     1       5.016  -1.359   1.953  0.00  0.00    +0.144 HD
ENDBRANCH  27  30
ENDBRANCH  24  27
ENDBRANCH  20  21
ENDBRANCH  19  20
ENDBRANCH  17  19
ENDBRANCH  10  17
BRANCH   8  33
ATOM     33  O   UNL     1      -2.386  -6.211   1.706  0.00  0.00    -0.494 OA
ATOM     34  C   UNL     1      -2.094  -7.351   2.517  0.00  0.00    +0.277 C 
ENDBRANCH   8  33
BRANCH   5  35
ATOM     35  O   UNL     1      -6.841  -3.276   3.111  0.00  0.00    -0.493 OA
ATOM     36  C   UNL     1      -7.574  -3.741   4.246  0.00  0.00    +0.277 C 
ENDBRANCH   5  35
TORSDOF 11
