REMARK  Name = ZINC45537688
REMARK  3 active torsions:
REMARK  status: ('A' for Active; 'I' for Inactive)
REMARK    1  A    between atoms: C_9  and  C_12
REMARK    2  A    between atoms: N_17  and  C_20
REMARK    3  A    between atoms: C_20  and  C_21
REMARK                            x       y       z     vdW  Elec       q    Type
REMARK                         _______ _______ _______ _____ _____    ______ ____
ROOT
ATOM      1  C   UNL     1       6.124  -0.545   0.274  0.00  0.00    +0.246 C 
ATOM      2  O   UNL     1       6.233  -1.738   0.058  0.00  0.00    -0.270 OA
ATOM      3  N   UNL     1       7.223   0.202   0.500  0.00  0.00    -0.295 N 
ATOM      4  C   UNL     1       7.108   1.619   0.880  0.00  0.00    +0.123 C 
ATOM      5  C   UNL     1       7.953   1.856   2.136  0.00  0.00    +0.104 C 
ATOM      6  N   UNL     1       9.324   1.387   1.895  0.00  0.00    -0.291 NA
ATOM      7  C   UNL     1       9.357  -0.061   1.649  0.00  0.00    +0.104 C 
ATOM      8  C   UNL     1       8.569  -0.379   0.380  0.00  0.00    +0.123 C 
ENDROOT
BRANCH   1  17
ATOM      9  C   UNL     1       0.556   2.610  -0.461  0.00  0.00    +0.023 A 
ATOM     10  C   UNL     1       1.171   2.102   0.668  0.00  0.00    +0.048 A 
ATOM     11  C   UNL     1       2.425   1.526   0.570  0.00  0.00    +0.128 A 
ATOM     12  C   UNL     1       3.065   1.462  -0.680  0.00  0.00    +0.019 A 
ATOM     13  C   UNL     1       2.437   1.979  -1.813  0.00  0.00    +0.031 A 
ATOM     14  C   UNL     1       1.185   2.549  -1.695  0.00  0.00    +0.042 A 
ATOM     15 CL   UNL     1       0.395   3.194  -3.100  0.00  0.00    -0.084 Cl
ATOM     16  C   UNL     1       4.398   0.844  -0.756  0.00  0.00    +0.023 C 
ATOM     17  C   UNL     1       4.801   0.078   0.288  0.00  0.00    +0.052 C 
ATOM     18  C   UNL     1       3.880  -0.129   1.462  0.00  0.00    +0.269 C 
ATOM     19  O   UNL     1       3.055   1.019   1.659  0.00  0.00    -0.487 OA
ENDBRANCH   1  17
BRANCH   6  20
ATOM     20  C   UNL     1      10.209   1.752   3.010  0.00  0.00    +0.180 C 
BRANCH  20  21
ATOM     21  C   UNL     1      11.640   1.478   2.626  0.00  0.00    +0.230 C 
ATOM     22  O   UNL     1      11.898   1.023   1.532  0.00  0.00    -0.274 OA
ATOM     23  N   UNL     1      12.633   1.738   3.499  0.00  0.00    -0.300 N 
ATOM     24  C   UNL     1      12.336   2.282   4.831  0.00  0.00    +0.108 C 
ATOM     25  C   UNL     1      12.988   1.385   5.888  0.00  0.00    +0.019 C 
ATOM     26  C   UNL     1      14.482   1.248   5.583  0.00  0.00    +0.003 C 
ATOM     27  C   UNL     1      14.667   0.593   4.213  0.00  0.00    +0.019 C 
ATOM     28  C   UNL     1      14.034   1.476   3.139  0.00  0.00    +0.108 C 
ENDBRANCH  20  21
ENDBRANCH   6  20
TORSDOF 3
