REMARK  Name = ZINC63479995
REMARK  6 active torsions:
REMARK  status: ('A' for Active; 'I' for Inactive)
REMARK    1  A    between atoms: C_1  and  C_2
REMARK    2  A    between atoms: C_16  and  C_19
REMARK    3  A    between atoms: C_19  and  C_20
REMARK    4  A    between atoms: N_31  and  C_34
REMARK    5  A    between atoms: C_38  and  O_40
REMARK    6  A    between atoms: O_40  and  C_41
REMARK                            x       y       z     vdW  Elec       q    Type
REMARK                         _______ _______ _______ _____ _____    ______ ____
ROOT
ATOM      1  C   UNL     1      -0.018   1.503   0.010  0.00  0.00    +0.045 C 
ATOM      2  C   UNL     1       0.002  -0.004   0.002  0.00  0.00    -0.029 A 
ATOM      3  C   UNL     1       0.006  -0.684  -1.198  0.00  0.00    +0.005 A 
ATOM      4  C   UNL     1       0.024  -2.067  -1.215  0.00  0.00    +0.001 A 
ATOM      5  C   UNL     1       0.038  -2.770  -0.023  0.00  0.00    +0.008 A 
ATOM      6  C   UNL     1       0.033  -2.097   1.178  0.00  0.00    +0.004 A 
ATOM      7  C   UNL     1       0.023  -0.704   1.206  0.00  0.00    +0.042 A 
ATOM      8  N   UNL     1       0.034  -0.246   2.525  0.00  0.00    -0.283 N 
ATOM      9  C   UNL     1       0.059  -1.258   3.413  0.00  0.00    +0.243 C 
ATOM     10  O   UNL     1       0.077  -1.161   4.622  0.00  0.00    -0.273 OA
ATOM     11  C   UNL     1       0.047  -2.533   2.614  0.00  0.00    +0.136 C 
ATOM     12  C   UNL     1      -1.106  -3.446   2.976  0.00  0.00    +0.123 C 
ATOM     13  C   UNL     1      -0.513  -4.767   2.348  0.00  0.00    +0.107 C 
ATOM     14  C   UNL     1       0.871  -4.793   2.841  0.00  0.00    +0.072 C 
ATOM     15  N   UNL     1       1.264  -3.336   2.915  0.00  0.00    -0.295 NA
ATOM     16  C   UNL     1      -1.679  -5.614   2.277  0.00  0.00    +0.232 C 
ATOM     17  O   UNL     1      -1.727  -6.817   2.411  0.00  0.00    -0.274 OA
ATOM     18  N   UNL     1      -2.722  -4.758   2.023  0.00  0.00    -0.210 N 
ATOM     19  C   UNL     1      -2.393  -3.433   2.210  0.00  0.00    +0.233 C 
ATOM     20  O   UNL     1      -3.006  -2.458   1.832  0.00  0.00    -0.274 OA
ATOM     21  H   UNL     1       0.025   0.691   2.773  0.00  0.00    +0.155 HD
ATOM     22  H   UNL     1       2.008  -3.122   2.268  0.00  0.00    +0.124 HD
ENDROOT
BRANCH  18  23
ATOM     23  C   UNL     1      -3.997  -5.186   1.625  0.00  0.00    +0.047 A 
ATOM     24  C   UNL     1      -4.998  -4.255   1.382  0.00  0.00    +0.024 A 
ATOM     25  C   UNL     1      -6.254  -4.677   0.991  0.00  0.00    +0.005 A 
ATOM     26  C   UNL     1      -6.518  -6.025   0.840  0.00  0.00    +0.046 A 
ATOM     27  C   UNL     1      -5.521  -6.960   1.083  0.00  0.00    +0.122 A 
ATOM     28  C   UNL     1      -4.258  -6.540   1.470  0.00  0.00    +0.069 A 
BRANCH  27  29
ATOM     29  O   UNL     1      -5.782  -8.285   0.935  0.00  0.00    -0.495 OA
ATOM     30  C   UNL     1      -7.103  -8.645   0.528  0.00  0.00    +0.277 C 
ENDBRANCH  27  29
ENDBRANCH  18  23
BRANCH  14  31
ATOM     31  C   UNL     1       0.934  -5.460   4.217  0.00  0.00    +0.052 C 
BRANCH  31  32
ATOM     32  C   UNL     1       2.373  -5.587   4.647  0.00  0.00    -0.040 C 
ATOM     33  C   UNL     1       3.064  -4.733   5.435  0.00  0.00    -0.001 A 
ATOM     34  C   UNL     1       2.698  -3.477   6.101  0.00  0.00    +0.010 A 
ATOM     35  C   UNL     1       3.628  -2.831   6.841  0.00  0.00    +0.001 A 
ATOM     36  C   UNL     1       4.930  -3.330   6.987  0.00  0.00    +0.002 A 
ATOM     37  C   UNL     1       5.341  -4.477   6.405  0.00  0.00    +0.026 A 
ATOM     38  C   UNL     1       4.445  -5.238   5.605  0.00  0.00    +0.043 A 
ATOM     39  N   UNL     1       4.602  -6.362   4.948  0.00  0.00    -0.380 N 
ATOM     40  C   UNL     1       3.334  -6.699   4.290  0.00  0.00    +0.144 C 
ATOM     41  H   UNL     1       5.418  -6.884   4.906  0.00  0.00    +0.160 HD
ENDBRANCH  31  32
ENDBRANCH  14  31
TORSDOF 4
