REMARK  Name = ZINC67275997
REMARK  9 active torsions:
REMARK  status: ('A' for Active; 'I' for Inactive)
REMARK    1  A    between atoms: C_1  and  C_2
REMARK    2  A    between atoms: C_2  and  N_3
REMARK    3  A    between atoms: N_3  and  C_4
REMARK    4  A    between atoms: N_3  and  C_6
REMARK    5  A    between atoms: C_4  and  C_5
REMARK    6  A    between atoms: C_6  and  C_8
REMARK    7  A    between atoms: C_6  and  C_22
REMARK    8  A    between atoms: C_8  and  N_9
REMARK    9  A    between atoms: C_10  and  C_12
REMARK                            x       y       z     vdW  Elec       q    Type
REMARK                         _______ _______ _______ _____ _____    ______ ____
ROOT
ATOM      1  N   UNL     1      -1.630  -1.622  -0.587  0.00  0.00    -0.316 N 
ATOM      2  C   UNL     1      -2.957  -1.861  -0.589  0.00  0.00    +0.218 C 
ATOM      3  O   UNL     1      -3.450  -2.541  -1.463  0.00  0.00    -0.275 OA
ATOM      4  H   UNL     1      -1.236  -1.078   0.113  0.00  0.00    +0.149 HD
ENDROOT
BRANCH   2   5
ATOM      5  C   UNL     1      -3.828  -1.281   0.496  0.00  0.00    +0.092 C 
ATOM      6  C   UNL     1      -5.282  -1.698   0.261  0.00  0.00    +0.016 C 
ATOM      7  C   UNL     1      -6.162  -1.138   1.381  0.00  0.00    +0.020 C 
ATOM      8  C   UNL     1      -6.089   0.392   1.364  0.00  0.00    +0.109 C 
ATOM      9  N   UNL     1      -4.680   0.800   1.444  0.00  0.00    -0.285 N 
ATOM     10  C   UNL     1      -3.728   0.247   0.470  0.00  0.00    +0.122 C 
ATOM     11  C   UNL     1      -4.268   1.664   2.392  0.00  0.00    +0.300 C 
ATOM     12  O   UNL     1      -3.121   2.068   2.389  0.00  0.00    -0.253 OA
ATOM     13  N   UNL     1      -5.126   2.080   3.344  0.00  0.00    -0.313 N 
ATOM     14  H   UNL     1      -6.018   1.702   3.392  0.00  0.00    +0.146 HD
ATOM     15  H   UNL     1      -4.853   2.758   3.981  0.00  0.00    +0.146 HD
ENDBRANCH   2   5
BRANCH   1  16
ATOM     16  C   UNL     1      -0.784  -2.185  -1.641  0.00  0.00    +0.096 C 
BRANCH  16  17
ATOM     17  C   UNL     1       0.635  -1.627  -1.509  0.00  0.00    +0.016 C 
BRANCH  17  18
ATOM     18  C   UNL     1       1.586  -2.478  -2.311  0.00  0.00    +0.093 A 
ATOM     19  C   UNL     1       2.392  -3.435  -1.817  0.00  0.00    +0.043 A 
ATOM     20  C   UNL     1       3.106  -3.974  -2.912  0.00  0.00    +0.041 A 
ATOM     21  C   UNL     1       2.694  -3.314  -4.009  0.00  0.00    +0.195 A 
ATOM     22  O   UNL     1       1.769  -2.413  -3.639  0.00  0.00    -0.469 OA
ENDBRANCH  17  18
BRANCH  17  23
ATOM     23  N   UNL     1       0.668  -0.248  -2.013  0.00  0.00    +0.387 N 
ATOM     24  H   UNL     1       0.511  -0.251  -3.010  0.00  0.00    -0.081 HD
BRANCH  23  26
ATOM     25  C   UNL     1      -0.388   1.960  -1.922  0.00  0.00    -0.017 C 
ATOM     26  C   UNL     1      -0.383   0.539  -1.354  0.00  0.00    -0.081 C 
ENDBRANCH  23  26
BRANCH  23  27
ATOM     27  C   UNL     1       1.979   0.348  -1.725  0.00  0.00    -0.081 C 
ATOM     28  C   UNL     1       3.052  -0.353  -2.561  0.00  0.00    -0.017 C 
ENDBRANCH  23  27
ENDBRANCH  17  23
ENDBRANCH  16  17
ENDBRANCH   1  16
TORSDOF 7
