REMARK  Name = ZINC39654210
REMARK  7 active torsions:
REMARK  status: ('A' for Active; 'I' for Inactive)
REMARK    1  A    between atoms: C_1  and  C_2
REMARK    2  A    between atoms: C_2  and  C_3
REMARK    3  A    between atoms: C_6  and  C_9
REMARK    4  A    between atoms: C_9  and  C_10
REMARK    5  A    between atoms: C_10  and  N_11
REMARK    6  A    between atoms: C_12  and  C_14
REMARK    7  A    between atoms: C_25  and  C_27
REMARK                            x       y       z     vdW  Elec       q    Type
REMARK                         _______ _______ _______ _____ _____    ______ ____
ROOT
ATOM      1  C   UNL     1       5.207  -0.837   8.819  0.00  0.00    +0.100 C 
ATOM      2  C   UNL     1       6.407  -1.718   8.406  0.00  0.00    +0.121 C 
ATOM      3  N   UNL     1       7.566  -0.793   8.399  0.00  0.00    -0.296 N 
ATOM      4  C   UNL     1       7.347   0.079   9.578  0.00  0.00    +0.115 C 
ATOM      5  C   UNL     1       5.828   0.339   9.591  0.00  0.00    -0.004 C 
ATOM      6  C   UNL     1       5.308   0.362  11.026  0.00  0.00    -0.010 C 
ATOM      7  C   UNL     1       5.894   1.574  11.757  0.00  0.00    -0.082 C 
ATOM      8  N   UNL     1       5.508   2.804  11.055  0.00  0.00    +0.379 N 
ATOM      9  C   UNL     1       6.090   2.816   9.708  0.00  0.00    -0.082 C 
ATOM     10  C   UNL     1       5.513   1.657   8.890  0.00  0.00    -0.010 C 
ATOM     11  C   UNL     1       8.587  -0.755   7.521  0.00  0.00    +0.249 C 
ATOM     12  O   UNL     1       9.470   0.070   7.652  0.00  0.00    -0.270 OA
ATOM     13  H   UNL     1       4.503   2.849  10.986  0.00  0.00    -0.086 HD
ATOM     14  H   UNL     1       5.843   3.604  11.572  0.00  0.00    -0.086 HD
ENDROOT
BRANCH  11  15
ATOM     15  C   UNL     1       8.633  -1.714   6.399  0.00  0.00    +0.073 A 
ATOM     16  C   UNL     1       8.039  -1.394   5.176  0.00  0.00    +0.054 A 
ATOM     17  C   UNL     1       8.087  -2.296   4.132  0.00  0.00    +0.021 A 
ATOM     18  C   UNL     1       8.720  -3.515   4.295  0.00  0.00    +0.003 A 
ATOM     19  C   UNL     1       9.310  -3.840   5.503  0.00  0.00    +0.021 A 
ATOM     20  C   UNL     1       9.276  -2.945   6.555  0.00  0.00    +0.054 A 
ATOM     21 CL   UNL     1      10.024  -3.352   8.068  0.00  0.00    -0.083 Cl
ATOM     22 CL   UNL     1       7.242   0.135   4.970  0.00  0.00    -0.083 Cl
ENDBRANCH  11  15
BRANCH   1  24
ATOM     23  N   UNL     1       3.176   0.001   7.682  0.00  0.00    -0.315 N 
ATOM     24  C   UNL     1       4.478  -0.337   7.598  0.00  0.00    +0.218 C 
ATOM     25  O   UNL     1       5.064  -0.238   6.541  0.00  0.00    -0.275 OA
ATOM     26  H   UNL     1       2.708  -0.078   8.528  0.00  0.00    +0.149 HD
BRANCH  23  27
ATOM     27  C   UNL     1       2.468   0.487   6.495  0.00  0.00    +0.109 C 
BRANCH  27  28
ATOM     28  C   UNL     1       1.015   0.797   6.860  0.00  0.00    +0.054 C 
BRANCH  28  32
ATOM     29  C   UNL     1      -1.053   2.215   3.402  0.00  0.00    -0.048 A 
ATOM     30  C   UNL     1      -1.026   0.862   3.685  0.00  0.00    +0.004 A 
ATOM     31  C   UNL     1      -0.357   0.403   4.804  0.00  0.00    +0.004 A 
ATOM     32  C   UNL     1       0.286   1.297   5.640  0.00  0.00    -0.046 A 
ATOM     33  C   UNL     1       0.260   2.650   5.356  0.00  0.00    +0.004 A 
ATOM     34  C   UNL     1      -0.405   3.108   4.235  0.00  0.00    +0.004 A 
BRANCH  29  36
ATOM     35  C   UNL     1      -0.825   2.739   0.989  0.00  0.00    +0.009 C 
ATOM     36  C   UNL     1      -1.782   2.715   2.182  0.00  0.00    +0.032 C 
ENDBRANCH  29  36
ENDBRANCH  28  32
ENDBRANCH  27  28
ENDBRANCH  23  27
ENDBRANCH   1  24
TORSDOF 6
