REMARK  Name = ZINC42321381
REMARK  6 active torsions:
REMARK  status: ('A' for Active; 'I' for Inactive)
REMARK    1  A    between atoms: C_1  and  C_2
REMARK    2  A    between atoms: C_2  and  C_3
REMARK    3  A    between atoms: C_2  and  C_4
REMARK    4  A    between atoms: N_9  and  C_10
REMARK    5  A    between atoms: C_13  and  N_19
REMARK    6  A    between atoms: C_14  and  C_16
REMARK                            x       y       z     vdW  Elec       q    Type
REMARK                         _______ _______ _______ _____ _____    ______ ____
ROOT
ATOM      1  C   UNL     1       1.032  -2.218   5.599  0.00  0.00    +0.034 A 
ATOM      2  C   UNL     1       2.353  -1.784   5.664  0.00  0.00    +0.025 A 
ATOM      3  C   UNL     1       3.210  -2.299   6.614  0.00  0.00    +0.025 A 
ATOM      4  C   UNL     1       2.760  -3.257   7.514  0.00  0.00    +0.037 A 
ATOM      5  C   UNL     1       1.430  -3.699   7.455  0.00  0.00    +0.059 A 
ATOM      6  C   UNL     1       0.567  -3.167   6.492  0.00  0.00    +0.038 A 
ENDROOT
BRANCH   1  12
ATOM      7  C   UNL     1       0.597  -0.706   1.173  0.00  0.00    +0.053 A 
ATOM      8  C   UNL     1       1.862  -1.174   1.050  0.00  0.00    +0.072 A 
ATOM      9  S   UNL     1       2.136  -1.831   2.688  0.00  0.00    -0.060 S 
ATOM     10  C   UNL     1       0.635  -1.447   3.346  0.00  0.00    +0.163 A 
ATOM     11  N   UNL     1       0.012  -0.857   2.348  0.00  0.00    -0.229 NA
ATOM     12  N   UNL     1       0.171  -1.689   4.630  0.00  0.00    -0.294 N 
ATOM     13  H   UNL     1      -0.752  -1.492   4.857  0.00  0.00    +0.154 HD
BRANCH   7  15
ATOM     14  C   UNL     1       0.269   1.444  -0.018  0.00  0.00    +0.014 C 
ATOM     15  C   UNL     1      -0.111  -0.038   0.023  0.00  0.00    +0.032 C 
ATOM     16  C   UNL     1       0.305  -0.707  -1.289  0.00  0.00    +0.014 C 
ENDBRANCH   7  15
ENDBRANCH   1  12
BRANCH   5  17
ATOM     17  C   UNL     1       0.943  -4.715   8.405  0.00  0.00    +0.243 C 
ATOM     18  O   UNL     1       1.716  -5.235   9.188  0.00  0.00    -0.270 OA
ATOM     19  N   UNL     1      -0.358  -5.067   8.408  0.00  0.00    -0.325 N 
ATOM     20  H   UNL     1      -0.974  -4.652   7.784  0.00  0.00    +0.145 HD
ATOM     21  H   UNL     1      -0.678  -5.736   9.034  0.00  0.00    +0.145 HD
ENDBRANCH   5  17
BRANCH   4  22
ATOM     22  N   UNL     1       3.625  -3.776   8.471  0.00  0.00    -0.357 N 
ATOM     23  H   UNL     1       4.503  -3.383   8.595  0.00  0.00    +0.142 HD
ATOM     24  H   UNL     1       3.351  -4.532   9.014  0.00  0.00    +0.142 HD
ENDBRANCH   4  22
TORSDOF 4
