REMARK  Name = ZINC20728407
REMARK  5 active torsions:
REMARK  status: ('A' for Active; 'I' for Inactive)
REMARK    1  A    between atoms: C_1  and  O_2
REMARK    2  A    between atoms: O_2  and  C_3
REMARK    3  A    between atoms: C_3  and  C_5
REMARK    4  A    between atoms: C_9  and  N_11
REMARK    5  A    between atoms: C_23  and  C_25
REMARK                            x       y       z     vdW  Elec       q    Type
REMARK                         _______ _______ _______ _____ _____    ______ ____
ROOT
ATOM      1  N   UNL     1      -4.851  -4.578   0.112  0.00  0.00    -0.269 N 
ATOM      2  C   UNL     1      -4.499  -5.865  -0.073  0.00  0.00    +0.307 C 
ATOM      3  O   UNL     1      -3.328  -6.162  -0.213  0.00  0.00    -0.252 OA
ATOM      4  N   UNL     1      -5.445  -6.825  -0.102  0.00  0.00    -0.272 N 
ATOM      5  C   UNL     1      -6.873  -6.479  -0.028  0.00  0.00    +0.116 C 
ATOM      6  C   UNL     1      -7.465  -7.056   1.263  0.00  0.00    +0.076 C 
ATOM      7  C   UNL     1      -6.991  -8.479   1.423  0.00  0.00    +0.066 A 
ATOM      8  C   UNL     1      -5.931  -9.007   0.774  0.00  0.00    +0.064 A 
ATOM      9  N   UNL     1      -5.815 -10.301   1.178  0.00  0.00    -0.346 N 
ATOM     10  H   UNL     1      -5.144 -10.938   0.886  0.00  0.00    +0.167 HD
ATOM     11  C   UNL     1      -6.813 -10.530   2.062  0.00  0.00    +0.197 A 
ATOM     12  N   UNL     1      -7.512  -9.434   2.201  0.00  0.00    -0.240 NA
ATOM     13  C   UNL     1      -5.076  -8.248  -0.215  0.00  0.00    +0.159 C 
ATOM     14  H   UNL     1      -5.785  -4.341   0.224  0.00  0.00    +0.156 HD
ENDROOT
BRANCH  13  15
ATOM     15  C   UNL     1      -5.346  -8.738  -1.615  0.00  0.00    +0.014 A 
ATOM     16  C   UNL     1      -6.573  -9.290  -1.929  0.00  0.00    +0.010 A 
ATOM     17  C   UNL     1      -6.822  -9.740  -3.212  0.00  0.00    +0.016 A 
ATOM     18  C   UNL     1      -5.842  -9.638  -4.184  0.00  0.00    +0.021 A 
ATOM     19  C   UNL     1      -4.613  -9.086  -3.871  0.00  0.00    +0.054 A 
ATOM     20  C   UNL     1      -4.366  -8.630  -2.587  0.00  0.00    +0.130 A 
ATOM     21  F   UNL     1      -3.168  -8.086  -2.282  0.00  0.00    -0.205 F 
ATOM     22 BR   UNL     1      -6.183 -10.254  -5.939  0.00  0.00    -0.050 Br
ENDBRANCH  13  15
BRANCH   1  27
ATOM     23  C   UNL     1      -3.185  -1.309  -0.254  0.00  0.00    +0.061 A 
ATOM     24  C   UNL     1      -1.905  -1.618   0.212  0.00  0.00    +0.015 A 
ATOM     25  C   UNL     1      -1.617  -2.898   0.638  0.00  0.00    +0.003 A 
ATOM     26  C   UNL     1      -2.592  -3.879   0.606  0.00  0.00    +0.023 A 
ATOM     27  C   UNL     1      -3.868  -3.581   0.144  0.00  0.00    +0.036 A 
ATOM     28  C   UNL     1      -4.170  -2.297  -0.282  0.00  0.00    +0.038 A 
BRANCH  23  29
ATOM     29  C   UNL     1      -3.497   0.061  -0.710  0.00  0.00    +0.339 C 
ATOM     30  O   UNL     1      -4.612   0.329  -1.111  0.00  0.00    -0.245 OA
BRANCH  29  32
ATOM     31  C   UNL     1      -2.916   2.316  -1.138  0.00  0.00    +0.280 C 
ATOM     32  O   UNL     1      -2.544   1.014  -0.682  0.00  0.00    -0.464 OA
ENDBRANCH  29  32
ENDBRANCH  23  29
ENDBRANCH   1  27
TORSDOF 4
