REMARK  Name = ZINC42183327
REMARK  10 active torsions:
REMARK  status: ('A' for Active; 'I' for Inactive)
REMARK    1  A    between atoms: C_1  and  C_2
REMARK    2  A    between atoms: C_2  and  C_3
REMARK    3  A    between atoms: N_5  and  C_6
REMARK    4  A    between atoms: C_9  and  C_12
REMARK    5  A    between atoms: C_12  and  C_14
REMARK    6  A    between atoms: C_12  and  N_15
REMARK    7  A    between atoms: N_15  and  C_16
REMARK    8  A    between atoms: C_16  and  C_18
REMARK    9  A    between atoms: C_16  and  C_19
REMARK   10  A    between atoms: N_21  and  C_22
REMARK                            x       y       z     vdW  Elec       q    Type
REMARK                         _______ _______ _______ _____ _____    ______ ____
ROOT
ATOM      1  N   UNL     1       4.678  -4.585  -5.644  0.00  0.00    +0.391 N 
ATOM      2  H   UNL     1       5.251  -4.379  -4.840  0.00  0.00    -0.084 HD
ATOM      3  H   UNL     1       4.070  -5.362  -5.434  0.00  0.00    -0.084 HD
ENDROOT
BRANCH   1   4
ATOM      4  C   UNL     1       3.869  -3.407  -5.984  0.00  0.00    -0.043 C 
ATOM      5  C   UNL     1       2.911  -3.757  -7.124  0.00  0.00    -0.009 C 
BRANCH   4   9
ATOM      6  C   UNL     1       1.620  -2.190  -2.559  0.00  0.00    +0.033 A 
ATOM      7  C   UNL     1       2.200  -1.236  -3.386  0.00  0.00    +0.023 A 
ATOM      8  C   UNL     1       2.926  -1.633  -4.492  0.00  0.00    +0.004 A 
ATOM      9  C   UNL     1       3.076  -2.978  -4.776  0.00  0.00    -0.062 A 
ATOM     10  C   UNL     1       2.499  -3.930  -3.955  0.00  0.00    +0.004 A 
ATOM     11  C   UNL     1       1.778  -3.540  -2.844  0.00  0.00    +0.023 A 
BRANCH   6  14
ATOM     12  C   UNL     1       0.922  -2.528  -0.310  0.00  0.00    +0.217 C 
ATOM     13  O   UNL     1       1.528  -3.579  -0.292  0.00  0.00    -0.275 OA
ATOM     14  N   UNL     1       0.884  -1.791  -1.438  0.00  0.00    -0.286 N 
ATOM     15  H   UNL     1       0.346  -0.985  -1.472  0.00  0.00    +0.155 HD
BRANCH  12  17
ATOM     16  C   UNL     1       0.412  -3.059   2.058  0.00  0.00    +0.013 C 
ATOM     17  C   UNL     1       0.213  -2.046   0.930  0.00  0.00    +0.093 C 
ENDBRANCH  12  17
ENDBRANCH   6  14
ENDBRANCH   4   9
ENDBRANCH   1   4
BRANCH   1  18
ATOM     18  C   UNL     1       5.540  -4.931  -6.783  0.00  0.00    +0.014 C 
ATOM     19  C   UNL     1       6.546  -3.804  -7.022  0.00  0.00    -0.004 C 
BRANCH  18  20
ATOM     20  C   UNL     1       6.280  -6.209  -6.482  0.00  0.00    +0.203 C 
ATOM     21  O   UNL     1       6.106  -6.776  -5.424  0.00  0.00    -0.277 OA
ATOM     22  N   UNL     1       7.134  -6.722  -7.390  0.00  0.00    -0.286 N 
ATOM     23  H   UNL     1       7.323  -6.236  -8.207  0.00  0.00    +0.155 HD
BRANCH  22  24
ATOM     24  C   UNL     1       7.749  -7.958  -7.152  0.00  0.00    +0.052 A 
ATOM     25  C   UNL     1       8.102  -8.322  -5.859  0.00  0.00    +0.027 A 
ATOM     26  C   UNL     1       8.709  -9.540  -5.627  0.00  0.00    +0.040 A 
ATOM     27  C   UNL     1       8.965 -10.401  -6.681  0.00  0.00    +0.125 A 
ATOM     28  C   UNL     1       8.614 -10.041  -7.971  0.00  0.00    +0.060 A 
ATOM     29  C   UNL     1       8.001  -8.825  -8.208  0.00  0.00    +0.065 A 
ATOM     30 CL   UNL     1       7.554  -8.377  -9.825  0.00  0.00    -0.082 Cl
ATOM     31  F   UNL     1       9.558 -11.592  -6.451  0.00  0.00    -0.205 F 
ENDBRANCH  22  24
ENDBRANCH  18  20
ENDBRANCH   1  18
TORSDOF 7
