REMARK  Name = ZINC26573040
REMARK  7 active torsions:
REMARK  status: ('A' for Active; 'I' for Inactive)
REMARK    1  A    between atoms: C_2  and  C_3
REMARK    2  A    between atoms: C_3  and  N_4
REMARK    3  A    between atoms: N_14  and  C_17
REMARK    4  A    between atoms: C_17  and  C_18
REMARK    5  A    between atoms: C_17  and  C_25
REMARK    6  A    between atoms: N_32  and  C_33
REMARK    7  A    between atoms: C_33  and  C_34
REMARK                            x       y       z     vdW  Elec       q    Type
REMARK                         _______ _______ _______ _____ _____    ______ ____
ROOT
ATOM      1  N   UNL     1       0.604   1.566   1.193  0.00  0.00    -0.311 N 
ATOM      2  C   UNL     1       0.502   0.206   0.978  0.00  0.00    +0.199 A 
ATOM      3  N   UNL     1      -0.694  -0.371   0.933  0.00  0.00    -0.300 N 
ATOM      4  C   UNL     1      -0.793  -1.680   0.720  0.00  0.00    +0.199 A 
ATOM      5  N   UNL     1       0.306  -2.412   0.562  0.00  0.00    -0.183 NA
ATOM      6  C   UNL     1       1.502  -1.835   0.613  0.00  0.00    +0.224 A 
ATOM      7  N   UNL     1       1.600  -0.526   0.820  0.00  0.00    -0.183 NA
ATOM      8  N   UNL     1       2.642  -2.595   0.449  0.00  0.00    -0.297 N 
ATOM      9  C   UNL     1       3.466  -2.079  -0.653  0.00  0.00    +0.123 C 
ATOM     10  C   UNL     1       4.755  -2.898  -0.750  0.00  0.00    +0.104 C 
ATOM     11  N   UNL     1       4.419  -4.312  -0.967  0.00  0.00    -0.289 NA
ATOM     12  C   UNL     1       3.595  -4.829   0.136  0.00  0.00    +0.104 C 
ATOM     13  C   UNL     1       2.306  -4.010   0.233  0.00  0.00    +0.123 C 
ATOM     14  N   UNL     1      -2.035  -2.279   0.667  0.00  0.00    -0.311 N 
ATOM     15  H   UNL     1       1.594   2.043   1.239  0.00  0.00    +0.149 HD
ATOM     16  H   UNL     1      -2.116  -3.362   0.496  0.00  0.00    +0.149 HD
ATOM     17  H   UNL     1      -1.603   0.233   1.072  0.00  0.00    +0.171 HD
ENDROOT
BRANCH   1  18
ATOM     18  C   UNL     1      -0.606   2.374   1.360  0.00  0.00    +0.131 C 
BRANCH  18  20
ATOM     19  C   UNL     1      -0.713   4.749   0.804  0.00  0.00    +0.005 C 
ATOM     20  C   UNL     1      -0.222   3.814   1.580  0.00  0.00    -0.016 C 
ENDBRANCH  18  20
ENDBRANCH   1  18
BRANCH  11  21
ATOM     21  C   UNL     1       5.632  -5.121  -1.141  0.00  0.00    +0.117 C 
BRANCH  21  22
ATOM     22  C   UNL     1       5.247  -6.558  -1.386  0.00  0.00    -0.026 A 
ATOM     23  C   UNL     1       4.215  -6.857  -2.255  0.00  0.00    +0.008 A 
ATOM     24  C   UNL     1       3.865  -8.174  -2.484  0.00  0.00    +0.038 A 
ATOM     25  C   UNL     1       4.541  -9.193  -1.834  0.00  0.00    +0.123 A 
ATOM     26  C   UNL     1       5.571  -8.891  -0.960  0.00  0.00    +0.038 A 
ATOM     27  C   UNL     1       5.923  -7.574  -0.737  0.00  0.00    +0.008 A 
ATOM     28  F   UNL     1       4.196 -10.481  -2.054  0.00  0.00    -0.205 F 
ENDBRANCH  21  22
BRANCH  21  29
ATOM     29  C   UNL     1       6.416  -4.603  -2.319  0.00  0.00    -0.026 A 
ATOM     30  C   UNL     1       5.764  -4.282  -3.495  0.00  0.00    +0.008 A 
ATOM     31  C   UNL     1       6.482  -3.802  -4.574  0.00  0.00    +0.038 A 
ATOM     32  C   UNL     1       7.855  -3.654  -4.481  0.00  0.00    +0.123 A 
ATOM     33  C   UNL     1       8.508  -3.981  -3.305  0.00  0.00    +0.038 A 
ATOM     34  C   UNL     1       7.788  -4.455  -2.225  0.00  0.00    +0.008 A 
ATOM     35  F   UNL     1       8.558  -3.189  -5.538  0.00  0.00    -0.205 F 
ENDBRANCH  21  29
ENDBRANCH  11  21
BRANCH  14  36
ATOM     36  C   UNL     1      -3.245  -1.472   0.841  0.00  0.00    +0.131 C 
BRANCH  36  37
ATOM     37  C   UNL     1      -4.459  -2.359   0.741  0.00  0.00    -0.016 C 
ATOM     38  C   UNL     1      -5.339  -2.377   1.712  0.00  0.00    +0.005 C 
ENDBRANCH  36  37
ENDBRANCH  14  36
TORSDOF 7
