REMARK  Name = ZINC22594105
REMARK  16 active torsions:
REMARK  status: ('A' for Active; 'I' for Inactive)
REMARK    1  A    between atoms: C_1  and  C_2
REMARK    2  A    between atoms: C_2  and  N_3
REMARK    3  A    between atoms: N_3  and  C_4
REMARK    4  A    between atoms: N_3  and  C_6
REMARK    5  A    between atoms: C_4  and  C_5
REMARK    6  A    between atoms: C_6  and  C_7
REMARK    7  A    between atoms: C_7  and  N_8
REMARK    8  A    between atoms: C_9  and  C_11
REMARK    9  A    between atoms: N_13  and  C_14
REMARK   10  A    between atoms: C_14  and  C_15
REMARK   11  A    between atoms: C_15  and  C_17
REMARK   12  A    between atoms: C_15  and  N_26
REMARK   13  A    between atoms: C_20  and  N_23
REMARK   14  A    between atoms: N_23  and  C_24
REMARK   15  A    between atoms: N_23  and  C_25
REMARK   16  A    between atoms: N_29  and  C_32
REMARK                            x       y       z     vdW  Elec       q    Type
REMARK                         _______ _______ _______ _____ _____    ______ ____
ROOT
ATOM      1  C   UNL     1      -2.427   2.414  -3.825  0.00  0.00    +0.104 C 
ENDROOT
BRANCH   1   2
ATOM      2  N   UNL     1      -1.856   1.596  -2.747  0.00  0.00    -0.297 NA
ATOM      3  C   UNL     1      -1.739   0.190  -3.158  0.00  0.00    +0.066 C 
ATOM      4  C   UNL     1      -1.068  -0.612  -2.040  0.00  0.00    -0.064 C 
ATOM      5  N   UNL     1      -1.862  -0.491  -0.810  0.00  0.00    +0.379 N 
ATOM      6  C   UNL     1      -1.980   0.915  -0.399  0.00  0.00    -0.064 C 
ATOM      7  C   UNL     1      -2.651   1.717  -1.516  0.00  0.00    +0.066 C 
ATOM      8  C   UNL     1      -1.290  -1.309   0.268  0.00  0.00    -0.096 C 
ATOM      9  H   UNL     1      -2.874  -0.869  -1.019  0.00  0.00    -0.082 HD
ENDBRANCH   1   2
BRANCH   1  10
ATOM     10  C   UNL     1      -2.557   3.841  -3.358  0.00  0.00    -0.029 A 
ATOM     11  C   UNL     1      -1.559   4.407  -2.586  0.00  0.00    +0.007 A 
ATOM     12  C   UNL     1      -1.672   5.716  -2.161  0.00  0.00    +0.023 A 
ATOM     13  C   UNL     1      -2.795   6.461  -2.500  0.00  0.00    +0.029 A 
ATOM     14  C   UNL     1      -3.798   5.887  -3.271  0.00  0.00    +0.023 A 
ATOM     15  C   UNL     1      -3.676   4.579  -3.698  0.00  0.00    +0.007 A 
BRANCH  13  16
ATOM     16  N   UNL     1      -2.915   7.783  -2.067  0.00  0.00    -0.336 N 
ATOM     17  C   UNL     1      -4.154   8.525  -2.313  0.00  0.00    +0.129 C 
ATOM     18  C   UNL     1      -1.801   8.429  -1.367  0.00  0.00    +0.129 C 
ENDBRANCH  13  16
ENDBRANCH   1  10
BRANCH   1  19
ATOM     19  C   UNL     1      -1.510   2.359  -5.048  0.00  0.00    +0.128 C 
BRANCH  19  22
ATOM     20  C   UNL     1      -1.558   3.065  -7.380  0.00  0.00    +0.299 C 
ATOM     21  O   UNL     1      -0.508   2.479  -7.548  0.00  0.00    -0.265 OA
ATOM     22  N   UNL     1      -2.142   3.065  -6.165  0.00  0.00    -0.306 N 
ATOM     23  H   UNL     1      -3.093   3.595  -6.013  0.00  0.00    +0.149 HD
BRANCH  20  25
ATOM     24  N   UNL     1      -1.618   3.785  -9.734  0.00  0.00    -0.309 N 
ATOM     25  C   UNL     1      -2.203   3.785  -8.519  0.00  0.00    +0.299 C 
ATOM     26  O   UNL     1      -3.252   4.370  -8.351  0.00  0.00    -0.265 OA
ATOM     27  H   UNL     1      -0.667   3.254  -9.886  0.00  0.00    +0.149 HD
BRANCH  24  28
ATOM     28  C   UNL     1      -2.251   4.491 -10.851  0.00  0.00    +0.086 C 
BRANCH  28  29
ATOM     29  C   UNL     1      -1.389   4.335 -12.106  0.00  0.00    -0.060 C 
BRANCH  29  30
ATOM     30  N   UNL     1      -2.023   5.043 -13.226  0.00  0.00    +0.380 N 
ATOM     31  H   UNL     1      -3.066   4.700 -13.295  0.00  0.00    -0.082 HD
BRANCH  30  33
ATOM     32  C   UNL     1      -0.607   6.992 -12.789  0.00  0.00    -0.017 C 
ATOM     33  C   UNL     1      -2.039   6.493 -12.991  0.00  0.00    -0.082 C 
ENDBRANCH  30  33
BRANCH  30  34
ATOM     34  C   UNL     1      -1.357   4.722 -14.496  0.00  0.00    -0.082 C 
ATOM     35  C   UNL     1      -2.154   5.324 -15.655  0.00  0.00    -0.017 C 
ENDBRANCH  30  34
ENDBRANCH  29  30
ENDBRANCH  28  29
ENDBRANCH  24  28
ENDBRANCH  20  25
ENDBRANCH  19  22
ENDBRANCH   1  19
TORSDOF 11
