REMARK  Name = ZINC00571513
REMARK  8 active torsions:
REMARK  status: ('A' for Active; 'I' for Inactive)
REMARK    1  A    between atoms: C_1  and  C_2
REMARK    2  A    between atoms: N_10  and  C_11
REMARK    3  A    between atoms: C_11  and  C_12
REMARK    4  A    between atoms: C_12  and  C_14
REMARK    5  A    between atoms: C_12  and  O_21
REMARK    6  A    between atoms: C_14  and  N_50
REMARK    7  A    between atoms: C_15  and  C_16
REMARK    8  A    between atoms: C_15  and  N_50
REMARK                            x       y       z     vdW  Elec       q    Type
REMARK                         _______ _______ _______ _____ _____    ______ ____
ROOT
ATOM      1  C   UNL     1      -6.867   3.802   0.944  0.00  0.00    +0.044 C 
ATOM      2  C   UNL     1      -5.573   3.252   0.404  0.00  0.00    -0.050 A 
ATOM      3  C   UNL     1      -4.402   3.984   0.544  0.00  0.00    +0.005 A 
ATOM      4  C   UNL     1      -3.208   3.498   0.057  0.00  0.00    +0.026 A 
ATOM      5  C   UNL     1      -3.172   2.263  -0.581  0.00  0.00    +0.050 A 
ATOM      6  C   UNL     1      -4.363   1.524  -0.722  0.00  0.00    +0.004 A 
ATOM      7  C   UNL     1      -5.561   2.037  -0.220  0.00  0.00    +0.013 A 
ATOM      8  C   UNL     1      -3.992   0.300  -1.425  0.00  0.00    -0.019 A 
ATOM      9  C   UNL     1      -2.668   0.359  -1.664  0.00  0.00    +0.023 A 
ATOM     10  N   UNL     1      -2.163   1.525  -1.160  0.00  0.00    -0.341 N 
ATOM     11  C   UNL     1      -1.895  -0.731  -2.369  0.00  0.00    +0.054 C 
ATOM     12  C   UNL     1      -2.744  -2.007  -2.374  0.00  0.00    +0.006 C 
ATOM     13  C   UNL     1      -4.151  -1.683  -2.883  0.00  0.00    +0.005 C 
ATOM     14  C   UNL     1      -4.888  -0.840  -1.835  0.00  0.00    +0.037 C 
ENDROOT
BRANCH  10  15
ATOM     15  C   UNL     1      -0.757   1.932  -1.230  0.00  0.00    +0.151 C 
BRANCH  15  16
ATOM     16  C   UNL     1      -0.017   1.425   0.010  0.00  0.00    +0.117 C 
BRANCH  16  17
ATOM     17  O   UNL     1       0.002  -0.004   0.002  0.00  0.00    -0.392 OA
ATOM     18  H   UNL     1       0.442  -0.387  -0.769  0.00  0.00    +0.210 HD
ENDBRANCH  16  17
BRANCH  16  19
ATOM     19  C   UNL     1       1.418   1.954  -0.001  0.00  0.00    -0.049 C 
BRANCH  19  20
ATOM     20  N   UNL     1       2.124   1.461   1.197  0.00  0.00    +0.385 N 
ATOM     21  H   UNL     1       2.131   0.435   1.187  0.00  0.00    -0.085 HD
ATOM     22  H   UNL     1       1.637   1.792   2.038  0.00  0.00    -0.085 HD
BRANCH  20  23
ATOM     23  C   UNL     1       3.513   1.958   1.212  0.00  0.00    -0.007 C 
BRANCH  23  24
ATOM     24  C   UNL     1       4.209   1.439   2.445  0.00  0.00    +0.088 A 
ATOM     25  C   UNL     1       4.894   0.285   2.535  0.00  0.00    +0.042 A 
ATOM     26  C   UNL     1       5.375   0.196   3.861  0.00  0.00    +0.041 A 
ATOM     27  C   UNL     1       4.956   1.302   4.502  0.00  0.00    +0.195 A 
ATOM     28  O   UNL     1       4.255   2.054   3.638  0.00  0.00    -0.470 OA
ENDBRANCH  23  24
ENDBRANCH  20  23
ENDBRANCH  19  20
ENDBRANCH  16  19
ENDBRANCH  15  16
ENDBRANCH  10  15
TORSDOF 7
