REMARK  Name = ZINC38785189
REMARK  9 active torsions:
REMARK  status: ('A' for Active; 'I' for Inactive)
REMARK    1  A    between atoms: C_1  and  C_2
REMARK    2  A    between atoms: C_7  and  N_11
REMARK    3  A    between atoms: C_12  and  C_14
REMARK    4  A    between atoms: C_14  and  S_15
REMARK    5  A    between atoms: S_15  and  C_16
REMARK    6  A    between atoms: C_21  and  C_26
REMARK    7  A    between atoms: C_29  and  C_32
REMARK    8  A    between atoms: C_32  and  C_33
REMARK    9  A    between atoms: C_32  and  C_34
REMARK                            x       y       z     vdW  Elec       q    Type
REMARK                         _______ _______ _______ _____ _____    ______ ____
ROOT
ATOM      1  C   UNL     1      -0.316 -11.259  -1.482  0.00  0.00    +0.182 C 
ATOM      2  N   UNL     1      -0.299 -11.479  -0.178  0.00  0.00    -0.151 NA
ATOM      3  C   UNL     1      -0.370 -12.703   0.344  0.00  0.00    +0.272 C 
ATOM      4  O   UNL     1      -0.353 -12.871   1.553  0.00  0.00    -0.268 OA
ATOM      5  C   UNL     1      -0.474 -13.863  -0.591  0.00  0.00    +0.075 C 
ATOM      6  C   UNL     1      -0.559 -15.195  -0.285  0.00  0.00    -0.015 C 
ATOM      7  C   UNL     1      -0.656 -16.165  -1.441  0.00  0.00    +0.112 C 
ATOM      8  S   UNL     1      -0.613 -15.034  -2.889  0.00  0.00    -0.100 S 
ATOM      9  C   UNL     1      -0.484 -13.493  -2.017  0.00  0.00    +0.112 C 
ATOM     10  N   UNL     1      -0.411 -12.236  -2.382  0.00  0.00    -0.217 NA
ENDROOT
BRANCH   6  11
ATOM     11  C   UNL     1      -0.557 -15.661   1.103  0.00  0.00    -0.020 A 
ATOM     12  C   UNL     1       0.575 -15.473   1.909  0.00  0.00    +0.008 A 
ATOM     13  C   UNL     1       0.568 -15.914   3.214  0.00  0.00    +0.004 A 
ATOM     14  C   UNL     1      -0.553 -16.542   3.731  0.00  0.00    -0.045 A 
ATOM     15  C   UNL     1      -1.676 -16.732   2.943  0.00  0.00    +0.004 A 
ATOM     16  C   UNL     1      -1.689 -16.293   1.637  0.00  0.00    +0.008 A 
BRANCH  14  17
ATOM     17  C   UNL     1      -0.550 -17.021   5.160  0.00  0.00    +0.013 C 
ATOM     18  C   UNL     1      -1.670 -16.323   5.934  0.00  0.00    +0.012 C 
ATOM     19  C   UNL     1      -0.775 -18.534   5.190  0.00  0.00    +0.012 C 
ENDBRANCH  14  17
ENDBRANCH   6  11
BRANCH   1  20
ATOM     20  S   UNL     1      -0.215  -9.596  -2.055  0.00  0.00    -0.079 S 
BRANCH  20  21
ATOM     21  C   UNL     1      -0.101  -8.614  -0.534  0.00  0.00    +0.173 C 
BRANCH  21  23
ATOM     22  N   UNL     1       0.086  -6.228   0.091  0.00  0.00    -0.285 N 
ATOM     23  C   UNL     1      -0.008  -7.152  -0.886  0.00  0.00    +0.227 C 
ATOM     24  O   UNL     1      -0.017  -6.806  -2.048  0.00  0.00    -0.275 OA
ATOM     25  H   UNL     1       0.162  -6.507   1.017  0.00  0.00    +0.155 HD
BRANCH  22  32
ATOM     26  C   UNL     1       0.876   0.786  -3.065  0.00  0.00    +0.073 C 
ATOM     27  C   UNL     1       0.710  -0.571  -2.431  0.00  0.00    +0.076 A 
ATOM     28  N   UNL     1       0.119  -0.860  -1.310  0.00  0.00    -0.244 NA
ATOM     29  C   UNL     1       0.035  -2.125  -0.846  0.00  0.00    +0.079 A 
ATOM     30  C   UNL     1      -0.560  -2.617   0.335  0.00  0.00    +0.031 A 
ATOM     31  C   UNL     1      -0.535  -3.946   0.623  0.00  0.00    +0.025 A 
ATOM     32  C   UNL     1       0.074  -4.865  -0.230  0.00  0.00    +0.035 A 
ATOM     33  C   UNL     1       0.670  -4.416  -1.401  0.00  0.00    +0.040 A 
ATOM     34  C   UNL     1       0.647  -3.075  -1.695  0.00  0.00    +0.041 A 
ATOM     35  S   UNL     1       1.242  -2.056  -3.019  0.00  0.00    -0.072 S 
ENDBRANCH  22  32
ENDBRANCH  21  23
ENDBRANCH  20  21
ENDBRANCH   1  20
TORSDOF 6
