REMARK  Name = ZINC59121283
REMARK  4 active torsions:
REMARK  status: ('A' for Active; 'I' for Inactive)
REMARK    1  A    between atoms: C_3  and  N_23
REMARK    2  A    between atoms: C_6  and  C_7
REMARK    3  A    between atoms: N_8  and  N_9
REMARK    4  A    between atoms: N_9  and  C_10
REMARK                            x       y       z     vdW  Elec       q    Type
REMARK                         _______ _______ _______ _____ _____    ______ ____
ROOT
ATOM      1  C   UNL     1      -1.288  -0.815  -0.031  0.00  0.00    +0.122 C 
ATOM      2  N   UNL     1      -1.422  -2.073   0.439  0.00  0.00    -0.293 N 
ATOM      3  N   UNL     1      -2.287  -0.249  -0.731  0.00  0.00    -0.279 N 
ATOM      4  C   UNL     1      -3.471  -0.916  -0.898  0.00  0.00    +0.163 A 
ATOM      5  N   UNL     1      -3.876  -2.062  -0.357  0.00  0.00    -0.233 NA
ATOM      6  C   UNL     1      -5.051  -2.564  -0.628  0.00  0.00    +0.120 A 
ATOM      7  C   UNL     1      -5.891  -1.902  -1.486  0.00  0.00    +0.068 A 
ATOM      8  S   UNL     1      -4.889  -0.478  -1.895  0.00  0.00    -0.061 S 
ATOM      9  H   UNL     1      -2.168   0.633  -1.119  0.00  0.00    +0.155 HD
ATOM     10  H   UNL     1      -2.276  -2.528   0.370  0.00  0.00    +0.186 HD
ENDROOT
BRANCH   1  16
ATOM     11  C   UNL     1       0.476   0.780  -0.765  0.00  0.00    +0.013 A 
ATOM     12  C   UNL     1       1.636   1.480  -0.519  0.00  0.00    +0.033 A 
ATOM     13  C   UNL     1       2.282   1.351   0.700  0.00  0.00    +0.126 A 
ATOM     14  C   UNL     1       1.769   0.518   1.682  0.00  0.00    +0.033 A 
ATOM     15  C   UNL     1       0.610  -0.190   1.454  0.00  0.00    +0.013 A 
ATOM     16  C   UNL     1      -0.052  -0.065   0.222  0.00  0.00    +0.014 A 
BRANCH  13  17
ATOM     17  N   UNL     1       3.529   2.107   0.956  0.00  0.00    +0.056 N 
ATOM     18  O   UNL     1       4.020   2.900   0.026  0.00  0.00    -0.126 OA
ATOM     19  O   UNL     1       4.146   1.988   2.112  0.00  0.00    -0.126 OA
ENDBRANCH  13  17
ENDBRANCH   1  16
BRANCH   2  20
ATOM     20  N   UNL     1      -0.415  -2.670   0.981  0.00  0.00    -0.259 N 
ATOM     21  H   UNL     1       0.453  -2.238   0.998  0.00  0.00    +0.172 HD
BRANCH  20  22
ATOM     22  C   UNL     1      -0.573  -3.919   1.536  0.00  0.00    +0.046 A 
ATOM     23  C   UNL     1      -1.823  -4.547   1.507  0.00  0.00    +0.026 A 
ATOM     24  C   UNL     1      -1.974  -5.798   2.063  0.00  0.00    +0.017 A 
ATOM     25  C   UNL     1      -0.891  -6.436   2.650  0.00  0.00    +0.018 A 
ATOM     26  C   UNL     1       0.351  -5.818   2.681  0.00  0.00    +0.017 A 
ATOM     27  C   UNL     1       0.516  -4.569   2.124  0.00  0.00    +0.026 A 
ATOM     28 BR   UNL     1      -1.108  -8.153   3.411  0.00  0.00    -0.050 Br
ENDBRANCH  20  22
ENDBRANCH   2  20
TORSDOF 4
