REMARK  Name = ZINC59447232
REMARK  10 active torsions:
REMARK  status: ('A' for Active; 'I' for Inactive)
REMARK    1  A    between atoms: C_1  and  C_2
REMARK    2  A    between atoms: C_5  and  N_9
REMARK    3  A    between atoms: C_10  and  C_12
REMARK    4  A    between atoms: C_12  and  N_13
REMARK    5  A    between atoms: N_13  and  C_14
REMARK    6  A    between atoms: C_14  and  C_15
REMARK    7  A    between atoms: C_15  and  C_16
REMARK    8  A    between atoms: C_16  and  N_17
REMARK    9  A    between atoms: N_17  and  C_18
REMARK   10  A    between atoms: C_21  and  N_24
REMARK                            x       y       z     vdW  Elec       q    Type
REMARK                         _______ _______ _______ _____ _____    ______ ____
ROOT
ATOM      1  N   UNL     1       1.066  -6.838   2.329  0.00  0.00    +0.385 N 
ATOM      2  H   UNL     1       1.964  -6.431   2.541  0.00  0.00    -0.085 HD
ATOM      3  H   UNL     1       0.402  -6.579   3.042  0.00  0.00    -0.085 HD
ENDROOT
BRANCH   1   4
ATOM      4  C   UNL     1       0.601  -6.347   1.025  0.00  0.00    +0.015 C 
BRANCH   4   6
ATOM      5  N   UNL     1       0.059  -4.172  -0.021  0.00  0.00    -0.285 N 
ATOM      6  C   UNL     1       0.473  -4.846   1.070  0.00  0.00    +0.200 C 
ATOM      7  O   UNL     1       0.743  -4.245   2.088  0.00  0.00    -0.278 OA
ATOM      8  H   UNL     1      -0.225  -4.656  -0.812  0.00  0.00    +0.155 HD
BRANCH   5  13
ATOM      9  C   UNL     1      -0.020   1.503   0.010  0.00  0.00    +0.044 C 
ATOM     10  C   UNL     1       0.001  -0.004   0.002  0.00  0.00    -0.048 A 
ATOM     11  C   UNL     1       1.143  -0.676  -0.396  0.00  0.00    +0.020 A 
ATOM     12  C   UNL     1       1.165  -2.058  -0.405  0.00  0.00    +0.040 A 
ATOM     13  C   UNL     1       0.040  -2.772  -0.013  0.00  0.00    +0.062 A 
ATOM     14  C   UNL     1      -1.105  -2.094   0.386  0.00  0.00    +0.040 A 
ATOM     15  C   UNL     1      -1.119  -0.712   0.397  0.00  0.00    +0.020 A 
ATOM     16 BR   UNL     1      -2.640  -3.060   0.920  0.00  0.00    -0.048 Br
ATOM     17 BR   UNL     1       2.727  -2.975  -0.949  0.00  0.00    -0.048 Br
ENDBRANCH   5  13
ENDBRANCH   4   6
ENDBRANCH   1   4
BRANCH   1  18
ATOM     18  C   UNL     1       1.191  -8.301   2.284  0.00  0.00    -0.080 C 
BRANCH  18  19
ATOM     19  C   UNL     1       1.675  -8.813   3.643  0.00  0.00    -0.000 C 
BRANCH  19  20
ATOM     20  C   UNL     1       1.805 -10.337   3.596  0.00  0.00    +0.099 C 
BRANCH  20  21
ATOM     21  N   UNL     1       2.268 -10.827   4.897  0.00  0.00    -0.344 N 
ATOM     22  H   UNL     1       2.440 -10.201   5.618  0.00  0.00    +0.146 HD
BRANCH  21  23
ATOM     23  C   UNL     1       2.463 -12.195   5.099  0.00  0.00    +0.027 A 
ATOM     24  C   UNL     1       2.223 -13.092   4.065  0.00  0.00    +0.025 A 
ATOM     25  C   UNL     1       2.417 -14.445   4.268  0.00  0.00    +0.034 A 
ATOM     26  C   UNL     1       2.849 -14.906   5.498  0.00  0.00    +0.126 A 
ATOM     27  C   UNL     1       3.089 -14.016   6.529  0.00  0.00    +0.034 A 
ATOM     28  C   UNL     1       2.902 -12.662   6.331  0.00  0.00    +0.025 A 
BRANCH  26  29
ATOM     29  N   UNL     1       3.055 -16.356   5.712  0.00  0.00    +0.056 N 
ATOM     30  O   UNL     1       2.846 -17.136   4.811  0.00  0.00    -0.126 OA
ATOM     31  O   UNL     1       3.434 -16.761   6.786  0.00  0.00    -0.126 OA
ENDBRANCH  26  29
ENDBRANCH  21  23
ENDBRANCH  20  21
ENDBRANCH  19  20
ENDBRANCH  18  19
ENDBRANCH   1  18
TORSDOF 9
