REMARK  Name = ZINC17078243
REMARK  2 active torsions:
REMARK  status: ('A' for Active; 'I' for Inactive)
REMARK    1  A    between atoms: C_12  and  C_16
REMARK    2  A    between atoms: N_18  and  C_19
REMARK                            x       y       z     vdW  Elec       q    Type
REMARK                         _______ _______ _______ _____ _____    ______ ____
ROOT
ATOM      1  C   UNL     1      -5.016  -7.131   0.354  0.00  0.00    +0.001 A 
ATOM      2  C   UNL     1      -3.788  -6.486   0.237  0.00  0.00    +0.001 A 
ATOM      3  C   UNL     1      -3.711  -5.123   0.236  0.00  0.00    +0.009 A 
ATOM      4  C   UNL     1      -4.879  -4.365   0.353  0.00  0.00    -0.007 A 
ATOM      5  C   UNL     1      -6.129  -5.017   0.473  0.00  0.00    -0.017 A 
ATOM      6  C   UNL     1      -6.173  -6.420   0.471  0.00  0.00    +0.008 A 
ATOM      7  C   UNL     1      -7.303  -4.249   0.592  0.00  0.00    +0.012 A 
ATOM      8  C   UNL     1      -7.256  -2.893   0.592  0.00  0.00    +0.047 A 
ATOM      9  C   UNL     1      -6.049  -2.195   0.477  0.00  0.00    +0.138 A 
ATOM     10  C   UNL     1      -4.845  -2.901   0.356  0.00  0.00    +0.026 A 
ATOM     11  C   UNL     1      -3.619  -2.213   0.234  0.00  0.00    +0.030 A 
ATOM     12  C   UNL     1      -3.626  -0.828   0.246  0.00  0.00    +0.097 A 
ATOM     13  C   UNL     1      -4.917  -0.132   0.375  0.00  0.00    +0.205 A 
ATOM     14  N   UNL     1      -4.958   1.174   0.383  0.00  0.00    -0.369 N 
ATOM     15  O   UNL     1      -6.057  -0.844   0.483  0.00  0.00    -0.439 OA
ATOM     16  H   UNL     1      -5.923   1.694   0.479  0.00  0.00    +0.159 HD
ATOM     17  H   UNL     1      -4.028   1.754   0.294  0.00  0.00    +0.159 HD
ENDROOT
BRANCH  12  18
ATOM     18  C   UNL     1      -2.373  -0.069   0.127  0.00  0.00    +0.253 C 
ATOM     19  O   UNL     1      -2.395   1.147   0.134  0.00  0.00    -0.270 OA
ATOM     20  N   UNL     1      -1.199  -0.721   0.010  0.00  0.00    -0.280 N 
ATOM     21  H   UNL     1      -1.185  -1.818  -0.070  0.00  0.00    +0.155 HD
BRANCH  20  22
ATOM     22  C   UNL     1       0.002  -0.003  -0.009  0.00  0.00    +0.054 A 
ATOM     23  C   UNL     1       0.054   1.248  -0.608  0.00  0.00    +0.044 A 
ATOM     24  C   UNL     1       1.242   1.956  -0.624  0.00  0.00    +0.043 A 
ATOM     25  C   UNL     1       2.377   1.417  -0.045  0.00  0.00    +0.021 A 
ATOM     26  C   UNL     1       2.328   0.171   0.552  0.00  0.00    +0.023 A 
ATOM     27  C   UNL     1       1.144  -0.541   0.572  0.00  0.00    +0.062 A 
ATOM     28 CL   UNL     1       1.083  -2.105   1.322  0.00  0.00    -0.082 Cl
ATOM     29 CL   UNL     1       1.308   3.521  -1.372  0.00  0.00    -0.083 Cl
ENDBRANCH  20  22
ENDBRANCH  12  18
TORSDOF 2
