REMARK  Name = ZINC27237531
REMARK  13 active torsions:
REMARK  status: ('A' for Active; 'I' for Inactive)
REMARK    1  A    between atoms: C_1  and  C_2
REMARK    2  A    between atoms: C_2  and  O_3
REMARK    3  A    between atoms: O_3  and  C_4
REMARK    4  A    between atoms: C_7  and  C_10
REMARK    5  A    between atoms: C_10  and  C_11
REMARK    6  A    between atoms: C_10  and  C_18
REMARK    7  A    between atoms: C_10  and  O_35
REMARK    8  A    between atoms: C_15  and  C_17
REMARK    9  A    between atoms: C_18  and  C_20
REMARK   10  A    between atoms: C_18  and  O_26
REMARK   11  A    between atoms: C_20  and  N_21
REMARK   12  A    between atoms: O_26  and  C_27
REMARK   13  A    between atoms: C_32  and  C_33
REMARK                            x       y       z     vdW  Elec       q    Type
REMARK                         _______ _______ _______ _____ _____    ______ ____
ROOT
ATOM      1  C   UNL     1       1.131   3.564   0.072  0.00  0.00    +0.151 C 
ENDROOT
BRANCH   1   2
ATOM      2  C   UNL     1       1.366   2.103  -0.212  0.00  0.00    -0.008 A 
ATOM      3  C   UNL     1       2.335   1.723  -1.122  0.00  0.00    +0.007 A 
ATOM      4  C   UNL     1       2.551   0.383  -1.382  0.00  0.00    +0.001 A 
ATOM      5  C   UNL     1       1.797  -0.577  -0.734  0.00  0.00    +0.003 A 
ATOM      6  C   UNL     1       0.827  -0.197   0.175  0.00  0.00    -0.050 A 
ATOM      7  C   UNL     1       0.612   1.143   0.436  0.00  0.00    +0.010 A 
ATOM      8  C   UNL     1       0.005  -1.244   0.882  0.00  0.00    +0.044 C 
ENDBRANCH   1   2
BRANCH   1  12
ATOM      9  C   UNL     1       0.873   5.709  -3.615  0.00  0.00    +0.121 A 
ATOM     10  C   UNL     1      -0.284   5.331  -2.949  0.00  0.00    +0.046 A 
ATOM     11  C   UNL     1      -0.198   4.637  -1.758  0.00  0.00    +0.010 A 
ATOM     12  C   UNL     1       1.040   4.321  -1.228  0.00  0.00    -0.008 A 
ATOM     13  C   UNL     1       2.194   4.702  -1.887  0.00  0.00    +0.010 A 
ATOM     14  C   UNL     1       2.114   5.390  -3.082  0.00  0.00    +0.046 A 
BRANCH   9  15
ATOM     15  O   UNL     1       0.791   6.392  -4.787  0.00  0.00    -0.492 OA
BRANCH  15  17
ATOM     16  C   UNL     1       1.731   7.506  -6.715  0.00  0.00    +0.048 C 
ATOM     17  C   UNL     1       2.023   6.749  -5.418  0.00  0.00    +0.225 C 
ENDBRANCH  15  17
ENDBRANCH   9  15
ENDBRANCH   1  12
BRANCH   1  18
ATOM     18  O   UNL     1      -0.090   3.718   0.799  0.00  0.00    -0.376 OA
ATOM     19  H   UNL     1      -0.211   3.234   1.779  0.00  0.00    +0.211 HD
ENDBRANCH   1  18
BRANCH   1  20
ATOM     20  C   UNL     1       2.292   4.116   0.902  0.00  0.00    +0.198 C 
BRANCH  20  21
ATOM     21  C   UNL     1       2.284   3.463   2.286  0.00  0.00    -0.030 C 
BRANCH  21  22
ATOM     22  N   UNL     1       2.671   2.051   2.164  0.00  0.00    +0.382 N 
ATOM     23  C   UNL     1       4.013   1.919   1.543  0.00  0.00    -0.079 C 
ATOM     24  C   UNL     1       4.463   0.499   1.969  0.00  0.00    -0.020 C 
ATOM     25  C   UNL     1       3.917   0.382   3.410  0.00  0.00    -0.020 C 
ATOM     26  C   UNL     1       2.777   1.414   3.494  0.00  0.00    -0.079 C 
ATOM     27  H   UNL     1       1.889   1.578   1.552  0.00  0.00    -0.082 HD
ENDBRANCH  21  22
ENDBRANCH  20  21
BRANCH  20  28
ATOM     28  O   UNL     1       2.147   5.531   1.042  0.00  0.00    -0.487 OA
BRANCH  28  29
ATOM     29  C   UNL     1       3.272   6.240   1.325  0.00  0.00    +0.124 A 
ATOM     30  C   UNL     1       4.497   5.596   1.409  0.00  0.00    +0.047 A 
ATOM     31  C   UNL     1       5.639   6.319   1.693  0.00  0.00    +0.023 A 
ATOM     32  C   UNL     1       5.559   7.685   1.903  0.00  0.00    +0.041 A 
ATOM     33  C   UNL     1       4.337   8.329   1.825  0.00  0.00    +0.027 A 
ATOM     34  C   UNL     1       3.194   7.609   1.537  0.00  0.00    -0.007 A 
ATOM     35  C   UNL     1       1.863   8.311   1.452  0.00  0.00    +0.047 C 
ATOM     36 CL   UNL     1       6.995   8.591   2.266  0.00  0.00    -0.084 Cl
ENDBRANCH  28  29
ENDBRANCH  20  28
ENDBRANCH   1  20
TORSDOF 10
