REMARK  Name = ZINC12361981
REMARK  7 active torsions:
REMARK  status: ('A' for Active; 'I' for Inactive)
REMARK    1  A    between atoms: C_2  and  C_3
REMARK    2  A    between atoms: C_3  and  N_4
REMARK    3  A    between atoms: C_19  and  S_28
REMARK    4  A    between atoms: C_23  and  N_27
REMARK    5  A    between atoms: C_24  and  C_25
REMARK    6  A    between atoms: S_28  and  C_29
REMARK    7  A    between atoms: C_29  and  C_30
REMARK                            x       y       z     vdW  Elec       q    Type
REMARK                         _______ _______ _______ _____ _____    ______ ____
ROOT
ATOM      1  N   UNL     1       1.491   3.393   0.007  0.00  0.00    -0.258 N 
ATOM      2  C   UNL     1       1.216   2.037   0.001  0.00  0.00    +0.042 A 
ATOM      3  C   UNL     1      -0.017   1.382   0.010  0.00  0.00    +0.024 A 
ATOM      4  C   UNL     1       0.002  -0.004   0.002  0.00  0.00    +0.002 A 
ATOM      5  C   UNL     1       1.182  -0.719  -0.013  0.00  0.00    +0.000 A 
ATOM      6  C   UNL     1       2.417  -0.079  -0.022  0.00  0.00    +0.007 A 
ATOM      7  C   UNL     1       2.405   1.300  -0.015  0.00  0.00    -0.001 A 
ATOM      8  C   UNL     1       3.522   2.299  -0.021  0.00  0.00    +0.145 C 
ATOM      9  C   UNL     1       2.816   3.641  -0.005  0.00  0.00    +0.241 C 
ATOM     10  O   UNL     1       3.345   4.733  -0.004  0.00  0.00    -0.273 OA
ATOM     11  C   UNL     1       4.342   2.172  -1.272  0.00  0.00    +0.081 A 
ATOM     12  C   UNL     1       3.825   2.604  -2.498  0.00  0.00    +0.259 A 
ATOM     13  O   UNL     1       2.707   3.090  -2.565  0.00  0.00    -0.267 OA
ATOM     14  N   UNL     1       4.585   2.475  -3.606  0.00  0.00    -0.302 N 
ATOM     15  H   UNL     1       4.244   2.772  -4.464  0.00  0.00    +0.171 HD
ATOM     16  C   UNL     1       5.830   1.927  -3.521  0.00  0.00    +0.171 A 
ATOM     17  N   UNL     1       6.322   1.520  -2.369  0.00  0.00    -0.208 NA
ATOM     18  C   UNL     1       5.615   1.629  -1.238  0.00  0.00    +0.137 A 
ATOM     19  N   UNL     1       6.157   1.202  -0.039  0.00  0.00    -0.287 N 
ATOM     20  C   UNL     1       5.620   1.625   1.153  0.00  0.00    +0.102 C 
ATOM     21  C   UNL     1       4.371   2.156   1.207  0.00  0.00    +0.089 C 
ATOM     22  H   UNL     1       6.919   0.602  -0.040  0.00  0.00    +0.155 HD
ENDROOT
BRANCH  20  23
ATOM     23  N   UNL     1       6.356   1.507   2.307  0.00  0.00    -0.346 N 
ATOM     24  H   UNL     1       5.983   1.803   3.152  0.00  0.00    +0.144 HD
ATOM     25  H   UNL     1       7.248   1.128   2.276  0.00  0.00    +0.144 HD
ENDBRANCH  20  23
BRANCH  21  26
ATOM     26  C   UNL     1       3.852   2.591   2.469  0.00  0.00    +0.100 C 
ATOM     27  N   UNL     1       3.440   2.936   3.470  0.00  0.00    -0.191 NA
ENDBRANCH  21  26
BRANCH   1  28
ATOM     28  C   UNL     1       0.462   4.436   0.023  0.00  0.00    +0.202 C 
BRANCH  28  30
ATOM     29  C   UNL     1      -0.181   5.079  -2.461  0.00  0.00    +0.005 C 
ATOM     30  C   UNL     1       0.104   4.794  -1.359  0.00  0.00    -0.086 C 
ENDBRANCH  28  30
ENDBRANCH   1  28
BRANCH  16  31
ATOM     31  S   UNL     1       6.801   1.761  -4.981  0.00  0.00    -0.083 S 
BRANCH  31  32
ATOM     32  C   UNL     1       8.290   1.004  -4.284  0.00  0.00    +0.114 C 
BRANCH  32  33
ATOM     33  C   UNL     1       9.292   0.762  -5.383  0.00  0.00    -0.019 A 
ATOM     34  C   UNL     1       9.290  -0.438  -6.069  0.00  0.00    +0.006 A 
ATOM     35  C   UNL     1      10.206  -0.658  -7.080  0.00  0.00    +0.000 A 
ATOM     36  C   UNL     1      11.132   0.318  -7.400  0.00  0.00    +0.001 A 
ATOM     37  C   UNL     1      11.139   1.516  -6.711  0.00  0.00    +0.020 A 
ATOM     38  C   UNL     1      10.218   1.739  -5.702  0.00  0.00    +0.045 A 
ATOM     39 CL   UNL     1      10.226   3.243  -4.836  0.00  0.00    -0.083 Cl
ENDBRANCH  32  33
ENDBRANCH  31  32
ENDBRANCH  16  31
TORSDOF 7
