REMARK  Name = ZINC63821474
REMARK  7 active torsions:
REMARK  status: ('A' for Active; 'I' for Inactive)
REMARK    1  A    between atoms: C_1  and  C_2
REMARK    2  A    between atoms: C_2  and  C_4
REMARK    3  A    between atoms: C_2  and  N_17
REMARK    4  A    between atoms: N_6  and  C_7
REMARK    5  A    between atoms: C_18  and  C_20
REMARK    6  A    between atoms: C_29  and  O_30
REMARK    7  A    between atoms: O_30  and  C_31
REMARK                            x       y       z     vdW  Elec       q    Type
REMARK                         _______ _______ _______ _____ _____    ______ ____
ROOT
ATOM      1  C   UNL     1      -0.019   1.526   0.010  0.00  0.00    +0.038 C 
ATOM      2  C   UNL     1       0.002  -0.004   0.002  0.00  0.00    +0.156 C 
ENDROOT
BRANCH   2   3
ATOM      3  C   UNL     1       0.707  -0.490  -1.238  0.00  0.00    +0.235 C 
ATOM      4  O   UNL     1       1.704  -1.174  -1.140  0.00  0.00    -0.274 OA
ATOM      5  N   UNL     1       0.231  -0.164  -2.456  0.00  0.00    -0.287 N 
ATOM      6  H   UNL     1      -0.566   0.383  -2.534  0.00  0.00    +0.151 HD
BRANCH   5   7
ATOM      7  C   UNL     1       0.917  -0.637  -3.661  0.00  0.00    +0.224 C 
ATOM      8  N   UNL     1       0.097  -0.409  -4.859  0.00  0.00    -0.316 N 
ATOM      9  C   UNL     1       0.609   0.439  -5.839  0.00  0.00    +0.043 A 
ATOM     10  C   UNL     1      -0.029   0.773  -7.047  0.00  0.00    +0.024 A 
ATOM     11  C   UNL     1       0.562   1.623  -7.953  0.00  0.00    +0.002 A 
ATOM     12  C   UNL     1       1.805   2.178  -7.707  0.00  0.00    +0.001 A 
ATOM     13  C   UNL     1       2.456   1.866  -6.525  0.00  0.00    +0.016 A 
ATOM     14  C   UNL     1       1.864   1.016  -5.620  0.00  0.00    +0.032 A 
ATOM     15  S   UNL     1       2.388   0.400  -4.034  0.00  0.00    -0.082 S 
ATOM     16  H   UNL     1      -0.769  -0.834  -4.964  0.00  0.00    +0.149 HD
ENDBRANCH   5   7
ENDBRANCH   2   3
BRANCH   2  17
ATOM     17  N   UNL     1       0.711  -0.489   1.189  0.00  0.00    -0.302 N 
ATOM     18  C   UNL     1       0.051  -0.633   2.355  0.00  0.00    +0.240 C 
ATOM     19  O   UNL     1      -1.129  -0.361   2.423  0.00  0.00    -0.273 OA
ATOM     20  H   UNL     1       1.654  -0.707   1.135  0.00  0.00    +0.150 HD
BRANCH  18  21
ATOM     21  C   UNL     1       0.780  -1.133   3.576  0.00  0.00    +0.190 C 
ATOM     22  C   UNL     1       1.543  -0.001   4.227  0.00  0.00    +0.020 C 
ATOM     23  C   UNL     1       1.037   0.127   5.472  0.00  0.00    +0.038 A 
ATOM     24  C   UNL     1      -0.032  -0.879   5.668  0.00  0.00    +0.047 A 
ATOM     25  N   UNL     1      -0.180  -1.603   4.581  0.00  0.00    -0.370 N 
ATOM     26  C   UNL     1      -0.696  -0.910   6.921  0.00  0.00    +0.026 A 
ATOM     27  C   UNL     1      -0.354  -0.043   7.902  0.00  0.00    +0.006 A 
ATOM     28  C   UNL     1       0.649   0.917   7.747  0.00  0.00    +0.046 A 
ATOM     29  C   UNL     1       1.350   1.036   6.587  0.00  0.00    +0.129 A 
ATOM     30  H   UNL     1      -0.816  -2.325   4.463  0.00  0.00    +0.161 HD
BRANCH  29  31
ATOM     31  O   UNL     1       2.320   1.974   6.461  0.00  0.00    -0.494 OA
ATOM     32  C   UNL     1       2.560   2.815   7.590  0.00  0.00    +0.277 C 
ENDBRANCH  29  31
ENDBRANCH  18  21
ENDBRANCH   2  17
TORSDOF 5
