REMARK  Name = ZINC20255491
REMARK  8 active torsions:
REMARK  status: ('A' for Active; 'I' for Inactive)
REMARK    1  A    between atoms: C_3  and  C_19
REMARK    2  A    between atoms: C_5  and  C_6
REMARK    3  A    between atoms: N_11  and  C_12
REMARK    4  A    between atoms: C_12  and  C_13
REMARK    5  A    between atoms: C_13  and  C_14
REMARK    6  A    between atoms: C_14  and  C_15
REMARK    7  A    between atoms: N_21  and  C_22
REMARK    8  A    between atoms: C_22  and  C_23
REMARK                            x       y       z     vdW  Elec       q    Type
REMARK                         _______ _______ _______ _____ _____    ______ ____
ROOT
ATOM      1  C   UNL     1      -2.447   5.234   4.241  0.00  0.00    +0.010 A 
ATOM      2  C   UNL     1      -1.776   5.070   3.055  0.00  0.00    +0.021 A 
ATOM      3  C   UNL     1      -1.529   3.770   2.643  0.00  0.00    +0.074 A 
ATOM      4  S   UNL     1      -2.272   2.822   3.959  0.00  0.00    -0.090 S 
ATOM      5  C   UNL     1      -2.832   4.135   4.943  0.00  0.00    -0.023 A 
ENDROOT
BRANCH   5   6
ATOM      6  C   UNL     1      -3.572   4.074   6.254  0.00  0.00    -0.031 C 
ATOM      7  C   UNL     1      -5.057   3.752   6.004  0.00  0.00    -0.012 C 
ATOM      8  C   UNL     1      -5.320   2.436   6.772  0.00  0.00    -0.020 C 
ATOM      9  C   UNL     1      -4.186   2.418   7.827  0.00  0.00    -0.078 C 
ATOM     10  N   UNL     1      -3.026   2.982   7.090  0.00  0.00    +0.385 N 
ATOM     11  H   UNL     1      -2.521   2.220   6.478  0.00  0.00    -0.081 HD
BRANCH  10  12
ATOM     12  C   UNL     1      -2.007   3.489   8.019  0.00  0.00    -0.078 C 
BRANCH  12  13
ATOM     13  C   UNL     1      -1.648   2.396   9.027  0.00  0.00    -0.010 C 
BRANCH  13  14
ATOM     14  C   UNL     1      -0.587   2.924   9.995  0.00  0.00    +0.111 C 
BRANCH  14  15
ATOM     15  C   UNL     1      -0.228   1.831  11.004  0.00  0.00    +0.390 C 
ATOM     16  F   UNL     1       0.274   0.716  10.324  0.00  0.00    -0.171 F 
ATOM     17  F   UNL     1       0.743   2.314  11.888  0.00  0.00    -0.171 F 
ATOM     18  F   UNL     1      -1.371   1.464  11.721  0.00  0.00    -0.171 F 
ENDBRANCH  14  15
ENDBRANCH  13  14
ENDBRANCH  12  13
ENDBRANCH  10  12
ENDBRANCH   5   6
BRANCH   3  19
ATOM     19  C   UNL     1      -0.843   3.297   1.437  0.00  0.00    +0.251 C 
ATOM     20  O   UNL     1      -0.399   4.099   0.636  0.00  0.00    -0.270 OA
ATOM     21  N   UNL     1      -0.704   1.975   1.216  0.00  0.00    -0.302 N 
ATOM     22  H   UNL     1      -1.105   1.251   1.940  0.00  0.00    +0.150 HD
BRANCH  21  23
ATOM     23  C   UNL     1      -0.018   1.503   0.010  0.00  0.00    +0.200 C 
BRANCH  23  24
ATOM     24  C   UNL     1       0.002  -0.004   0.002  0.00  0.00    +0.228 C 
ATOM     25  O   UNL     1      -0.506  -0.622   0.913  0.00  0.00    -0.274 OA
ATOM     26  N   UNL     1       0.585  -0.664  -1.018  0.00  0.00    -0.328 N 
ATOM     27  H   UNL     1       0.600  -1.764  -1.024  0.00  0.00    +0.145 HD
ATOM     28  H   UNL     1       1.046  -0.104  -1.844  0.00  0.00    +0.145 HD
ENDBRANCH  23  24
ENDBRANCH  21  23
ENDBRANCH   3  19
TORSDOF 8
