REMARK  Name = ZINC32983919
REMARK  7 active torsions:
REMARK  status: ('A' for Active; 'I' for Inactive)
REMARK    1  A    between atoms: C_1  and  C_2
REMARK    2  A    between atoms: C_2  and  C_4
REMARK    3  A    between atoms: C_2  and  N_28
REMARK    4  A    between atoms: C_4  and  C_5
REMARK    5  A    between atoms: C_5  and  N_6
REMARK    6  A    between atoms: C_7  and  C_9
REMARK    7  A    between atoms: C_19  and  C_20
REMARK                            x       y       z     vdW  Elec       q    Type
REMARK                         _______ _______ _______ _____ _____    ______ ____
ROOT
ATOM      1  C   UNL     1       6.532   0.262  -0.798  0.00  0.00    +0.039 A 
ATOM      2  C   UNL     1       6.630   1.655  -0.800  0.00  0.00    +0.017 A 
ATOM      3  C   UNL     1       5.492   2.428  -0.882  0.00  0.00    +0.049 A 
ATOM      4  C   UNL     1       4.245   1.824  -0.963  0.00  0.00    +0.150 A 
ATOM      5  C   UNL     1       4.138   0.431  -0.963  0.00  0.00    +0.077 A 
ATOM      6  C   UNL     1       5.277  -0.348  -0.880  0.00  0.00    +0.040 A 
ATOM      7  N   UNL     1       2.878  -0.178  -1.046  0.00  0.00    -0.276 N 
ATOM      8  C   UNL     1       1.811   0.576  -1.404  0.00  0.00    +0.284 C 
ATOM      9  O   UNL     1       0.700   0.089  -1.507  0.00  0.00    -0.266 OA
ATOM     10  C   UNL     1       2.046   2.012  -1.659  0.00  0.00    +0.191 C 
ATOM     11  C   UNL     1       1.234   2.724  -2.472  0.00  0.00    +0.061 C 
ATOM     12  O   UNL     1       3.122   2.589  -1.042  0.00  0.00    -0.449 OA
ATOM     13  H   UNL     1       2.770  -1.250  -0.822  0.00  0.00    +0.155 HD
ENDROOT
BRANCH  11  14
ATOM     14  C   UNL     1       1.406   4.180  -2.592  0.00  0.00    -0.003 A 
ATOM     15  C   UNL     1       2.134   4.884  -1.627  0.00  0.00    +0.009 A 
ATOM     16  C   UNL     1       2.296   6.248  -1.750  0.00  0.00    +0.001 A 
ATOM     17  C   UNL     1       1.731   6.923  -2.818  0.00  0.00    +0.001 A 
ATOM     18  C   UNL     1       1.005   6.236  -3.775  0.00  0.00    +0.020 A 
ATOM     19  C   UNL     1       0.838   4.870  -3.670  0.00  0.00    +0.048 A 
ATOM     20 CL   UNL     1      -0.074   4.009  -4.870  0.00  0.00    -0.083 Cl
ENDBRANCH  11  14
BRANCH   1  22
ATOM     21  N   UNL     1       8.961   0.024  -0.630  0.00  0.00    -0.311 N 
ATOM     22  C   UNL     1       7.751  -0.565  -0.710  0.00  0.00    +0.244 C 
ATOM     23  O   UNL     1       7.665  -1.778  -0.708  0.00  0.00    -0.270 OA
ATOM     24  H   UNL     1       9.039   1.121  -0.632  0.00  0.00    +0.149 HD
BRANCH  21  25
ATOM     25  C   UNL     1      10.171  -0.797  -0.542  0.00  0.00    +0.103 C 
BRANCH  25  26
ATOM     26  C   UNL     1      11.399   0.112  -0.464  0.00  0.00    +0.003 C 
BRANCH  26  28
ATOM     27  C   UNL     1      13.880   0.160  -0.169  0.00  0.00    -0.013 C 
ATOM     28  C   UNL     1      12.663  -0.745  -0.372  0.00  0.00    -0.070 C 
BRANCH  28  29
ATOM     29  N   UNL     1      12.826  -1.512  -1.615  0.00  0.00    +0.381 N 
ATOM     30  C   UNL     1      13.197  -0.623  -2.745  0.00  0.00    -0.079 C 
ATOM     31  C   UNL     1      13.824  -1.598  -3.772  0.00  0.00    -0.020 C 
ATOM     32  C   UNL     1      14.595  -2.596  -2.877  0.00  0.00    -0.020 C 
ATOM     33  C   UNL     1      13.928  -2.491  -1.492  0.00  0.00    -0.079 C 
ATOM     34  H   UNL     1      11.861  -2.011  -1.787  0.00  0.00    -0.081 HD
ENDBRANCH  28  29
ENDBRANCH  26  28
ENDBRANCH  25  26
ENDBRANCH  21  25
ENDBRANCH   1  22
TORSDOF 6
