REMARK  Name = ZINC17083837
REMARK  10 active torsions:
REMARK  status: ('A' for Active; 'I' for Inactive)
REMARK    1  A    between atoms: C_1  and  C_2
REMARK    2  A    between atoms: C_4  and  N_20
REMARK    3  A    between atoms: C_7  and  N_8
REMARK    4  A    between atoms: C_9  and  C_11
REMARK    5  A    between atoms: N_20  and  C_21
REMARK    6  A    between atoms: C_21  and  N_23
REMARK    7  A    between atoms: C_24  and  C_26
REMARK    8  A    between atoms: C_26  and  O_27
REMARK    9  A    between atoms: O_27  and  C_28
REMARK   10  A    between atoms: C_33  and  N_34
REMARK                            x       y       z     vdW  Elec       q    Type
REMARK                         _______ _______ _______ _____ _____    ______ ____
ROOT
ATOM      1  C   UNL     1      -4.877   0.256   0.168  0.00  0.00    +0.046 C 
ATOM      2  C   UNL     1      -3.690   1.174   0.024  0.00  0.00    -0.027 A 
ATOM      3  C   UNL     1      -2.411   0.677   0.178  0.00  0.00    +0.028 A 
ATOM      4  C   UNL     1      -1.317   1.522   0.045  0.00  0.00    +0.033 A 
ATOM      5  C   UNL     1      -1.510   2.869  -0.237  0.00  0.00    +0.025 A 
ATOM      6  C   UNL     1      -2.788   3.364  -0.397  0.00  0.00    +0.025 A 
ATOM      7  C   UNL     1      -3.882   2.518  -0.264  0.00  0.00    +0.037 A 
ENDROOT
BRANCH   7   8
ATOM      8  N   UNL     1      -5.179   3.022  -0.420  0.00  0.00    -0.279 N 
ATOM      9  C   UNL     1      -5.408   4.040  -1.273  0.00  0.00    +0.284 C 
ATOM     10  O   UNL     1      -4.481   4.556  -1.868  0.00  0.00    -0.266 OA
ATOM     11  H   UNL     1      -5.913   2.638   0.085  0.00  0.00    +0.155 HD
BRANCH   9  12
ATOM     12  C   UNL     1      -6.778   4.528  -1.484  0.00  0.00    +0.191 A 
ATOM     13  C   UNL     1      -7.127   5.544  -2.315  0.00  0.00    +0.063 A 
ATOM     14  C   UNL     1      -8.579   5.677  -2.205  0.00  0.00    +0.021 A 
ATOM     15  C   UNL     1      -9.527   6.519  -2.792  0.00  0.00    +0.011 A 
ATOM     16  C   UNL     1     -10.848   6.382  -2.467  0.00  0.00    +0.001 A 
ATOM     17  C   UNL     1     -11.252   5.412  -1.560  0.00  0.00    +0.004 A 
ATOM     18  C   UNL     1     -10.333   4.572  -0.970  0.00  0.00    +0.047 A 
ATOM     19  C   UNL     1      -8.984   4.693  -1.284  0.00  0.00    +0.136 A 
ATOM     20  O   UNL     1      -7.880   4.030  -0.885  0.00  0.00    -0.450 OA
ENDBRANCH   9  12
ENDBRANCH   7   8
BRANCH   4  21
ATOM     21  N   UNL     1      -0.020   1.019   0.202  0.00  0.00    -0.297 N 
ATOM     22  H   UNL     1       0.634   1.515   0.719  0.00  0.00    +0.154 HD
BRANCH  21  23
ATOM     23  C   UNL     1       0.319  -0.158  -0.361  0.00  0.00    +0.141 C 
ATOM     24  S   UNL     1      -0.859  -1.078  -1.195  0.00  0.00    -0.018 S 
BRANCH  23  25
ATOM     25  N   UNL     1       1.585  -0.611  -0.267  0.00  0.00    -0.265 N 
ATOM     26  C   UNL     1       1.923  -1.788  -0.830  0.00  0.00    +0.256 C 
ATOM     27  O   UNL     1       1.089  -2.439  -1.421  0.00  0.00    -0.272 OA
ATOM     28  H   UNL     1       2.252  -0.089   0.206  0.00  0.00    +0.157 HD
BRANCH  26  29
ATOM     29  C   UNL     1       3.339  -2.294  -0.724  0.00  0.00    +0.325 C 
BRANCH  29  30
ATOM     30  O   UNL     1       3.446  -3.551  -1.395  0.00  0.00    -0.480 OA
BRANCH  30  31
ATOM     31  C   UNL     1       4.667  -4.148  -1.394  0.00  0.00    +0.151 A 
ATOM     32  C   UNL     1       5.741  -3.534  -0.766  0.00  0.00    +0.048 A 
ATOM     33  C   UNL     1       6.979  -4.145  -0.762  0.00  0.00    +0.004 A 
ATOM     34  C   UNL     1       7.152  -5.364  -1.393  0.00  0.00    +0.002 A 
ATOM     35  C   UNL     1       6.085  -5.975  -2.025  0.00  0.00    +0.036 A 
ATOM     36  C   UNL     1       4.843  -5.370  -2.027  0.00  0.00    +0.168 A 
BRANCH  36  37
ATOM     37  N   UNL     1       3.701  -6.025  -2.703  0.00  0.00    +0.060 N 
ATOM     38  O   UNL     1       3.856  -7.098  -3.259  0.00  0.00    -0.126 OA
ATOM     39  O   UNL     1       2.607  -5.491  -2.705  0.00  0.00    -0.126 OA
ENDBRANCH  36  37
ENDBRANCH  30  31
ENDBRANCH  29  30
ENDBRANCH  26  29
ENDBRANCH  23  25
ENDBRANCH  21  23
ENDBRANCH   4  21
TORSDOF 9
