REMARK  Name = ZINC63552153
REMARK  6 active torsions:
REMARK  status: ('A' for Active; 'I' for Inactive)
REMARK    1  A    between atoms: C_1  and  C_2
REMARK    2  A    between atoms: C_8  and  C_11
REMARK    3  A    between atoms: C_11  and  C_12
REMARK    4  A    between atoms: C_12  and  N_13
REMARK    5  A    between atoms: C_14  and  C_16
REMARK    6  A    between atoms: C_19  and  C_22
REMARK                            x       y       z     vdW  Elec       q    Type
REMARK                         _______ _______ _______ _____ _____    ______ ____
ROOT
ATOM      1  N   UNL     1      -1.377  -2.600   5.613  0.00  0.00    -0.313 N 
ATOM      2  C   UNL     1      -2.537  -2.599   6.299  0.00  0.00    +0.237 C 
ATOM      3  O   UNL     1      -3.583  -2.808   5.722  0.00  0.00    -0.274 OA
ATOM      4  H   UNL     1      -0.540  -2.433   6.075  0.00  0.00    +0.149 HD
ENDROOT
BRANCH   2   5
ATOM      5  C   UNL     1      -2.534  -2.338   7.783  0.00  0.00    +0.204 C 
ATOM      6  C   UNL     1      -2.492  -0.849   8.068  0.00  0.00    +0.053 C 
ATOM      7  C   UNL     1      -3.393  -0.591   9.012  0.00  0.00    +0.153 C 
ATOM      8  O   UNL     1      -4.040  -1.713   9.417  0.00  0.00    -0.405 OA
ATOM      9  N   UNL     1      -3.823  -2.756   8.394  0.00  0.00    -0.139 NA
ATOM     10  H   UNL     1      -4.565  -2.751   7.710  0.00  0.00    +0.168 HD
BRANCH   7  11
ATOM     11  C   UNL     1      -3.658   0.760   9.556  0.00  0.00    +0.019 A 
ATOM     12  C   UNL     1      -2.948   1.860   9.076  0.00  0.00    +0.013 A 
ATOM     13  C   UNL     1      -3.200   3.117   9.587  0.00  0.00    +0.021 A 
ATOM     14  C   UNL     1      -4.155   3.287  10.575  0.00  0.00    +0.041 A 
ATOM     15  C   UNL     1      -4.863   2.198  11.056  0.00  0.00    +0.021 A 
ATOM     16  C   UNL     1      -4.623   0.938  10.547  0.00  0.00    +0.013 A 
ATOM     17 CL   UNL     1      -4.466   4.871  11.213  0.00  0.00    -0.084 Cl
ENDBRANCH   7  11
ENDBRANCH   2   5
BRANCH   1  18
ATOM     18  C   UNL     1      -1.379  -2.854   4.170  0.00  0.00    +0.108 C 
BRANCH  18  19
ATOM     19  C   UNL     1       0.055  -2.799   3.641  0.00  0.00    +0.052 C 
BRANCH  19  27
ATOM     20  C   UNL     1      -0.018   1.503   0.010  0.00  0.00    +0.044 C 
ATOM     21  C   UNL     1       0.002  -0.004   0.002  0.00  0.00    -0.050 A 
ATOM     22  C   UNL     1       0.005  -0.680  -1.226  0.00  0.00    +0.005 A 
ATOM     23  C   UNL     1       0.023  -2.026  -1.317  0.00  0.00    +0.026 A 
ATOM     24  C   UNL     1       0.039  -2.826  -0.141  0.00  0.00    +0.043 A 
ATOM     25  N   UNL     1       0.057  -4.126   0.030  0.00  0.00    -0.380 N 
ATOM     26  C   UNL     1       0.067  -4.408   1.470  0.00  0.00    +0.144 C 
ATOM     27  C   UNL     1       0.052  -3.060   2.156  0.00  0.00    -0.040 C 
ATOM     28  C   UNL     1       0.036  -2.137   1.168  0.00  0.00    -0.001 A 
ATOM     29  C   UNL     1       0.022  -0.669   1.180  0.00  0.00    +0.013 A 
ATOM     30  H   UNL     1       0.062  -4.790  -0.677  0.00  0.00    +0.160 HD
ENDBRANCH  19  27
ENDBRANCH  18  19
ENDBRANCH   1  18
TORSDOF 5
