REMARK  Name = ZINC32791518
REMARK  9 active torsions:
REMARK  status: ('A' for Active; 'I' for Inactive)
REMARK    1  A    between atoms: C_1  and  C_2
REMARK    2  A    between atoms: C_2  and  C_4
REMARK    3  A    between atoms: C_2  and  N_12
REMARK    4  A    between atoms: N_12  and  C_13
REMARK    5  A    between atoms: C_13  and  C_15
REMARK    6  A    between atoms: C_13  and  C_16
REMARK    7  A    between atoms: N_18  and  C_19
REMARK    8  A    between atoms: C_24  and  O_25
REMARK    9  A    between atoms: O_25  and  C_26
REMARK                            x       y       z     vdW  Elec       q    Type
REMARK                         _______ _______ _______ _____ _____    ______ ____
ROOT
ATOM      1  C   UNL     1      -2.986   2.123   5.643  0.00  0.00    +0.014 C 
ATOM      2  C   UNL     1      -4.085   1.218   5.083  0.00  0.00    -0.004 C 
ENDROOT
BRANCH   1   3
ATOM      3  C   UNL     1      -2.505   3.056   4.561  0.00  0.00    +0.203 C 
ATOM      4  O   UNL     1      -2.599   4.256   4.710  0.00  0.00    -0.277 OA
ATOM      5  N   UNL     1      -1.971   2.557   3.429  0.00  0.00    -0.284 N 
ATOM      6  H   UNL     1      -1.969   1.471   3.254  0.00  0.00    +0.155 HD
BRANCH   5   7
ATOM      7  C   UNL     1      -1.417   3.421   2.475  0.00  0.00    +0.076 A 
ATOM      8  C   UNL     1      -0.946   4.668   2.857  0.00  0.00    +0.027 A 
ATOM      9  C   UNL     1      -0.405   5.521   1.914  0.00  0.00    +0.002 A 
ATOM     10  C   UNL     1      -0.329   5.132   0.589  0.00  0.00    +0.004 A 
ATOM     11  C   UNL     1      -0.792   3.889   0.201  0.00  0.00    +0.047 A 
ATOM     12  C   UNL     1      -1.335   3.028   1.141  0.00  0.00    +0.141 A 
BRANCH  12  13
ATOM     13  O   UNL     1      -1.792   1.805   0.762  0.00  0.00    -0.493 OA
ATOM     14  C   UNL     1      -1.681   1.472  -0.624  0.00  0.00    +0.277 C 
ENDBRANCH  12  13
ENDBRANCH   5   7
ENDBRANCH   1   3
BRANCH   1  15
ATOM     15  N   UNL     1      -3.521   2.908   6.764  0.00  0.00    +0.391 N 
ATOM     16  H   UNL     1      -4.316   2.325   7.254  0.00  0.00    -0.084 HD
ATOM     17  H   UNL     1      -3.943   3.844   6.370  0.00  0.00    -0.084 HD
BRANCH  15  19
ATOM     18  C   UNL     1      -2.232   2.003   8.639  0.00  0.00    -0.009 C 
ATOM     19  C   UNL     1      -2.468   3.218   7.739  0.00  0.00    -0.043 C 
BRANCH  19  20
ATOM     20  C   UNL     1      -2.894   4.392   8.582  0.00  0.00    -0.060 A 
ATOM     21  C   UNL     1      -1.974   5.364   8.929  0.00  0.00    +0.003 A 
ATOM     22  C   UNL     1      -2.363   6.441   9.702  0.00  0.00    +0.021 A 
ATOM     23  C   UNL     1      -3.674   6.548  10.130  0.00  0.00    +0.059 A 
ATOM     24  C   UNL     1      -4.596   5.574   9.783  0.00  0.00    +0.059 A 
ATOM     25  C   UNL     1      -4.206   4.499   9.004  0.00  0.00    +0.023 A 
ATOM     26 CL   UNL     1      -6.242   5.706  10.319  0.00  0.00    -0.082 Cl
ATOM     27 CL   UNL     1      -4.164   7.900  11.101  0.00  0.00    -0.082 Cl
ENDBRANCH  19  20
ENDBRANCH  15  19
ENDBRANCH   1  15
TORSDOF 6
