REMARK  Name = ZINC19418616
REMARK  6 active torsions:
REMARK  status: ('A' for Active; 'I' for Inactive)
REMARK    1  A    between atoms: C_1  and  C_2
REMARK    2  A    between atoms: C_3  and  C_20
REMARK    3  A    between atoms: C_4  and  C_12
REMARK    4  A    between atoms: C_5  and  C_9
REMARK    5  A    between atoms: C_6  and  C_8
REMARK    6  A    between atoms: C_15  and  C_18
REMARK                            x       y       z     vdW  Elec       q    Type
REMARK                         _______ _______ _______ _____ _____    ______ ____
ROOT
ATOM      1  C   UNL     1      -4.671  -3.167   0.644  0.00  0.00    +0.061 C 
ATOM      2  C   UNL     1      -3.511  -2.259   0.327  0.00  0.00    +0.014 C 
ATOM      3  C   UNL     1      -3.636  -0.934   0.512  0.00  0.00    +0.043 C 
ATOM      4  C   UNL     1      -2.510   0.009   0.207  0.00  0.00    +0.092 C 
ATOM      5  C   UNL     1      -1.212  -0.735   0.068  0.00  0.00    +0.043 C 
ATOM      6  C   UNL     1      -1.183  -2.067  -0.100  0.00  0.00    +0.014 C 
ATOM      7  N   UNL     1      -2.343  -2.793  -0.146  0.00  0.00    -0.321 N 
ATOM      8  C   UNL     1       0.142  -2.771  -0.238  0.00  0.00    +0.061 C 
ATOM      9  H   UNL     1      -2.333  -3.810  -0.565  0.00  0.00    +0.152 HD
ENDROOT
BRANCH   4  10
ATOM     10  C   UNL     1      -2.808   0.731  -1.082  0.00  0.00    -0.035 A 
ATOM     11  C   UNL     1      -2.947   0.014  -2.257  0.00  0.00    +0.006 A 
ATOM     12  C   UNL     1      -3.225   0.668  -3.439  0.00  0.00    +0.019 A 
ATOM     13  C   UNL     1      -3.357   2.058  -3.450  0.00  0.00    +0.052 A 
ATOM     14  C   UNL     1      -3.210   2.776  -2.262  0.00  0.00    +0.019 A 
ATOM     15  C   UNL     1      -2.937   2.109  -1.086  0.00  0.00    +0.006 A 
BRANCH  13  16
ATOM     16  C   UNL     1      -3.640   2.744  -4.675  0.00  0.00    +0.099 C 
ATOM     17  N   UNL     1      -3.865   3.288  -5.646  0.00  0.00    -0.191 NA
ENDBRANCH  13  16
ENDBRANCH   4  10
BRANCH   5  18
ATOM     18  C   UNL     1       0.008  -0.017   0.120  0.00  0.00    +0.240 C 
ATOM     19  O   UNL     1       0.476   0.311   1.195  0.00  0.00    -0.271 OA
ATOM     20  N   UNL     1       0.650   0.305  -1.021  0.00  0.00    -0.326 N 
ATOM     21  H   UNL     1       1.597   0.862  -0.980  0.00  0.00    +0.145 HD
ATOM     22  H   UNL     1       0.227   0.009  -1.992  0.00  0.00    +0.145 HD
ENDBRANCH   5  18
BRANCH   3  23
ATOM     23  C   UNL     1      -4.856  -0.416   1.011  0.00  0.00    +0.240 C 
ATOM     24  O   UNL     1      -5.778  -1.170   1.268  0.00  0.00    -0.271 OA
ATOM     25  N   UNL     1      -4.997   0.910   1.202  0.00  0.00    -0.326 N 
ATOM     26  H   UNL     1      -5.945   1.312   1.590  0.00  0.00    +0.145 HD
ATOM     27  H   UNL     1      -4.165   1.591   0.971  0.00  0.00    +0.145 HD
ENDBRANCH   3  23
TORSDOF 4
