REMARK  Name = ZINC40701463
REMARK  4 active torsions:
REMARK  status: ('A' for Active; 'I' for Inactive)
REMARK    1  A    between atoms: C_1  and  C_2
REMARK    2  A    between atoms: C_10  and  N_27
REMARK    3  A    between atoms: C_11  and  N_15
REMARK    4  A    between atoms: C_19  and  C_22
REMARK                            x       y       z     vdW  Elec       q    Type
REMARK                         _______ _______ _______ _____ _____    ______ ____
ROOT
ATOM      1  C   UNL     1      -0.205  -2.692  -2.587  0.00  0.00    +0.044 C 
ATOM      2  C   UNL     1       0.027  -2.034  -1.251  0.00  0.00    -0.046 A 
ATOM      3  C   UNL     1       0.348  -0.686  -1.170  0.00  0.00    +0.023 A 
ATOM      4  C   UNL     1       0.555  -0.114   0.070  0.00  0.00    +0.113 A 
ATOM      5  N   UNL     1       0.452  -0.831   1.172  0.00  0.00    -0.240 NA
ATOM      6  C   UNL     1       0.148  -2.119   1.136  0.00  0.00    +0.124 A 
ATOM      7  C   UNL     1      -0.080  -2.759  -0.078  0.00  0.00    +0.047 A 
ATOM      8  N   UNL     1       0.050  -2.838   2.323  0.00  0.00    -0.284 N 
ATOM      9  C   UNL     1       0.151  -2.181   3.545  0.00  0.00    +0.127 A 
ATOM     10  C   UNL     1       0.278  -2.905   4.732  0.00  0.00    +0.104 A 
ATOM     11  C   UNL     1       0.376  -2.196   5.930  0.00  0.00    +0.150 A 
ATOM     12  N   UNL     1       0.347  -0.865   5.895  0.00  0.00    -0.221 NA
ATOM     13  C   UNL     1       0.227  -0.220   4.753  0.00  0.00    +0.200 A 
ATOM     14  N   UNL     1       0.136  -0.851   3.600  0.00  0.00    -0.333 N 
ATOM     15  H   UNL     1      -0.089  -3.798   2.299  0.00  0.00    +0.155 HD
ATOM     16  H   UNL     1       0.052  -0.340   2.780  0.00  0.00    +0.168 HD
ENDROOT
BRANCH  11  17
ATOM     17  N   UNL     1       0.503  -2.868   7.141  0.00  0.00    -0.282 N 
ATOM     18  C   UNL     1       0.601  -2.150   8.329  0.00  0.00    +0.142 A 
ATOM     19  C   UNL     1       0.733  -2.829   9.537  0.00  0.00    +0.081 A 
ATOM     20  C   UNL     1       0.830  -2.102  10.710  0.00  0.00    +0.037 A 
ATOM     21  C   UNL     1       0.790  -0.715  10.636  0.00  0.00    +0.074 A 
ATOM     22  C   UNL     1       0.657  -0.108   9.403  0.00  0.00    +0.125 A 
ATOM     23  N   UNL     1       0.573  -0.827   8.300  0.00  0.00    -0.238 NA
ATOM     24 CL   UNL     1       0.777  -4.564   9.571  0.00  0.00    -0.080 Cl
ATOM     25  H   UNL     1       0.523  -3.838   7.157  0.00  0.00    +0.155 HD
BRANCH  21  26
ATOM     26  C   UNL     1       0.891   0.117  11.888  0.00  0.00    +0.419 C 
ATOM     27  F   UNL     1       2.235   0.406  12.149  0.00  0.00    -0.166 F 
ATOM     28  F   UNL     1       0.183   1.312  11.712  0.00  0.00    -0.166 F 
ATOM     29  F   UNL     1       0.348  -0.592  12.965  0.00  0.00    -0.166 F 
ENDBRANCH  21  26
ENDBRANCH  11  17
BRANCH  10  30
ATOM     30  N   UNL     1       0.303  -4.309   4.721  0.00  0.00    -0.353 N 
ATOM     31  H   UNL     1       0.233  -4.788   3.881  0.00  0.00    +0.143 HD
ATOM     32  H   UNL     1       0.391  -4.799   5.553  0.00  0.00    +0.143 HD
ENDBRANCH  10  30
TORSDOF 3
