REMARK  Name = ZINC35664547
REMARK  11 active torsions:
REMARK  status: ('A' for Active; 'I' for Inactive)
REMARK    1  A    between atoms: C_1  and  C_2
REMARK    2  A    between atoms: C_2  and  C_3
REMARK    3  A    between atoms: N_9  and  C_12
REMARK    4  A    between atoms: C_12  and  C_13
REMARK    5  A    between atoms: C_14  and  C_31
REMARK    6  A    between atoms: C_15  and  C_23
REMARK    7  A    between atoms: N_20  and  C_21
REMARK    8  A    between atoms: C_21  and  C_22
REMARK    9  A    between atoms: C_31  and  O_33
REMARK   10  A    between atoms: O_33  and  C_34
REMARK   11  A    between atoms: C_34  and  C_35
REMARK                            x       y       z     vdW  Elec       q    Type
REMARK                         _______ _______ _______ _____ _____    ______ ____
ROOT
ATOM      1  C   UNL     1      -4.897  -4.248   3.255  0.00  0.00    +0.010 C 
ATOM      2  C   UNL     1      -5.293  -5.458   3.706  0.00  0.00    +0.077 C 
ATOM      3  C   UNL     1      -6.775  -5.773   3.671  0.00  0.00    +0.145 C 
ATOM      4  N   UNL     1      -7.667  -4.726   3.144  0.00  0.00    -0.288 N 
ATOM      5  C   UNL     1      -7.121  -3.566   2.729  0.00  0.00    +0.307 C 
ATOM      6  O   UNL     1      -7.848  -2.696   2.293  0.00  0.00    -0.252 OA
ATOM      7  N   UNL     1      -5.802  -3.338   2.788  0.00  0.00    -0.261 N 
ATOM      8  H   UNL     1      -8.626  -4.868   3.096  0.00  0.00    +0.151 HD
ENDROOT
BRANCH   3   9
ATOM      9  C   UNL     1      -6.967  -7.011   2.833  0.00  0.00    -0.003 A 
ATOM     10  C   UNL     1      -5.975  -7.416   1.960  0.00  0.00    +0.007 A 
ATOM     11  C   UNL     1      -6.150  -8.551   1.192  0.00  0.00    +0.002 A 
ATOM     12  C   UNL     1      -7.319  -9.283   1.295  0.00  0.00    +0.021 A 
ATOM     13  C   UNL     1      -8.313  -8.879   2.167  0.00  0.00    +0.060 A 
ATOM     14  C   UNL     1      -8.134  -7.745   2.942  0.00  0.00    +0.064 A 
ATOM     15 CL   UNL     1      -9.378  -7.241   4.043  0.00  0.00    -0.082 Cl
ATOM     16 CL   UNL     1      -9.780  -9.797   2.297  0.00  0.00    -0.082 Cl
ENDBRANCH   3   9
BRANCH   7  17
ATOM     17  C   UNL     1      -5.303  -2.043   2.320  0.00  0.00    +0.111 C 
ATOM     18  C   UNL     1      -5.082  -2.099   0.807  0.00  0.00    +0.025 C 
ENDBRANCH   7  17
BRANCH   2  19
ATOM     19  C   UNL     1      -4.357  -6.399   4.194  0.00  0.00    +0.339 C 
ATOM     20  O   UNL     1      -3.190  -6.083   4.327  0.00  0.00    -0.245 OA
BRANCH  19  21
ATOM     21  O   UNL     1      -4.759  -7.647   4.512  0.00  0.00    -0.462 OA
BRANCH  21  22
ATOM     22  C   UNL     1      -3.760  -8.546   4.999  0.00  0.00    +0.229 C 
ATOM     23  C   UNL     1      -4.399  -9.902   5.304  0.00  0.00    +0.048 C 
ENDBRANCH  21  22
ENDBRANCH  19  21
ENDBRANCH   2  19
BRANCH   1  24
ATOM     24  C   UNL     1      -3.432  -3.894   3.272  0.00  0.00    -0.026 C 
BRANCH  24  31
ATOM     25  C   UNL     1      -1.148  -3.588   7.871  0.00  0.00    +0.215 C 
ATOM     26  O   UNL     1      -1.683  -4.569   8.343  0.00  0.00    -0.276 OA
ATOM     27  N   UNL     1      -1.861  -2.730   7.115  0.00  0.00    -0.303 N 
ATOM     28  C   UNL     1      -1.183  -1.547   6.548  0.00  0.00    +0.106 C 
ATOM     29  C   UNL     1      -1.628  -1.297   5.095  0.00  0.00    +0.000 C 
ATOM     30  C   UNL     1      -1.756  -2.620   4.373  0.00  0.00    -0.077 C 
ATOM     31  N   UNL     1      -3.138  -3.086   4.463  0.00  0.00    +0.384 N 
ATOM     32  C   UNL     1      -3.433  -3.857   5.609  0.00  0.00    -0.059 C 
ATOM     33  C   UNL     1      -3.264  -3.005   6.882  0.00  0.00    +0.089 C 
ATOM     34  H   UNL     1      -3.746  -2.281   4.455  0.00  0.00    -0.081 HD
BRANCH  25  36
ATOM     35  C   UNL     1       0.882  -4.444   9.010  0.00  0.00    +0.013 C 
ATOM     36  C   UNL     1       0.314  -3.328   8.130  0.00  0.00    +0.092 C 
ENDBRANCH  25  36
ENDBRANCH  24  31
ENDBRANCH   1  24
TORSDOF 8
