REMARK  Name = ZINC39710223
REMARK  11 active torsions:
REMARK  status: ('A' for Active; 'I' for Inactive)
REMARK    1  A    between atoms: C_1  and  C_2
REMARK    2  A    between atoms: C_9  and  C_14
REMARK    3  A    between atoms: C_14  and  C_16
REMARK    4  A    between atoms: C_14  and  N_26
REMARK    5  A    between atoms: N_21  and  C_22
REMARK    6  A    between atoms: C_22  and  C_23
REMARK    7  A    between atoms: C_22  and  C_24
REMARK    8  A    between atoms: C_22  and  C_25
REMARK    9  A    between atoms: N_29  and  C_32
REMARK   10  A    between atoms: C_34  and  C_39
REMARK   11  A    between atoms: C_37  and  C_38
REMARK                            x       y       z     vdW  Elec       q    Type
REMARK                         _______ _______ _______ _____ _____    ______ ____
ROOT
ATOM      1  C   UNL     1       1.838  -4.813   2.464  0.00  0.00    -0.009 C 
ENDROOT
BRANCH   1  10
ATOM      2  C   UNL     1      -2.255  -8.110  -2.371  0.00  0.00    +0.044 C 
ATOM      3  C   UNL     1      -1.957  -7.595  -0.987  0.00  0.00    -0.050 A 
ATOM      4  C   UNL     1      -2.612  -8.160   0.108  0.00  0.00    +0.005 A 
ATOM      5  C   UNL     1      -2.396  -7.748   1.384  0.00  0.00    +0.024 A 
ATOM      6  C   UNL     1      -1.482  -6.713   1.655  0.00  0.00    +0.040 A 
ATOM      7  N   UNL     1      -1.277  -6.318   2.912  0.00  0.00    -0.285 N 
ATOM      8  C   UNL     1      -0.434  -5.352   3.236  0.00  0.00    +0.223 C 
ATOM      9  O   UNL     1      -0.288  -5.034   4.402  0.00  0.00    -0.275 OA
ATOM     10  C   UNL     1       0.349  -4.644   2.153  0.00  0.00    +0.088 C 
ATOM     11  C   UNL     1       0.120  -5.091   0.723  0.00  0.00    -0.006 C 
ATOM     12  C   UNL     1      -0.776  -6.098   0.518  0.00  0.00    -0.007 A 
ATOM     13  C   UNL     1      -1.053  -6.594  -0.830  0.00  0.00    +0.012 A 
ATOM     14  H   UNL     1      -1.770  -6.759   3.621  0.00  0.00    +0.155 HD
ENDBRANCH   1  10
BRANCH   1  15
ATOM     15  N   UNL     1       2.198  -6.235   2.380  0.00  0.00    +0.387 N 
ATOM     16  C   UNL     1       3.573  -6.419   2.859  0.00  0.00    -0.059 C 
ATOM     17  C   UNL     1       3.910  -7.913   2.880  0.00  0.00    +0.086 C 
ATOM     18  N   UNL     1       3.655  -8.467   1.541  0.00  0.00    -0.333 N 
ATOM     19  C   UNL     1       2.354  -8.190   0.913  0.00  0.00    +0.086 C 
ATOM     20  C   UNL     1       2.090  -6.683   0.986  0.00  0.00    -0.059 C 
ATOM     21  H   UNL     1       1.569  -6.774   2.955  0.00  0.00    -0.081 HD
BRANCH  18  22
ATOM     22  C   UNL     1       4.620  -9.235   0.885  0.00  0.00    +0.033 A 
ATOM     23  C   UNL     1       4.645 -10.614   1.052  0.00  0.00    +0.026 A 
ATOM     24  C   UNL     1       5.600 -11.369   0.402  0.00  0.00    -0.049 A 
ATOM     25  C   UNL     1       6.532 -10.754  -0.415  0.00  0.00    +0.004 A 
ATOM     26  C   UNL     1       6.511  -9.382  -0.583  0.00  0.00    +0.005 A 
ATOM     27  C   UNL     1       5.554  -8.621   0.060  0.00  0.00    -0.029 A 
ATOM     28  C   UNL     1       5.527  -7.126  -0.129  0.00  0.00    +0.045 C 
ATOM     29  C   UNL     1       5.628 -12.865   0.582  0.00  0.00    +0.044 C 
ENDBRANCH  18  22
ENDBRANCH   1  15
BRANCH   1  30
ATOM     30  C   UNL     1       2.126  -4.297   3.876  0.00  0.00    +0.205 C 
ATOM     31  N   UNL     1       1.245  -4.953   4.851  0.00  0.00    -0.152 NA
ATOM     32  N   UNL     1       0.550  -4.096   5.401  0.00  0.00    -0.070 NA
ATOM     33  N   UNL     1       0.810  -2.807   4.937  0.00  0.00    -0.179 N 
ATOM     34  N   UNL     1       1.792  -2.861   3.978  0.00  0.00    -0.183 NA
ATOM     35  H   UNL     1       0.369  -2.000   5.244  0.00  0.00    +0.191 HD
BRANCH  34  36
ATOM     36  C   UNL     1       1.303  -2.341   2.694  0.00  0.00    +0.035 C 
ATOM     37  C   UNL     1      -0.221  -2.461   2.642  0.00  0.00    +0.029 C 
ATOM     38  C   UNL     1       1.704  -0.871   2.553  0.00  0.00    +0.029 C 
ATOM     39  C   UNL     1       1.918  -3.150   1.550  0.00  0.00    +0.029 C 
ENDBRANCH  34  36
ENDBRANCH   1  30
TORSDOF 5
