REMARK  Name = ZINC63557961
REMARK  7 active torsions:
REMARK  status: ('A' for Active; 'I' for Inactive)
REMARK    1  A    between atoms: C_3  and  S_29
REMARK    2  A    between atoms: C_6  and  N_7
REMARK    3  A    between atoms: C_8  and  C_10
REMARK    4  A    between atoms: N_15  and  C_17
REMARK    5  A    between atoms: C_17  and  C_18
REMARK    6  A    between atoms: C_18  and  C_19
REMARK    7  A    between atoms: S_29  and  N_32
REMARK                            x       y       z     vdW  Elec       q    Type
REMARK                         _______ _______ _______ _____ _____    ______ ____
ROOT
ATOM      1  C   UNL     1      -2.478  -2.828  -0.204  0.00  0.00    +0.101 C 
ATOM      2  C   UNL     1      -3.313  -2.681   1.089  0.00  0.00    +0.110 C 
ATOM      3  C   UNL     1      -3.953  -4.039   1.274  0.00  0.00    +0.216 C 
ATOM      4  O   UNL     1      -4.896  -4.270   2.002  0.00  0.00    -0.276 OA
ATOM      5  N   UNL     1      -3.325  -4.954   0.514  0.00  0.00    -0.300 N 
ATOM      6  C   UNL     1      -2.220  -4.351  -0.242  0.00  0.00    +0.121 C 
ENDROOT
BRANCH   1   8
ATOM      7  N   UNL     1      -1.199  -0.722   0.010  0.00  0.00    -0.285 N 
ATOM      8  C   UNL     1      -1.183  -2.065  -0.099  0.00  0.00    +0.222 C 
ATOM      9  O   UNL     1      -0.125  -2.659  -0.113  0.00  0.00    -0.275 OA
ATOM     10  H   UNL     1      -2.044  -0.253   0.098  0.00  0.00    +0.155 HD
BRANCH   7  16
ATOM     11  C   UNL     1       1.072  -0.453  -0.766  0.00  0.00    +0.025 A 
ATOM     12  C   UNL     1       2.256   0.259  -0.778  0.00  0.00    +0.030 A 
ATOM     13  C   UNL     1       2.376   1.416  -0.031  0.00  0.00    +0.105 A 
ATOM     14  C   UNL     1       1.312   1.866   0.729  0.00  0.00    +0.030 A 
ATOM     15  C   UNL     1       0.126   1.160   0.744  0.00  0.00    +0.025 A 
ATOM     16  C   UNL     1       0.002  -0.004  -0.004  0.00  0.00    +0.034 A 
BRANCH  13  17
ATOM     17  S   UNL     1       3.889   2.320  -0.048  0.00  0.00    +0.056 S 
ATOM     18  O   UNL     1       3.928   3.069   1.159  0.00  0.00    -0.153 OA
ATOM     19  O   UNL     1       4.909   1.398  -0.406  0.00  0.00    -0.153 OA
BRANCH  17  20
ATOM     20  N   UNL     1       3.789   3.419  -1.284  0.00  0.00    -0.204 NA
ATOM     21  H   UNL     1       4.262   4.263  -1.221  0.00  0.00    +0.144 HD
ATOM     22  H   UNL     1       3.258   3.217  -2.070  0.00  0.00    +0.144 HD
ENDBRANCH  17  20
ENDBRANCH  13  17
ENDBRANCH   7  16
ENDBRANCH   1   8
BRANCH   5  23
ATOM     23  C   UNL     1      -3.696  -6.369   0.449  0.00  0.00    +0.112 C 
BRANCH  23  24
ATOM     24  C   UNL     1      -4.726  -6.575  -0.664  0.00  0.00    +0.052 C 
BRANCH  24  25
ATOM     25  C   UNL     1      -5.107  -8.031  -0.732  0.00  0.00    -0.040 C 
ATOM     26  C   UNL     1      -6.171  -8.622  -0.141  0.00  0.00    +0.000 A 
ATOM     27  C   UNL     1      -7.249  -8.104   0.710  0.00  0.00    +0.030 A 
ATOM     28  C   UNL     1      -8.196  -8.959   1.163  0.00  0.00    +0.042 A 
ATOM     29  C   UNL     1      -8.171 -10.324   0.840  0.00  0.00    +0.022 A 
ATOM     30  C   UNL     1      -7.213 -10.872   0.064  0.00  0.00    +0.027 A 
ATOM     31  C   UNL     1      -6.169 -10.066  -0.467  0.00  0.00    +0.043 A 
ATOM     32  N   UNL     1      -5.144 -10.357  -1.231  0.00  0.00    -0.380 N 
ATOM     33  C   UNL     1      -4.383  -9.128  -1.480  0.00  0.00    +0.144 C 
ATOM     34 CL   UNL     1      -9.472  -8.351   2.170  0.00  0.00    -0.084 Cl
ATOM     35  H   UNL     1      -4.927 -11.237  -1.576  0.00  0.00    +0.160 HD
ENDBRANCH  24  25
ENDBRANCH  23  24
ENDBRANCH   5  23
TORSDOF 7
