REMARK  Name = ZINC20559059
REMARK  10 active torsions:
REMARK  status: ('A' for Active; 'I' for Inactive)
REMARK    1  A    between atoms: C_1  and  C_2
REMARK    2  A    between atoms: C_2  and  O_3
REMARK    3  A    between atoms: O_3  and  C_4
REMARK    4  A    between atoms: C_4  and  C_6
REMARK    5  A    between atoms: C_7  and  C_19
REMARK    6  A    between atoms: C_12  and  C_14
REMARK    7  A    between atoms: C_19  and  N_20
REMARK    8  A    between atoms: N_23  and  C_26
REMARK    9  A    between atoms: C_29  and  C_33
REMARK   10  A    between atoms: C_31  and  C_32
REMARK                            x       y       z     vdW  Elec       q    Type
REMARK                         _______ _______ _______ _____ _____    ______ ____
ROOT
ATOM      1  C   UNL     1      -5.301   8.735  -1.545  0.00  0.00    +0.080 C 
ATOM      2  C   UNL     1      -5.676   7.461  -1.300  0.00  0.00    +0.038 C 
ATOM      3  N   UNL     1      -6.256   6.697  -2.272  0.00  0.00    -0.271 N 
ATOM      4  C   UNL     1      -6.505   7.137  -3.512  0.00  0.00    +0.304 C 
ATOM      5  O   UNL     1      -7.031   6.384  -4.309  0.00  0.00    -0.252 OA
ATOM      6  N   UNL     1      -6.187   8.386  -3.907  0.00  0.00    -0.288 N 
ATOM      7  C   UNL     1      -5.551   9.289  -2.933  0.00  0.00    +0.150 C 
ATOM      8  H   UNL     1      -6.546   5.658  -2.056  0.00  0.00    +0.156 HD
ATOM      9  H   UNL     1      -6.393   8.736  -4.930  0.00  0.00    +0.151 HD
ENDROOT
BRANCH   7  10
ATOM     10  C   UNL     1      -6.422  10.511  -2.796  0.00  0.00    +0.015 A 
ATOM     11  C   UNL     1      -6.067  11.819  -2.814  0.00  0.00    +0.013 A 
ATOM     12  C   UNL     1      -7.048  12.782  -2.669  0.00  0.00    +0.008 A 
ATOM     13  C   UNL     1      -8.336  12.390  -2.511  0.00  0.00    +0.045 A 
ATOM     14  S   UNL     1      -8.191  10.611  -2.573  0.00  0.00    -0.099 S 
ENDBRANCH   7  10
BRANCH   1  15
ATOM     15  C   UNL     1      -4.694   9.525  -0.541  0.00  0.00    +0.339 C 
ATOM     16  O   UNL     1      -4.399   9.027   0.529  0.00  0.00    -0.245 OA
BRANCH  15  17
ATOM     17  O   UNL     1      -4.443  10.831  -0.770  0.00  0.00    -0.462 OA
BRANCH  17  19
ATOM     18  C   UNL     1      -3.625  13.019  -0.152  0.00  0.00    +0.048 C 
ATOM     19  C   UNL     1      -3.829  11.568   0.289  0.00  0.00    +0.229 C 
ENDBRANCH  17  19
ENDBRANCH  15  17
ENDBRANCH   1  15
BRANCH   2  20
ATOM     20  C   UNL     1      -5.445   6.870   0.067  0.00  0.00    +0.136 C 
BRANCH  20  21
ATOM     21  N   UNL     1      -4.077   6.341   0.147  0.00  0.00    -0.294 NA
ATOM     22  C   UNL     1      -3.889   5.550   1.372  0.00  0.00    +0.103 C 
ATOM     23  C   UNL     1      -2.434   5.085   1.457  0.00  0.00    +0.120 C 
ATOM     24  N   UNL     1      -2.105   4.290   0.265  0.00  0.00    -0.327 N 
ATOM     25  C   UNL     1      -2.293   5.081  -0.959  0.00  0.00    +0.120 C 
ATOM     26  C   UNL     1      -3.749   5.546  -1.044  0.00  0.00    +0.103 C 
BRANCH  24  27
ATOM     27  C   UNL     1      -0.805   3.787   0.342  0.00  0.00    +0.033 A 
ATOM     28  C   UNL     1       0.274   4.658   0.443  0.00  0.00    +0.023 A 
ATOM     29  C   UNL     1       1.558   4.157   0.518  0.00  0.00    +0.005 A 
ATOM     30  C   UNL     1       1.772   2.791   0.493  0.00  0.00    -0.050 A 
ATOM     31  C   UNL     1       0.701   1.922   0.393  0.00  0.00    +0.008 A 
ATOM     32  C   UNL     1      -0.586   2.416   0.311  0.00  0.00    -0.029 A 
ATOM     33  C   UNL     1      -1.752   1.469   0.196  0.00  0.00    +0.045 C 
ATOM     34  C   UNL     1       3.176   2.248   0.575  0.00  0.00    +0.044 C 
ENDBRANCH  24  27
ENDBRANCH  20  21
ENDBRANCH   2  20
TORSDOF 7
