REMARK  Name = ZINC16195503
REMARK  8 active torsions:
REMARK  status: ('A' for Active; 'I' for Inactive)
REMARK    1  A    between atoms: C_1  and  O_2
REMARK    2  A    between atoms: O_2  and  C_3
REMARK    3  A    between atoms: C_5  and  C_19
REMARK    4  A    between atoms: C_8  and  O_9
REMARK    5  A    between atoms: O_9  and  C_10
REMARK    6  A    between atoms: C_10  and  C_11
REMARK    7  A    between atoms: N_20  and  N_21
REMARK    8  A    between atoms: N_23  and  N_24
REMARK                            x       y       z     vdW  Elec       q    Type
REMARK                         _______ _______ _______ _____ _____    ______ ____
ROOT
ATOM      1  C   UNL     1       0.165  -0.495  -1.327  0.00  0.00    +0.163 A 
ATOM      2  C   UNL     1       0.600   0.195  -2.443  0.00  0.00    +0.059 A 
ATOM      3  C   UNL     1       1.490  -0.414  -3.334  0.00  0.00    -0.001 A 
ATOM      4  C   UNL     1       1.934  -1.718  -3.092  0.00  0.00    +0.027 A 
ATOM      5  C   UNL     1       1.495  -2.399  -1.977  0.00  0.00    +0.059 A 
ATOM      6  C   UNL     1       0.616  -1.792  -1.089  0.00  0.00    +0.175 A 
ATOM      7  I   UNL     1       2.161  -4.353  -1.616  0.00  0.00    -0.040 I 
ENDROOT
BRANCH   1   9
ATOM      8  C   UNL     1      -1.120   1.425  -0.764  0.00  0.00    +0.277 C 
ATOM      9  O   UNL     1      -0.699   0.095  -0.458  0.00  0.00    -0.491 OA
ENDBRANCH   1   9
BRANCH   3  10
ATOM     10  C   UNL     1       1.956   0.315  -4.524  0.00  0.00    +0.140 C 
ATOM     11  N   UNL     1       2.867  -0.209  -5.293  0.00  0.00    -0.179 NA
BRANCH  11  12
ATOM     12  N   UNL     1       3.389   0.529  -6.364  0.00  0.00    -0.245 N 
ATOM     13  C   UNL     1       4.253  -0.047  -7.221  0.00  0.00    +0.240 C 
ATOM     14  N   UNL     1       4.865   0.695  -8.159  0.00  0.00    -0.058 NA
ATOM     15  N   UNL     1       4.508  -1.381  -7.136  0.00  0.00    -0.367 N 
ATOM     16  H   UNL     1       3.127   1.455  -6.488  0.00  0.00    +0.192 HD
ATOM     17  H   UNL     1       4.066  -1.917  -6.459  0.00  0.00    +0.159 HD
ATOM     18  H   UNL     1       5.131  -1.796  -7.753  0.00  0.00    +0.159 HD
BRANCH  14  19
ATOM     19  N   UNL     1       4.902   1.979  -8.042  0.00  0.00    +0.157 N 
ATOM     20  O   UNL     1       4.494   2.551  -6.928  0.00  0.00    -0.106 OA
ATOM     21  O   UNL     1       5.348   2.718  -9.037  0.00  0.00    -0.106 OA
ENDBRANCH  14  19
ENDBRANCH  11  12
ENDBRANCH   3  10
BRANCH   6  22
ATOM     22  O   UNL     1       0.191  -2.466   0.011  0.00  0.00    -0.483 OA
BRANCH  22  23
ATOM     23  C   UNL     1      -0.995  -3.251  -0.127  0.00  0.00    +0.264 C 
BRANCH  23  24
ATOM     24  C   UNL     1      -1.310  -3.920   1.186  0.00  0.00    -0.010 A 
ATOM     25  C   UNL     1      -0.787  -5.169   1.468  0.00  0.00    +0.008 A 
ATOM     26  C   UNL     1      -1.076  -5.783   2.672  0.00  0.00    +0.020 A 
ATOM     27  C   UNL     1      -1.889  -5.148   3.595  0.00  0.00    +0.041 A 
ATOM     28  C   UNL     1      -2.411  -3.899   3.312  0.00  0.00    +0.020 A 
ATOM     29  C   UNL     1      -2.117  -3.283   2.110  0.00  0.00    +0.008 A 
ATOM     30 CL   UNL     1      -2.252  -5.919   5.107  0.00  0.00    -0.084 Cl
ENDBRANCH  23  24
ENDBRANCH  22  23
ENDBRANCH   6  22
TORSDOF 7
