REMARK  Name = ZINC39654009
REMARK  12 active torsions:
REMARK  status: ('A' for Active; 'I' for Inactive)
REMARK    1  A    between atoms: C_1  and  C_2
REMARK    2  A    between atoms: C_2  and  O_3
REMARK    3  A    between atoms: O_3  and  C_4
REMARK    4  A    between atoms: C_7  and  C_10
REMARK    5  A    between atoms: C_10  and  C_11
REMARK    6  A    between atoms: C_11  and  N_12
REMARK    7  A    between atoms: C_13  and  C_15
REMARK    8  A    between atoms: C_26  and  C_28
REMARK    9  A    between atoms: C_30  and  O_36
REMARK   10  A    between atoms: C_33  and  O_34
REMARK   11  A    between atoms: O_34  and  C_35
REMARK   12  A    between atoms: O_36  and  C_37
REMARK                            x       y       z     vdW  Elec       q    Type
REMARK                         _______ _______ _______ _____ _____    ______ ____
ROOT
ATOM      1  C   UNL     1      -0.827 -10.170  -3.639  0.00  0.00    +0.100 C 
ATOM      2  C   UNL     1       0.340 -10.508  -4.594  0.00  0.00    +0.121 C 
ATOM      3  N   UNL     1      -0.145 -11.664  -5.384  0.00  0.00    -0.296 N 
ATOM      4  C   UNL     1      -1.572 -11.359  -5.646  0.00  0.00    +0.115 C 
ATOM      5  C   UNL     1      -2.080 -10.730  -4.334  0.00  0.00    -0.004 C 
ATOM      6  C   UNL     1      -3.064  -9.604  -4.636  0.00  0.00    -0.010 C 
ATOM      7  C   UNL     1      -4.326 -10.192  -5.273  0.00  0.00    -0.082 C 
ATOM      8  N   UNL     1      -4.931 -11.165  -4.355  0.00  0.00    +0.379 N 
ATOM      9  C   UNL     1      -4.014 -12.291  -4.144  0.00  0.00    -0.082 C 
ATOM     10  C   UNL     1      -2.739 -11.792  -3.459  0.00  0.00    -0.010 C 
ATOM     11  C   UNL     1       0.553 -12.749  -5.775  0.00  0.00    +0.250 C 
ATOM     12  O   UNL     1       1.698 -12.903  -5.397  0.00  0.00    -0.270 OA
ATOM     13  H   UNL     1      -5.123 -10.718  -3.471  0.00  0.00    -0.086 HD
ATOM     14  H   UNL     1      -5.795 -11.506  -4.751  0.00  0.00    -0.086 HD
ENDROOT
BRANCH  11  15
ATOM     15  C   UNL     1      -0.072 -13.748  -6.662  0.00  0.00    +0.082 A 
ATOM     16  C   UNL     1      -0.974 -13.344  -7.650  0.00  0.00    +0.062 A 
ATOM     17  C   UNL     1      -1.556 -14.286  -8.478  0.00  0.00    +0.121 A 
ATOM     18  C   UNL     1      -1.246 -15.633  -8.330  0.00  0.00    +0.049 A 
ATOM     19  C   UNL     1      -0.356 -16.041  -7.356  0.00  0.00    +0.050 A 
ATOM     20  C   UNL     1       0.240 -15.107  -6.522  0.00  0.00    +0.132 A 
BRANCH  20  21
ATOM     21  O   UNL     1       1.118 -15.509  -5.569  0.00  0.00    -0.494 OA
ATOM     22  C   UNL     1       1.388 -16.909  -5.484  0.00  0.00    +0.277 C 
ENDBRANCH  20  21
BRANCH  17  23
ATOM     23  O   UNL     1      -2.433 -13.894  -9.440  0.00  0.00    -0.495 OA
ATOM     24  C   UNL     1      -2.997 -14.919 -10.260  0.00  0.00    +0.277 C 
ENDBRANCH  17  23
ENDBRANCH  11  15
BRANCH   1  26
ATOM     25  N   UNL     1      -1.590  -8.175  -2.392  0.00  0.00    -0.315 N 
ATOM     26  C   UNL     1      -0.946  -8.678  -3.464  0.00  0.00    +0.218 C 
ATOM     27  O   UNL     1      -0.463  -7.930  -4.287  0.00  0.00    -0.275 OA
ATOM     28  H   UNL     1      -1.977  -8.774  -1.734  0.00  0.00    +0.149 HD
BRANCH  25  29
ATOM     29  C   UNL     1      -1.706  -6.725  -2.222  0.00  0.00    +0.109 C 
BRANCH  29  30
ATOM     30  C   UNL     1      -2.477  -6.423  -0.935  0.00  0.00    +0.054 C 
BRANCH  30  34
ATOM     31  C   UNL     1      -2.816  -2.192  -0.436  0.00  0.00    +0.121 A 
ATOM     32  C   UNL     1      -3.792  -2.890  -1.133  0.00  0.00    +0.046 A 
ATOM     33  C   UNL     1      -3.680  -4.258  -1.292  0.00  0.00    +0.007 A 
ATOM     34  C   UNL     1      -2.596  -4.931  -0.759  0.00  0.00    -0.046 A 
ATOM     35  C   UNL     1      -1.622  -4.238  -0.065  0.00  0.00    +0.007 A 
ATOM     36  C   UNL     1      -1.726  -2.869   0.093  0.00  0.00    +0.046 A 
BRANCH  31  37
ATOM     37  O   UNL     1      -2.923  -0.847  -0.278  0.00  0.00    -0.492 OA
BRANCH  37  39
ATOM     38  C   UNL     1      -4.019   1.288  -0.571  0.00  0.00    +0.048 C 
ATOM     39  C   UNL     1      -4.071  -0.216  -0.850  0.00  0.00    +0.225 C 
ENDBRANCH  37  39
ENDBRANCH  31  37
ENDBRANCH  30  34
ENDBRANCH  29  30
ENDBRANCH  25  29
ENDBRANCH   1  26
TORSDOF 9
