REMARK  Name = ZINC53610027
REMARK  9 active torsions:
REMARK  status: ('A' for Active; 'I' for Inactive)
REMARK    1  A    between atoms: C_1  and  C_2
REMARK    2  A    between atoms: C_5  and  C_8
REMARK    3  A    between atoms: C_8  and  C_10
REMARK    4  A    between atoms: C_8  and  N_11
REMARK    5  A    between atoms: N_11  and  C_12
REMARK    6  A    between atoms: N_11  and  C_13
REMARK    7  A    between atoms: C_13  and  C_14
REMARK    8  A    between atoms: C_17  and  C_19
REMARK    9  A    between atoms: C_22  and  C_25
REMARK                            x       y       z     vdW  Elec       q    Type
REMARK                         _______ _______ _______ _____ _____    ______ ____
ROOT
ATOM      1  C   UNL     1      -3.066  -4.725   1.965  0.00  0.00    +0.033 A 
ATOM      2  C   UNL     1      -3.293  -3.864   2.994  0.00  0.00    +0.068 A 
ATOM      3  S   UNL     1      -4.359  -4.860   4.029  0.00  0.00    -0.075 S 
ATOM      4  C   UNL     1      -4.384  -6.309   2.982  0.00  0.00    +0.108 A 
ATOM      5  N   UNL     1      -3.614  -5.916   1.977  0.00  0.00    -0.246 NA
ENDROOT
BRANCH   4   6
ATOM      6  C   UNL     1      -5.081  -7.597   3.181  0.00  0.00    +0.007 A 
ATOM      7  C   UNL     1      -4.959  -8.611   2.228  0.00  0.00    +0.011 A 
ATOM      8  C   UNL     1      -5.607  -9.811   2.413  0.00  0.00    +0.014 A 
ATOM      9  C   UNL     1      -6.388 -10.014   3.554  0.00  0.00    +0.037 A 
ATOM     10  C   UNL     1      -6.510  -9.000   4.507  0.00  0.00    +0.014 A 
ATOM     11  C   UNL     1      -5.857  -7.802   4.324  0.00  0.00    +0.011 A 
BRANCH   9  12
ATOM     12  C   UNL     1      -7.084 -11.302   3.752  0.00  0.00    +0.242 C 
ATOM     13  O   UNL     1      -6.979 -12.184   2.923  0.00  0.00    -0.270 OA
ATOM     14  N   UNL     1      -7.837 -11.498   4.853  0.00  0.00    -0.325 N 
ATOM     15  H   UNL     1      -7.921 -10.794   5.515  0.00  0.00    +0.145 HD
ATOM     16  H   UNL     1      -8.294 -12.343   4.983  0.00  0.00    +0.145 HD
ENDBRANCH   9  12
ENDBRANCH   4   6
BRANCH   1  17
ATOM     17  C   UNL     1      -2.190  -4.309   0.811  0.00  0.00    -0.021 C 
BRANCH  17  18
ATOM     18  N   UNL     1      -0.819  -4.782   1.042  0.00  0.00    +0.386 N 
ATOM     19  C   UNL     1      -0.800  -6.251   1.034  0.00  0.00    -0.095 C 
ATOM     20  H   UNL     1      -0.492  -4.447   1.936  0.00  0.00    -0.081 HD
BRANCH  18  21
ATOM     21  C   UNL     1       0.059  -4.275  -0.021  0.00  0.00    -0.041 C 
ATOM     22  C   UNL     1       1.488  -4.768   0.218  0.00  0.00    -0.008 C 
BRANCH  21  27
ATOM     23  C   UNL     1      -0.018   1.503   0.010  0.00  0.00    +0.044 C 
ATOM     24  C   UNL     1       0.002  -0.004   0.002  0.00  0.00    -0.050 A 
ATOM     25  C   UNL     1       0.006  -0.689  -1.199  0.00  0.00    +0.003 A 
ATOM     26  C   UNL     1       0.025  -2.071  -1.206  0.00  0.00    +0.002 A 
ATOM     27  C   UNL     1       0.040  -2.768  -0.013  0.00  0.00    -0.061 A 
ATOM     28  C   UNL     1       0.037  -2.084   1.188  0.00  0.00    +0.002 A 
ATOM     29  C   UNL     1       0.023  -0.702   1.195  0.00  0.00    +0.003 A 
ENDBRANCH  21  27
ENDBRANCH  18  21
ENDBRANCH  17  18
ENDBRANCH   1  17
TORSDOF 6
