REMARK  Name = ZINC63996595
REMARK  7 active torsions:
REMARK  status: ('A' for Active; 'I' for Inactive)
REMARK    1  A    between atoms: C_7  and  C_10
REMARK    2  A    between atoms: C_10  and  C_11
REMARK    3  A    between atoms: C_11  and  C_12
REMARK    4  A    between atoms: C_12  and  C_13
REMARK    5  A    between atoms: C_13  and  O_15
REMARK    6  A    between atoms: O_15  and  C_16
REMARK    7  A    between atoms: C_16  and  C_17
REMARK                            x       y       z     vdW  Elec       q    Type
REMARK                         _______ _______ _______ _____ _____    ______ ____
ROOT
ATOM      1  C   UNL     1      -0.729  -5.309  -2.876  0.00  0.00    +0.307 C 
ATOM      2  O   UNL     1      -0.185  -4.740  -3.793  0.00  0.00    -0.251 OA
ENDROOT
BRANCH   1   3
ATOM      3  C   UNL     1      -0.499  -4.848  -1.460  0.00  0.00    +0.121 C 
BRANCH   3   4
ATOM      4  C   UNL     1       0.457  -3.653  -1.462  0.00  0.00    +0.015 C 
BRANCH   4   5
ATOM      5  C   UNL     1       0.691  -3.186  -0.024  0.00  0.00    +0.034 C 
BRANCH   5  12
ATOM      6  C   UNL     1      -0.016   1.348   0.009  0.00  0.00    +0.001 A 
ATOM      7  C   UNL     1       1.166   2.101   0.002  0.00  0.00    +0.002 A 
ATOM      8  C   UNL     1       2.391   1.535  -0.013  0.00  0.00    +0.026 A 
ATOM      9  C   UNL     1       2.529   0.120  -0.022  0.00  0.00    +0.043 A 
ATOM     10  N   UNL     1       3.587  -0.654  -0.037  0.00  0.00    -0.380 N 
ATOM     11  C   UNL     1       3.143  -2.053  -0.041  0.00  0.00    +0.144 C 
ATOM     12  C   UNL     1       1.631  -2.008  -0.025  0.00  0.00    -0.042 C 
ATOM     13  C   UNL     1       1.295  -0.698  -0.014  0.00  0.00    -0.001 A 
ATOM     14  C   UNL     1       0.002  -0.004   0.002  0.00  0.00    +0.010 A 
ATOM     15  H   UNL     1       4.509  -0.353  -0.045  0.00  0.00    +0.160 HD
ENDBRANCH   5  12
ENDBRANCH   4   5
ENDBRANCH   3   4
ENDBRANCH   1   3
BRANCH   1  16
ATOM     16  O   UNL     1      -1.539  -6.352  -3.119  0.00  0.00    -0.457 OA
BRANCH  16  17
ATOM     17  C   UNL     1      -1.712  -6.734  -4.485  0.00  0.00    +0.308 C 
BRANCH  17  18
ATOM     18  C   UNL     1      -2.647  -7.914  -4.562  0.00  0.00    +0.173 A 
ATOM     19  N   UNL     1      -2.164  -9.142  -4.504  0.00  0.00    -0.196 NA
ATOM     20  C   UNL     1      -2.987 -10.187  -4.571  0.00  0.00    +0.217 A 
ATOM     21  N   UNL     1      -4.295  -9.992  -4.697  0.00  0.00    -0.181 NA
ATOM     22  C   UNL     1      -4.777  -8.755  -4.756  0.00  0.00    +0.217 A 
ATOM     23  N   UNL     1      -3.948  -7.716  -4.683  0.00  0.00    -0.196 NA
ATOM     24  N   UNL     1      -6.135  -8.548  -4.887  0.00  0.00    -0.327 N 
ATOM     25  N   UNL     1      -2.482 -11.469  -4.510  0.00  0.00    -0.327 N 
ATOM     26  H   UNL     1      -6.738  -9.306  -4.936  0.00  0.00    +0.145 HD
ATOM     27  H   UNL     1      -6.486  -7.645  -4.930  0.00  0.00    +0.145 HD
ATOM     28  H   UNL     1      -1.526 -11.611  -4.418  0.00  0.00    +0.145 HD
ATOM     29  H   UNL     1      -3.082 -12.230  -4.559  0.00  0.00    +0.145 HD
ENDBRANCH  17  18
ENDBRANCH  16  17
ENDBRANCH   1  16
TORSDOF 7
