REMARK  Name = ZINC08709152
REMARK  6 active torsions:
REMARK  status: ('A' for Active; 'I' for Inactive)
REMARK    1  A    between atoms: C_1  and  C_2
REMARK    2  A    between atoms: C_16  and  C_17
REMARK    3  A    between atoms: C_16  and  N_62
REMARK    4  A    between atoms: N_19  and  C_20
REMARK    5  A    between atoms: C_23  and  S_26
REMARK    6  A    between atoms: S_26  and  N_29
REMARK                            x       y       z     vdW  Elec       q    Type
REMARK                         _______ _______ _______ _____ _____    ______ ____
ROOT
ATOM      1  C   UNL     1       3.779   2.645   2.074  0.00  0.00    -0.008 C 
ATOM      2  C   UNL     1       3.369   3.296   0.752  0.00  0.00    -0.040 C 
ATOM      3  C   UNL     1       4.300   4.441   0.453  0.00  0.00    -0.054 A 
ATOM      4  C   UNL     1       4.668   5.283   1.492  0.00  0.00    +0.051 A 
ATOM      5  C   UNL     1       5.517   6.353   1.264  0.00  0.00    +0.162 A 
ATOM      6  C   UNL     1       6.008   6.581  -0.017  0.00  0.00    +0.162 A 
ATOM      7  C   UNL     1       5.640   5.736  -1.051  0.00  0.00    +0.053 A 
ATOM      8  C   UNL     1       4.788   4.667  -0.818  0.00  0.00    -0.038 A 
ATOM      9  C   UNL     1       4.420   3.772  -1.970  0.00  0.00    -0.019 C 
ATOM     10  C   UNL     1       5.606   2.851  -2.311  0.00  0.00    +0.010 C 
ATOM     11  C   UNL     1       5.573   2.749  -3.857  0.00  0.00    +0.001 C 
ATOM     12  C   UNL     1       5.167   4.181  -4.286  0.00  0.00    +0.001 C 
ATOM     13  C   UNL     1       4.139   4.618  -3.221  0.00  0.00    +0.010 C 
ATOM     14  C   UNL     1       3.195   2.929  -1.625  0.00  0.00    -0.066 C 
ATOM     15  O   UNL     1       6.845   7.618  -0.262  0.00  0.00    -0.485 OA
ATOM     16  C   UNL     1       6.991   8.637   0.715  0.00  0.00    +0.270 C 
ATOM     17  C   UNL     1       6.939   8.075   2.127  0.00  0.00    +0.270 C 
ATOM     18  O   UNL     1       5.859   7.169   2.292  0.00  0.00    -0.485 OA
ATOM     19  N   UNL     1       3.444   2.286  -0.317  0.00  0.00    +0.390 N 
ATOM     20  H   UNL     1       4.383   1.871  -0.321  0.00  0.00    -0.080 HD
ENDROOT
BRANCH  19  21
ATOM     21  C   UNL     1       2.448   1.219  -0.078  0.00  0.00    +0.020 C 
BRANCH  21  22
ATOM     22  C   UNL     1       1.051   1.775  -0.176  0.00  0.00    +0.201 C 
ATOM     23  O   UNL     1       0.882   2.951  -0.421  0.00  0.00    -0.278 OA
ATOM     24  N   UNL     1      -0.011   0.966   0.007  0.00  0.00    -0.287 N 
ATOM     25  H   UNL     1       0.121   0.012   0.126  0.00  0.00    +0.155 HD
BRANCH  24  26
ATOM     26  C   UNL     1      -1.304   1.501   0.022  0.00  0.00    +0.033 A 
ATOM     27  C   UNL     1      -2.368   0.762  -0.478  0.00  0.00    +0.025 A 
ATOM     28  C   UNL     1      -3.644   1.290  -0.456  0.00  0.00    +0.030 A 
ATOM     29  C   UNL     1      -3.861   2.558   0.051  0.00  0.00    +0.105 A 
ATOM     30  C   UNL     1      -2.802   3.299   0.544  0.00  0.00    +0.030 A 
ATOM     31  C   UNL     1      -1.525   2.774   0.531  0.00  0.00    +0.025 A 
BRANCH  29  32
ATOM     32  S   UNL     1      -5.489   3.231   0.071  0.00  0.00    +0.056 S 
ATOM     33  O   UNL     1      -6.385   2.128   0.056  0.00  0.00    -0.153 OA
ATOM     34  O   UNL     1      -5.509   4.216   1.095  0.00  0.00    -0.153 OA
BRANCH  32  35
ATOM     35  N   UNL     1      -5.704   4.034  -1.362  0.00  0.00    -0.204 NA
ATOM     36  H   UNL     1      -4.987   4.060  -2.016  0.00  0.00    +0.144 HD
ATOM     37  H   UNL     1      -6.545   4.479  -1.547  0.00  0.00    +0.144 HD
ENDBRANCH  32  35
ENDBRANCH  29  32
ENDBRANCH  24  26
ENDBRANCH  21  22
ENDBRANCH  19  21
TORSDOF 5
