REMARK  Name = ZINC67286576
REMARK  10 active torsions:
REMARK  status: ('A' for Active; 'I' for Inactive)
REMARK    1  A    between atoms: C_1  and  C_2
REMARK    2  A    between atoms: C_2  and  C_3
REMARK    3  A    between atoms: C_6  and  C_9
REMARK    4  A    between atoms: C_11  and  C_30
REMARK    5  A    between atoms: C_12  and  C_17
REMARK    6  A    between atoms: C_17  and  N_18
REMARK    7  A    between atoms: N_21  and  C_24
REMARK    8  A    between atoms: C_30  and  O_32
REMARK    9  A    between atoms: O_32  and  C_33
REMARK   10  A    between atoms: C_33  and  C_34
REMARK                            x       y       z     vdW  Elec       q    Type
REMARK                         _______ _______ _______ _____ _____    ______ ____
ROOT
ATOM      1  C   UNL     1       3.022  -2.055   4.717  0.00  0.00    +0.144 C 
ATOM      2  C   UNL     1       2.825  -3.549   4.876  0.00  0.00    +0.079 C 
ATOM      3  C   UNL     1       2.055  -3.976   5.900  0.00  0.00    +0.038 C 
ATOM      4  N   UNL     1       1.474  -3.090   6.762  0.00  0.00    -0.271 N 
ATOM      5  C   UNL     1       1.614  -1.762   6.668  0.00  0.00    +0.304 C 
ATOM      6  O   UNL     1       1.057  -1.052   7.483  0.00  0.00    -0.252 OA
ATOM      7  N   UNL     1       2.351  -1.186   5.699  0.00  0.00    -0.288 N 
ATOM      8  H   UNL     1       0.928  -3.443   7.482  0.00  0.00    +0.156 HD
ATOM      9  H   UNL     1       2.439  -0.221   5.649  0.00  0.00    +0.151 HD
ENDROOT
BRANCH   1  13
ATOM     10  C   UNL     1       1.644  -0.955   0.826  0.00  0.00    -0.048 A 
ATOM     11  C   UNL     1       2.988  -1.196   1.041  0.00  0.00    +0.004 A 
ATOM     12  C   UNL     1       3.434  -1.551   2.300  0.00  0.00    +0.006 A 
ATOM     13  C   UNL     1       2.536  -1.666   3.344  0.00  0.00    -0.022 A 
ATOM     14  C   UNL     1       1.192  -1.425   3.130  0.00  0.00    +0.006 A 
ATOM     15  C   UNL     1       0.746  -1.065   1.871  0.00  0.00    +0.004 A 
BRANCH  10  17
ATOM     16  C   UNL     1       1.197   0.956  -0.691  0.00  0.00    +0.009 C 
ATOM     17  C   UNL     1       1.158  -0.567  -0.547  0.00  0.00    +0.032 C 
ENDBRANCH  10  17
ENDBRANCH   1  13
BRANCH   2  18
ATOM     18  C   UNL     1       3.427  -4.465   3.982  0.00  0.00    +0.339 C 
ATOM     19  O   UNL     1       3.353  -5.661   4.195  0.00  0.00    -0.245 OA
BRANCH  18  20
ATOM     20  O   UNL     1       4.084  -4.013   2.894  0.00  0.00    -0.462 OA
BRANCH  20  21
ATOM     21  C   UNL     1       4.668  -4.995   2.034  0.00  0.00    +0.229 C 
ATOM     22  C   UNL     1       5.364  -4.298   0.864  0.00  0.00    +0.048 C 
ENDBRANCH  20  21
ENDBRANCH  18  20
ENDBRANCH   2  18
BRANCH   3  23
ATOM     23  C   UNL     1       1.833  -5.454   6.094  0.00  0.00    +0.135 C 
BRANCH  23  24
ATOM     24  N   UNL     1       2.943  -6.017   6.873  0.00  0.00    -0.300 NA
ATOM     25  C   UNL     1       2.873  -5.590   8.277  0.00  0.00    +0.066 C 
ATOM     26  C   UNL     1       4.077  -6.148   9.039  0.00  0.00    -0.063 C 
ATOM     27  N   UNL     1       4.072  -7.615   8.955  0.00  0.00    +0.383 N 
ATOM     28  C   UNL     1       4.168  -8.026   7.548  0.00  0.00    -0.063 C 
ATOM     29  C   UNL     1       2.965  -7.484   6.774  0.00  0.00    +0.066 C 
ATOM     30  H   UNL     1       3.216  -7.972   9.352  0.00  0.00    -0.081 HD
BRANCH  27  31
ATOM     31  C   UNL     1       5.218  -8.151   9.701  0.00  0.00    -0.068 C 
ATOM     32  C   UNL     1       5.118  -7.724  11.166  0.00  0.00    -0.015 C 
ATOM     33  C   UNL     1       6.311  -8.283  11.944  0.00  0.00    -0.002 C 
ATOM     34  C   UNL     1       6.307  -9.810  11.856  0.00  0.00    -0.000 C 
ATOM     35  C   UNL     1       6.408 -10.237  10.390  0.00  0.00    -0.002 C 
ATOM     36  C   UNL     1       5.214  -9.679   9.613  0.00  0.00    -0.015 C 
ENDBRANCH  27  31
ENDBRANCH  23  24
ENDBRANCH   3  23
TORSDOF 8
