REMARK  Name = ZINC40701778
REMARK  7 active torsions:
REMARK  status: ('A' for Active; 'I' for Inactive)
REMARK    1  A    between atoms: C_4  and  N_7
REMARK    2  A    between atoms: N_7  and  C_8
REMARK    3  A    between atoms: N_7  and  N_14
REMARK    4  A    between atoms: C_16  and  N_32
REMARK    5  A    between atoms: C_17  and  N_21
REMARK    6  A    between atoms: N_21  and  C_22
REMARK    7  A    between atoms: C_27  and  C_28
REMARK                            x       y       z     vdW  Elec       q    Type
REMARK                         _______ _______ _______ _____ _____    ______ ____
ROOT
ATOM      1  N   UNL     1       4.312   1.016  -0.260  0.00  0.00    -0.242 N 
ATOM      2  C   UNL     1       5.452   0.926   0.530  0.00  0.00    +0.161 A 
ATOM      3  C   UNL     1       6.700   1.283   0.015  0.00  0.00    +0.105 A 
ATOM      4  C   UNL     1       7.813   1.174   0.851  0.00  0.00    +0.126 A 
ATOM      5  N   UNL     1       7.643   0.737   2.097  0.00  0.00    -0.333 N 
ATOM      6  C   UNL     1       6.448   0.410   2.543  0.00  0.00    +0.200 A 
ATOM      7  N   UNL     1       5.371   0.504   1.789  0.00  0.00    -0.219 NA
ATOM      8  H   UNL     1       4.380   1.325  -1.177  0.00  0.00    +0.172 HD
ATOM      9  H   UNL     1       8.411   0.657   2.685  0.00  0.00    +0.168 HD
ENDROOT
BRANCH   3  10
ATOM     10  N   UNL     1       6.833   1.739  -1.306  0.00  0.00    -0.353 N 
ATOM     11  H   UNL     1       6.051   1.809  -1.875  0.00  0.00    +0.143 HD
ATOM     12  H   UNL     1       7.706   1.983  -1.650  0.00  0.00    +0.143 HD
ENDBRANCH   3  10
BRANCH   4  13
ATOM     13  N   UNL     1       9.079   1.516   0.389  0.00  0.00    -0.299 N 
ATOM     14  H   UNL     1       9.200   1.800  -0.531  0.00  0.00    +0.154 HD
BRANCH  13  15
ATOM     15  C   UNL     1      10.178   1.451   1.250  0.00  0.00    +0.044 A 
ATOM     16  C   UNL     1      10.628   2.598   1.893  0.00  0.00    +0.024 A 
ATOM     17  C   UNL     1      11.714   2.530   2.743  0.00  0.00    +0.002 A 
ATOM     18  C   UNL     1      12.354   1.322   2.955  0.00  0.00    +0.001 A 
ATOM     19  C   UNL     1      11.909   0.179   2.317  0.00  0.00    +0.014 A 
ATOM     20  C   UNL     1      10.820   0.239   1.469  0.00  0.00    +0.076 A 
BRANCH  20  21
ATOM     21  C   UNL     1      10.332  -1.009   0.779  0.00  0.00    +0.419 C 
ATOM     22  F   UNL     1      11.132  -2.093   1.155  0.00  0.00    -0.166 F 
ATOM     23  F   UNL     1       9.005  -1.258   1.148  0.00  0.00    -0.166 F 
ATOM     24  F   UNL     1      10.406  -0.834  -0.607  0.00  0.00    -0.166 F 
ENDBRANCH  20  21
ENDBRANCH  13  15
ENDBRANCH   4  13
BRANCH   1  25
ATOM     25  N   UNL     1       3.064   0.660   0.269  0.00  0.00    -0.221 N 
BRANCH  25  29
ATOM     26  C   UNL     1       0.324   3.619   1.307  0.00  0.00    +0.000 A 
ATOM     27  C   UNL     1       1.614   3.668   1.804  0.00  0.00    +0.002 A 
ATOM     28  C   UNL     1       2.525   2.688   1.462  0.00  0.00    +0.025 A 
ATOM     29  C   UNL     1       2.145   1.653   0.618  0.00  0.00    +0.053 A 
ATOM     30  C   UNL     1       0.848   1.606   0.120  0.00  0.00    +0.025 A 
ATOM     31  C   UNL     1      -0.058   2.590   0.466  0.00  0.00    +0.002 A 
ENDBRANCH  25  29
BRANCH  25  32
ATOM     32  C   UNL     1       2.739  -0.687   0.448  0.00  0.00    +0.053 A 
ATOM     33  C   UNL     1       3.575  -1.677  -0.054  0.00  0.00    +0.025 A 
ATOM     34  C   UNL     1       3.251  -3.007   0.124  0.00  0.00    +0.002 A 
ATOM     35  C   UNL     1       2.096  -3.355   0.801  0.00  0.00    +0.000 A 
ATOM     36  C   UNL     1       1.262  -2.372   1.301  0.00  0.00    +0.002 A 
ATOM     37  C   UNL     1       1.583  -1.039   1.132  0.00  0.00    +0.025 A 
ENDBRANCH  25  32
ENDBRANCH   1  25
TORSDOF 7
