REMARK  Name = ZINC46053930
REMARK  5 active torsions:
REMARK  status: ('A' for Active; 'I' for Inactive)
REMARK    1  A    between atoms: C_1  and  C_2
REMARK    2  A    between atoms: C_2  and  C_23
REMARK    3  A    between atoms: C_6  and  S_14
REMARK    4  A    between atoms: N_10  and  C_13
REMARK    5  A    between atoms: S_14  and  N_17
REMARK                            x       y       z     vdW  Elec       q    Type
REMARK                         _______ _______ _______ _____ _____    ______ ____
ROOT
ATOM      1  C   UNL     1      -0.018   1.503   0.010  0.00  0.00    +0.039 C 
ATOM      2  C   UNL     1       0.002  -0.004   0.002  0.00  0.00    -0.063 C 
ATOM      3  C   UNL     1       0.022  -0.682   1.163  0.00  0.00    +0.045 C 
ATOM      4  C   UNL     1       0.050  -2.155   1.350  0.00  0.00    +0.010 A 
ATOM      5  C   UNL     1       0.063  -3.225   0.465  0.00  0.00    +0.039 A 
ATOM      6  C   UNL     1       0.090  -4.517   0.952  0.00  0.00    +0.106 A 
ATOM      7  C   UNL     1       0.103  -4.742   2.318  0.00  0.00    +0.030 A 
ATOM      8  C   UNL     1       0.091  -3.685   3.205  0.00  0.00    +0.026 A 
ATOM      9  C   UNL     1       0.065  -2.377   2.731  0.00  0.00    +0.044 A 
ATOM     10  N   UNL     1       0.048  -1.155   3.396  0.00  0.00    -0.270 N 
ATOM     11  C   UNL     1       0.028  -0.125   2.534  0.00  0.00    +0.251 C 
ATOM     12  O   UNL     1       0.015   1.056   2.827  0.00  0.00    -0.270 OA
ATOM     13  C   UNL     1       0.056  -1.010   4.854  0.00  0.00    +0.138 C 
ATOM     14  C   UNL     1      -0.000  -0.750  -1.307  0.00  0.00    +0.039 C 
ENDROOT
BRANCH   6  15
ATOM     15  S   UNL     1       0.106  -5.880  -0.165  0.00  0.00    +0.061 S 
ATOM     16  O   UNL     1      -0.420  -6.993   0.545  0.00  0.00    -0.153 OA
ATOM     17  O   UNL     1      -0.463  -5.414  -1.381  0.00  0.00    -0.153 OA
BRANCH  15  18
ATOM     18  N   UNL     1       1.692  -6.230  -0.487  0.00  0.00    -0.177 NA
ATOM     19  C   UNL     1       2.389  -5.582  -1.607  0.00  0.00    +0.109 C 
ATOM     20  C   UNL     1       3.674  -4.936  -1.080  0.00  0.00    +0.017 C 
ATOM     21  C   UNL     1       4.507  -5.990  -0.346  0.00  0.00    +0.003 C 
ATOM     22  C   UNL     1       3.713  -6.529   0.846  0.00  0.00    +0.017 C 
ATOM     23  C   UNL     1       2.431  -7.189   0.345  0.00  0.00    +0.109 C 
ENDBRANCH  15  18
ENDBRANCH   6  15
TORSDOF 2
