REMARK  Name = ZINC08914669
REMARK  8 active torsions:
REMARK  status: ('A' for Active; 'I' for Inactive)
REMARK    1  A    between atoms: C_1  and  C_2
REMARK    2  A    between atoms: C_2  and  C_3
REMARK    3  A    between atoms: C_3  and  C_5
REMARK    4  A    between atoms: C_3  and  C_6
REMARK    5  A    between atoms: C_6  and  C_8
REMARK    6  A    between atoms: C_6  and  N_20
REMARK    7  A    between atoms: N_10  and  C_11
REMARK    8  A    between atoms: C_21  and  C_23
REMARK                            x       y       z     vdW  Elec       q    Type
REMARK                         _______ _______ _______ _____ _____    ______ ____
ROOT
ATOM      1  C   UNL     1      -0.794   1.415   0.956  0.00  0.00    +0.162 C 
ENDROOT
BRANCH   1   2
ATOM      2  C   UNL     1      -1.546   2.557   0.322  0.00  0.00    +0.238 C 
ATOM      3  O   UNL     1      -1.098   3.683   0.376  0.00  0.00    -0.273 OA
ATOM      4  N   UNL     1      -2.717   2.327  -0.305  0.00  0.00    -0.284 N 
ATOM      5  H   UNL     1      -3.111   1.441  -0.287  0.00  0.00    +0.155 HD
BRANCH   4   6
ATOM      6  C   UNL     1      -3.364   3.368  -0.984  0.00  0.00    +0.037 A 
ATOM      7  C   UNL     1      -2.620   4.379  -1.576  0.00  0.00    +0.027 A 
ATOM      8  C   UNL     1      -3.257   5.404  -2.250  0.00  0.00    +0.051 A 
ATOM      9  C   UNL     1      -4.640   5.431  -2.328  0.00  0.00    +0.166 A 
ATOM     10  C   UNL     1      -5.389   4.420  -1.730  0.00  0.00    +0.168 A 
ATOM     11  C   UNL     1      -4.750   3.391  -1.059  0.00  0.00    +0.072 A 
ATOM     12  O   UNL     1      -6.713   4.673  -1.946  0.00  0.00    -0.453 OA
ATOM     13  C   UNL     1      -6.783   6.060  -2.328  0.00  0.00    +0.466 C 
ATOM     14  O   UNL     1      -5.495   6.317  -2.919  0.00  0.00    -0.453 OA
ENDBRANCH   4   6
ENDBRANCH   1   2
BRANCH   1  15
ATOM     15  N   UNL     1       0.404   1.931   1.623  0.00  0.00    -0.305 N 
ATOM     16  C   UNL     1       0.803   1.400   2.795  0.00  0.00    +0.200 C 
ATOM     17  O   UNL     1       0.229   0.433   3.250  0.00  0.00    -0.278 OA
ATOM     18  H   UNL     1       0.910   2.654   1.220  0.00  0.00    +0.149 HD
BRANCH  16  19
ATOM     19  C   UNL     1       1.963   2.007   3.542  0.00  0.00    +0.021 C 
ATOM     20  C   UNL     1       3.278   1.530   2.924  0.00  0.00    +0.028 C 
ATOM     21  C   UNL     1       4.435   1.930   3.803  0.00  0.00    -0.047 A 
ATOM     22  C   UNL     1       5.713   1.911   3.264  0.00  0.00    +0.004 A 
ATOM     23  C   UNL     1       6.801   2.266   4.036  0.00  0.00    +0.000 A 
ATOM     24  C   UNL     1       6.615   2.643   5.354  0.00  0.00    +0.000 A 
ATOM     25  C   UNL     1       5.344   2.664   5.890  0.00  0.00    +0.002 A 
ATOM     26  C   UNL     1       4.249   2.309   5.115  0.00  0.00    -0.061 A 
ATOM     27  C   UNL     1       2.881   2.357   5.743  0.00  0.00    -0.045 C 
ATOM     28  N   UNL     1       1.922   1.575   4.951  0.00  0.00    +0.389 N 
ATOM     29  H   UNL     1       2.165   0.579   5.008  0.00  0.00    -0.084 HD
ATOM     30  H   UNL     1       0.976   1.718   5.323  0.00  0.00    -0.084 HD
ENDBRANCH  16  19
ENDBRANCH   1  15
BRANCH   1  31
ATOM     31  C   UNL     1      -0.385   0.412  -0.125  0.00  0.00    +0.015 C 
ATOM     32  C   UNL     1       0.224  -0.827   0.534  0.00  0.00    +0.010 C 
BRANCH  31  34
ATOM     33  C   UNL     1      -0.012   2.187  -1.844  0.00  0.00    +0.004 C 
ATOM     34  C   UNL     1       0.648   1.055  -1.053  0.00  0.00    +0.002 C 
ENDBRANCH  31  34
ENDBRANCH   1  31
TORSDOF 6
