REMARK  Name = ZINC66318158
REMARK  3 active torsions:
REMARK  status: ('A' for Active; 'I' for Inactive)
REMARK    1  A    between atoms: C_7  and  C_9
REMARK    2  A    between atoms: C_9  and  S_10
REMARK    3  A    between atoms: S_10  and  C_11
REMARK                            x       y       z     vdW  Elec       q    Type
REMARK                         _______ _______ _______ _____ _____    ______ ____
ROOT
ATOM      1  S   UNL     1      -1.125  -5.207  -0.015  0.00  0.00    -0.077 S 
ENDROOT
BRANCH   1   2
ATOM      2  C   UNL     1      -0.712  -6.920  -0.028  0.00  0.00    +0.191 A 
ATOM      3  N   UNL     1       0.508  -7.401  -0.042  0.00  0.00    -0.201 NA
ATOM      4  C   UNL     1       0.466  -8.757  -0.049  0.00  0.00    +0.181 A 
ATOM      5  C   UNL     1      -0.892  -9.125  -0.039  0.00  0.00    +0.112 A 
ATOM      6  N   UNL     1      -1.615  -7.945  -0.020  0.00  0.00    -0.219 NA
ATOM      7  C   UNL     1      -1.235 -10.468  -0.043  0.00  0.00    +0.053 A 
ATOM      8  C   UNL     1      -0.212 -11.406  -0.057  0.00  0.00    +0.061 A 
ATOM      9  C   UNL     1       1.105 -10.978  -0.067  0.00  0.00    +0.133 A 
ATOM     10  N   UNL     1       1.409  -9.697  -0.062  0.00  0.00    -0.233 NA
ATOM     11 CL   UNL     1      -0.581 -13.103  -0.063  0.00  0.00    -0.082 Cl
ENDBRANCH   1   2
BRANCH   1  12
ATOM     12  C   UNL     1       0.483  -4.368  -0.026  0.00  0.00    +0.173 C 
BRANCH  12  19
ATOM     13  C   UNL     1      -0.016   1.316   0.009  0.00  0.00    +0.120 A 
ATOM     14  C   UNL     1       1.183   1.948   0.001  0.00  0.00    +0.068 A 
ATOM     15  S   UNL     1       2.296   0.552  -0.017  0.00  0.00    -0.061 S 
ATOM     16  C   UNL     1       1.137  -0.669  -0.012  0.00  0.00    +0.164 A 
ATOM     17  N   UNL     1       0.002  -0.004   0.002  0.00  0.00    -0.233 NA
ATOM     18  N   UNL     1       1.333  -2.045  -0.022  0.00  0.00    -0.264 N 
ATOM     19  C   UNL     1       0.272  -2.876  -0.016  0.00  0.00    +0.229 C 
ATOM     20  O   UNL     1      -0.854  -2.423  -0.003  0.00  0.00    -0.275 OA
ATOM     21  H   UNL     1       2.232  -2.407  -0.032  0.00  0.00    +0.157 HD
ENDBRANCH  12  19
ENDBRANCH   1  12
TORSDOF 3
