REMARK  Name = ZINC64044025
REMARK  8 active torsions:
REMARK  status: ('A' for Active; 'I' for Inactive)
REMARK    1  A    between atoms: C_1  and  C_2
REMARK    2  A    between atoms: C_4  and  C_8
REMARK    3  A    between atoms: C_8  and  C_9
REMARK    4  A    between atoms: C_9  and  N_10
REMARK    5  A    between atoms: N_10  and  C_11
REMARK    6  A    between atoms: C_11  and  C_12
REMARK    7  A    between atoms: N_15  and  C_26
REMARK    8  A    between atoms: C_17  and  C_19
REMARK                            x       y       z     vdW  Elec       q    Type
REMARK                         _______ _______ _______ _____ _____    ______ ____
ROOT
ATOM      1  C   UNL     1      -6.155   6.229  -5.378  0.00  0.00    +0.014 C 
ATOM      2  C   UNL     1      -6.483   5.424  -6.658  0.00  0.00    +0.127 C 
ATOM      3  N   UNL     1      -6.120   6.306  -7.779  0.00  0.00    -0.266 N 
ATOM      4  N   UNL     1      -5.571   7.466  -7.298  0.00  0.00    -0.232 NA
ATOM      5  C   UNL     1      -6.121   7.679  -5.934  0.00  0.00    +0.107 C 
ATOM      6  H   UNL     1      -5.787   8.246  -7.901  0.00  0.00    +0.145 HD
ENDROOT
BRANCH   5   7
ATOM      7  C   UNL     1      -5.208   8.551  -5.112  0.00  0.00    -0.010 A 
ATOM      8  C   UNL     1      -3.929   8.828  -5.559  0.00  0.00    +0.006 A 
ATOM      9  C   UNL     1      -3.091   9.628  -4.806  0.00  0.00    +0.000 A 
ATOM     10  C   UNL     1      -3.530  10.151  -3.604  0.00  0.00    +0.001 A 
ATOM     11  C   UNL     1      -4.808   9.875  -3.155  0.00  0.00    +0.020 A 
ATOM     12  C   UNL     1      -5.650   9.079  -3.912  0.00  0.00    +0.046 A 
ATOM     13 CL   UNL     1      -7.257   8.736  -3.353  0.00  0.00    -0.083 Cl
ENDBRANCH   5   7
BRANCH   3  14
ATOM     14  C   UNL     1      -6.307   6.005  -9.131  0.00  0.00    +0.045 A 
ATOM     15  C   UNL     1      -6.881   4.796  -9.502  0.00  0.00    +0.027 A 
ATOM     16  C   UNL     1      -7.065   4.501 -10.838  0.00  0.00    +0.040 A 
ATOM     17  C   UNL     1      -6.679   5.410 -11.809  0.00  0.00    +0.124 A 
ATOM     18  C   UNL     1      -6.107   6.616 -11.442  0.00  0.00    +0.040 A 
ATOM     19  C   UNL     1      -5.925   6.917 -10.106  0.00  0.00    +0.027 A 
ATOM     20  F   UNL     1      -6.860   5.119 -13.116  0.00  0.00    -0.205 F 
ENDBRANCH   3  14
BRANCH   1  21
ATOM     21  C   UNL     1      -4.793   5.827  -4.807  0.00  0.00    -0.076 C 
BRANCH  21  22
ATOM     22  N   UNL     1      -4.875   4.467  -4.257  0.00  0.00    +0.380 N 
ATOM     23  H   UNL     1      -5.137   3.824  -4.989  0.00  0.00    -0.086 HD
ATOM     24  H   UNL     1      -5.568   4.442  -3.524  0.00  0.00    -0.086 HD
BRANCH  22  25
ATOM     25  C   UNL     1      -3.568   4.081  -3.710  0.00  0.00    -0.075 C 
BRANCH  25  26
ATOM     26  C   UNL     1      -3.654   2.665  -3.137  0.00  0.00    +0.055 C 
BRANCH  26  30
ATOM     27  C   UNL     1      -0.013   1.086   0.008  0.00  0.00    +0.065 C 
ATOM     28  C   UNL     1      -0.742   1.585  -1.213  0.00  0.00    +0.032 A 
ATOM     29  N   UNL     1      -2.083   1.839  -1.315  0.00  0.00    -0.346 N 
ATOM     30  C   UNL     1      -2.313   2.268  -2.575  0.00  0.00    +0.105 A 
ATOM     31  H   UNL     1      -2.744   1.732  -0.614  0.00  0.00    +0.167 HD
ATOM     32  N   UNL     1      -1.181   2.282  -3.225  0.00  0.00    -0.241 NA
ATOM     33  C   UNL     1      -0.198   1.872  -2.411  0.00  0.00    +0.133 A 
ENDBRANCH  26  30
ENDBRANCH  25  26
ENDBRANCH  22  25
ENDBRANCH  21  22
ENDBRANCH   1  21
TORSDOF 7
