REMARK  Name = ZINC66939890
REMARK  12 active torsions:
REMARK  status: ('A' for Active; 'I' for Inactive)
REMARK    1  A    between atoms: C_1  and  C_2
REMARK    2  A    between atoms: C_2  and  C_4
REMARK    3  A    between atoms: C_2  and  N_16
REMARK    4  A    between atoms: C_4  and  C_5
REMARK    5  A    between atoms: C_5  and  C_6
REMARK    6  A    between atoms: C_9  and  O_12
REMARK    7  A    between atoms: O_12  and  C_13
REMARK    8  A    between atoms: C_13  and  C_14
REMARK    9  A    between atoms: C_13  and  C_15
REMARK   10  A    between atoms: N_16  and  C_17
REMARK   11  A    between atoms: C_17  and  C_19
REMARK   12  A    between atoms: C_17  and  C_26
REMARK                            x       y       z     vdW  Elec       q    Type
REMARK                         _______ _______ _______ _____ _____    ______ ____
ROOT
ATOM      1  N   UNL     1      -1.144  -0.787  -0.226  0.00  0.00    +0.391 N 
ATOM      2  H   UNL     1      -1.076  -1.374   0.592  0.00  0.00    -0.084 HD
ATOM      3  H   UNL     1      -1.591   0.084   0.020  0.00  0.00    -0.084 HD
ENDROOT
BRANCH   1   5
ATOM      4  C   UNL     1       0.113   0.491  -1.895  0.00  0.00    -0.014 C 
ATOM      5  C   UNL     1       0.203  -0.515  -0.746  0.00  0.00    -0.073 C 
BRANCH   5   6
ATOM      6  C   UNL     1       1.075   0.062   0.371  0.00  0.00    -0.011 C 
BRANCH   6   7
ATOM      7  C   UNL     1       1.268  -0.992   1.463  0.00  0.00    +0.033 C 
BRANCH   7   8
ATOM      8  C   UNL     1       2.126  -0.423   2.564  0.00  0.00    -0.047 A 
ATOM      9  C   UNL     1       3.501  -0.557   2.506  0.00  0.00    +0.007 A 
ATOM     10  C   UNL     1       4.290  -0.037   3.513  0.00  0.00    +0.046 A 
ATOM     11  C   UNL     1       3.702   0.621   4.584  0.00  0.00    +0.121 A 
ATOM     12  C   UNL     1       2.322   0.755   4.639  0.00  0.00    +0.046 A 
ATOM     13  C   UNL     1       1.538   0.238   3.626  0.00  0.00    +0.007 A 
BRANCH  11  14
ATOM     14  O   UNL     1       4.476   1.133   5.576  0.00  0.00    -0.489 OA
BRANCH  14  15
ATOM     15  C   UNL     1       5.892   1.066   5.395  0.00  0.00    +0.167 C 
ATOM     16  C   UNL     1       6.564   2.171   6.213  0.00  0.00    +0.051 C 
ATOM     17  C   UNL     1       6.402  -0.298   5.864  0.00  0.00    +0.051 C 
ENDBRANCH  14  15
ENDBRANCH  11  14
ENDBRANCH   7   8
ENDBRANCH   6   7
ENDBRANCH   5   6
ENDBRANCH   1   5
BRANCH   1  18
ATOM     18  C   UNL     1      -1.938  -1.471  -1.256  0.00  0.00    +0.047 C 
BRANCH  18  19
ATOM     19  C   UNL     1      -1.341  -2.826  -1.532  0.00  0.00    -0.053 A 
ATOM     20  C   UNL     1      -0.862  -3.597  -0.489  0.00  0.00    +0.005 A 
ATOM     21  C   UNL     1      -0.315  -4.840  -0.742  0.00  0.00    +0.038 A 
ATOM     22  C   UNL     1      -0.245  -5.314  -2.041  0.00  0.00    +0.123 A 
ATOM     23  C   UNL     1      -0.725  -4.542  -3.085  0.00  0.00    +0.038 A 
ATOM     24  C   UNL     1      -1.276  -3.301  -2.829  0.00  0.00    +0.005 A 
ATOM     25  F   UNL     1       0.290  -6.530  -2.289  0.00  0.00    -0.205 F 
ENDBRANCH  18  19
BRANCH  18  26
ATOM     26  C   UNL     1      -3.355  -1.636  -0.770  0.00  0.00    +0.201 C 
ATOM     27  O   UNL     1      -3.589  -1.659   0.420  0.00  0.00    -0.277 OA
ATOM     28  N   UNL     1      -4.361  -1.758  -1.657  0.00  0.00    -0.330 N 
ATOM     29  H   UNL     1      -4.174  -1.739  -2.609  0.00  0.00    +0.145 HD
ATOM     30  H   UNL     1      -5.274  -1.864  -1.345  0.00  0.00    +0.145 HD
ENDBRANCH  18  26
ENDBRANCH   1  18
TORSDOF 9
