REMARK  Name = ZINC21324911
REMARK  14 active torsions:
REMARK  status: ('A' for Active; 'I' for Inactive)
REMARK    1  A    between atoms: C_1  and  C_2
REMARK    2  A    between atoms: C_7  and  N_8
REMARK    3  A    between atoms: C_9  and  C_11
REMARK    4  A    between atoms: C_11  and  N_12
REMARK    5  A    between atoms: N_12  and  C_13
REMARK    6  A    between atoms: N_12  and  C_25
REMARK    7  A    between atoms: C_13  and  C_14
REMARK    8  A    between atoms: N_16  and  C_17
REMARK    9  A    between atoms: C_18  and  C_24
REMARK   10  A    between atoms: C_22  and  C_23
REMARK   11  A    between atoms: C_25  and  C_26
REMARK   12  A    between atoms: N_28  and  C_29
REMARK   13  A    between atoms: C_30  and  C_36
REMARK   14  A    between atoms: C_34  and  C_35
REMARK                            x       y       z     vdW  Elec       q    Type
REMARK                         _______ _______ _______ _____ _____    ______ ____
ROOT
ATOM      1  N   UNL     1       4.061   2.486   3.947  0.00  0.00    +0.397 N 
ATOM      2  H   UNL     1       4.276   2.537   2.870  0.00  0.00    -0.080 HD
ENDROOT
BRANCH   1   3
ATOM      3  C   UNL     1       3.932   3.861   4.448  0.00  0.00    +0.020 C 
BRANCH   3   5
ATOM      4  N   UNL     1       2.671   5.907   3.864  0.00  0.00    -0.287 N 
ATOM      5  C   UNL     1       2.946   4.616   3.594  0.00  0.00    +0.201 C 
ATOM      6  O   UNL     1       2.404   4.062   2.660  0.00  0.00    -0.278 OA
ATOM      7  H   UNL     1       3.100   6.386   4.756  0.00  0.00    +0.155 HD
BRANCH   4  14
ATOM      8  C   UNL     1       1.311   8.170   4.925  0.00  0.00    +0.045 C 
ATOM      9  C   UNL     1       1.156   7.750   3.487  0.00  0.00    -0.029 A 
ATOM     10  C   UNL     1       0.335   8.470   2.641  0.00  0.00    +0.005 A 
ATOM     11  C   UNL     1       0.192   8.085   1.320  0.00  0.00    +0.000 A 
ATOM     12  C   UNL     1       0.870   6.979   0.842  0.00  0.00    +0.002 A 
ATOM     13  C   UNL     1       1.696   6.257   1.682  0.00  0.00    +0.023 A 
ATOM     14  C   UNL     1       1.838   6.638   3.010  0.00  0.00    +0.036 A 
ENDBRANCH   4  14
ENDBRANCH   3   5
ENDBRANCH   1   3
BRANCH   1  15
ATOM     15  C   UNL     1       5.180   1.792   4.599  0.00  0.00    +0.020 C 
BRANCH  15  16
ATOM     16  C   UNL     1       6.481   2.270   4.007  0.00  0.00    +0.201 C 
ATOM     17  O   UNL     1       6.474   3.032   3.064  0.00  0.00    -0.278 OA
ATOM     18  N   UNL     1       7.652   1.851   4.527  0.00  0.00    -0.287 N 
ATOM     19  H   UNL     1       7.659   1.126   5.354  0.00  0.00    +0.155 HD
BRANCH  18  20
ATOM     20  C   UNL     1       8.859   2.338   4.014  0.00  0.00    +0.039 A 
ATOM     21  C   UNL     1       9.152   2.189   2.664  0.00  0.00    -0.029 A 
ATOM     22  C   UNL     1      10.342   2.676   2.160  0.00  0.00    +0.005 A 
ATOM     23  C   UNL     1      11.246   3.300   2.999  0.00  0.00    +0.001 A 
ATOM     24  C   UNL     1      10.960   3.445   4.345  0.00  0.00    +0.005 A 
ATOM     25  C   UNL     1       9.769   2.966   4.854  0.00  0.00    -0.029 A 
ATOM     26  C   UNL     1       9.458   3.124   6.320  0.00  0.00    +0.045 C 
ATOM     27  C   UNL     1       8.170   1.504   1.750  0.00  0.00    +0.045 C 
ENDBRANCH  18  20
ENDBRANCH  15  16
ENDBRANCH   1  15
BRANCH   1  28
ATOM     28  C   UNL     1       2.807   1.742   4.122  0.00  0.00    +0.020 C 
BRANCH  28  29
ATOM     29  C   UNL     1       2.828   0.510   3.254  0.00  0.00    +0.201 C 
ATOM     30  O   UNL     1       3.787   0.283   2.548  0.00  0.00    -0.278 OA
ATOM     31  N   UNL     1       1.781  -0.338   3.263  0.00  0.00    -0.287 N 
ATOM     32  H   UNL     1       0.892  -0.110   3.870  0.00  0.00    +0.155 HD
BRANCH  31  33
ATOM     33  C   UNL     1       1.824  -1.510   2.500  0.00  0.00    +0.039 A 
ATOM     34  C   UNL     1       2.038  -1.441   1.130  0.00  0.00    -0.029 A 
ATOM     35  C   UNL     1       2.085  -2.600   0.380  0.00  0.00    +0.005 A 
ATOM     36  C   UNL     1       1.908  -3.828   0.991  0.00  0.00    +0.001 A 
ATOM     37  C   UNL     1       1.689  -3.900   2.355  0.00  0.00    +0.005 A 
ATOM     38  C   UNL     1       1.646  -2.745   3.111  0.00  0.00    -0.029 A 
ATOM     39  C   UNL     1       1.408  -2.825   4.597  0.00  0.00    +0.045 C 
ATOM     40  C   UNL     1       2.225  -0.103   0.463  0.00  0.00    +0.045 C 
ENDBRANCH  31  33
ENDBRANCH  28  29
ENDBRANCH   1  28
TORSDOF 9
