REMARK  Name = ZINC09660256
REMARK  5 active torsions:
REMARK  status: ('A' for Active; 'I' for Inactive)
REMARK    1  A    between atoms: C_4  and  N_7
REMARK    2  A    between atoms: N_7  and  N_8
REMARK    3  A    between atoms: C_10  and  C_20
REMARK    4  A    between atoms: C_15  and  O_16
REMARK    5  A    between atoms: N_22  and  C_23
REMARK                            x       y       z     vdW  Elec       q    Type
REMARK                         _______ _______ _______ _____ _____    ______ ____
ROOT
ATOM      1  N   UNL     1       3.648   6.286  -0.119  0.00  0.00    -0.276 N 
ATOM      2  C   UNL     1       4.827   5.621  -0.231  0.00  0.00    +0.224 A 
ATOM      3  C   UNL     1       4.832   4.216  -0.223  0.00  0.00    +0.099 A 
ATOM      4  C   UNL     1       6.045   3.531  -0.343  0.00  0.00    +0.030 A 
ATOM      5  C   UNL     1       7.227   4.278  -0.464  0.00  0.00    +0.018 A 
ATOM      6  C   UNL     1       8.474   3.632  -0.589  0.00  0.00    +0.015 A 
ATOM      7  C   UNL     1       9.609   4.366  -0.705  0.00  0.00    +0.046 A 
ATOM      8  C   UNL     1       9.550   5.774  -0.702  0.00  0.00    +0.120 A 
ATOM      9  C   UNL     1       8.319   6.429  -0.578  0.00  0.00    +0.092 A 
ATOM     10  C   UNL     1       7.158   5.692  -0.460  0.00  0.00    +0.141 A 
ATOM     11  O   UNL     1       5.966   6.314  -0.342  0.00  0.00    -0.437 OA
ATOM     12  H   UNL     1       2.700   5.728  -0.113  0.00  0.00    +0.187 HD
ENDROOT
BRANCH   3  13
ATOM     13  C   UNL     1       3.569   3.470  -0.094  0.00  0.00    +0.253 C 
ATOM     14  O   UNL     1       2.509   4.066  -0.093  0.00  0.00    -0.270 OA
ATOM     15  N   UNL     1       3.587   2.128   0.023  0.00  0.00    -0.281 N 
ATOM     16  H   UNL     1       4.547   1.595   0.094  0.00  0.00    +0.155 HD
BRANCH  15  17
ATOM     17  C   UNL     1       2.386   1.412   0.053  0.00  0.00    +0.035 A 
ATOM     18  C   UNL     1       2.310   0.156  -0.535  0.00  0.00    +0.025 A 
ATOM     19  C   UNL     1       1.123  -0.549  -0.504  0.00  0.00    +0.023 A 
ATOM     20  C   UNL     1       0.009  -0.006   0.113  0.00  0.00    +0.059 A 
ATOM     21  C   UNL     1       0.083   1.245   0.701  0.00  0.00    +0.061 A 
ATOM     22  C   UNL     1       1.268   1.955   0.672  0.00  0.00    +0.044 A 
ATOM     23 CL   UNL     1      -1.316   1.923   1.475  0.00  0.00    -0.082 Cl
ATOM     24 CL   UNL     1      -1.481  -0.896   0.150  0.00  0.00    -0.082 Cl
ENDBRANCH  15  17
ENDBRANCH   3  13
BRANCH   1  25
ATOM     25  N   UNL     1       3.639   7.683  -0.011  0.00  0.00    -0.258 N 
ATOM     26  H   UNL     1       4.587   8.241  -0.016  0.00  0.00    +0.172 HD
BRANCH  25  30
ATOM     27  C   UNL     1       0.024   9.721   0.332  0.00  0.00    +0.000 A 
ATOM     28  C   UNL     1       1.215  10.424   0.325  0.00  0.00    +0.002 A 
ATOM     29  C   UNL     1       2.416   9.751   0.212  0.00  0.00    +0.024 A 
ATOM     30  C   UNL     1       2.426   8.366   0.105  0.00  0.00    +0.046 A 
ATOM     31  C   UNL     1       1.228   7.663   0.106  0.00  0.00    +0.024 A 
ATOM     32  C   UNL     1       0.031   8.342   0.226  0.00  0.00    +0.002 A 
ENDBRANCH  25  30
ENDBRANCH   1  25
BRANCH   8  33
ATOM     33  O   UNL     1      10.581   6.428  -0.807  0.00  0.00    -0.507 OA
ATOM     34  H   UNL     1      10.537   7.527  -0.805  0.00  0.00    +0.292 HD
ENDBRANCH   8  33
TORSDOF 5
