REMARK  Name = ZINC52565634
REMARK  6 active torsions:
REMARK  status: ('A' for Active; 'I' for Inactive)
REMARK    1  A    between atoms: C_10  and  C_11
REMARK    2  A    between atoms: C_11  and  C_12
REMARK    3  A    between atoms: C_12  and  N_13
REMARK    4  A    between atoms: C_16  and  N_19
REMARK    5  A    between atoms: N_19  and  C_20
REMARK    6  A    between atoms: C_20  and  C_21
REMARK                            x       y       z     vdW  Elec       q    Type
REMARK                         _______ _______ _______ _____ _____    ______ ____
ROOT
ATOM      1  N   UNL     1       4.352  -3.742   1.376  0.00  0.00    +0.380 N 
ATOM      2  C   UNL     1       4.115  -5.106   0.888  0.00  0.00    -0.077 C 
ATOM      3  C   UNL     1       5.445  -5.856   0.792  0.00  0.00    -0.000 C 
ATOM      4  C   UNL     1       6.094  -5.914   2.178  0.00  0.00    +0.051 C 
ATOM      5  C   UNL     1       6.269  -4.488   2.709  0.00  0.00    -0.000 C 
ATOM      6  C   UNL     1       4.908  -3.789   2.734  0.00  0.00    -0.077 C 
ATOM      7  H   UNL     1       5.004  -3.276   0.763  0.00  0.00    -0.082 HD
ENDROOT
BRANCH   4   8
ATOM      8  N   UNL     1       7.406  -6.566   2.079  0.00  0.00    -0.308 NA
ATOM      9  H   UNL     1       7.414  -7.253   1.340  0.00  0.00    +0.123 HD
BRANCH   8  10
ATOM     10  C   UNL     1       7.793  -7.169   3.362  0.00  0.00    +0.137 C 
BRANCH  10  11
ATOM     11  C   UNL     1       9.141  -7.826   3.222  0.00  0.00    +0.059 A 
ATOM     12  C   UNL     1      10.279  -7.131   3.585  0.00  0.00    +0.074 A 
ATOM     13  C   UNL     1      11.516  -7.751   3.451  0.00  0.00    +0.165 A 
ATOM     14  C   UNL     1      11.559  -9.052   2.956  0.00  0.00    +0.180 A 
ATOM     15  C   UNL     1      10.375  -9.680   2.613  0.00  0.00    +0.160 A 
ATOM     16  N   UNL     1       9.219  -9.059   2.759  0.00  0.00    -0.255 NA
ATOM     17  O   UNL     1      12.745  -9.702   2.813  0.00  0.00    -0.483 OA
ATOM     18  C   UNL     1      13.925  -8.891   2.824  0.00  0.00    +0.270 C 
ATOM     19  C   UNL     1      13.822  -7.900   3.991  0.00  0.00    +0.270 C 
ATOM     20  O   UNL     1      12.652  -7.096   3.796  0.00  0.00    -0.485 OA
ENDBRANCH  10  11
ENDBRANCH   8  10
ENDBRANCH   4   8
BRANCH   1  21
ATOM     21  C   UNL     1       3.084  -3.002   1.393  0.00  0.00    -0.074 C 
BRANCH  21  22
ATOM     22  C   UNL     1       2.566  -2.844  -0.038  0.00  0.00    +0.019 C 
BRANCH  22  32
ATOM     23  C   UNL     1      -0.017   1.400   0.056  0.00  0.00    +0.032 A 
ATOM     24  C   UNL     1       1.152   2.097   0.071  0.00  0.00    +0.051 A 
ATOM     25  C   UNL     1       2.387   1.443   0.059  0.00  0.00    +0.163 A 
ATOM     26  C   UNL     1       2.445   0.065   0.031  0.00  0.00    +0.171 A 
ATOM     27  C   UNL     1       1.249  -0.678   0.011  0.00  0.00    +0.050 A 
ATOM     28  C   UNL     1       0.002  -0.004   0.025  0.00  0.00    +0.075 A 
ATOM     29  N   UNL     1      -1.135  -0.708   0.007  0.00  0.00    -0.253 NA
ATOM     30  C   UNL     1      -1.125  -2.019  -0.023  0.00  0.00    +0.131 A 
ATOM     31  C   UNL     1       0.067  -2.743  -0.039  0.00  0.00    +0.063 A 
ATOM     32  C   UNL     1       1.265  -2.085  -0.021  0.00  0.00    -0.017 A 
ATOM     33 CL   UNL     1       0.029  -4.478  -0.079  0.00  0.00    -0.082 Cl
ATOM     34  O   UNL     1       3.638  -0.587   0.029  0.00  0.00    -0.484 OA
ATOM     35  C   UNL     1       4.793   0.182  -0.326  0.00  0.00    +0.270 C 
ATOM     36  C   UNL     1       4.736   1.510   0.440  0.00  0.00    +0.270 C 
ATOM     37  O   UNL     1       3.529   2.186   0.072  0.00  0.00    -0.485 OA
ENDBRANCH  22  32
ENDBRANCH  21  22
ENDBRANCH   1  21
TORSDOF 6
