REMARK  Name = ZINC38889362
REMARK  12 active torsions:
REMARK  status: ('A' for Active; 'I' for Inactive)
REMARK    1  A    between atoms: C_1  and  C_2
REMARK    2  A    between atoms: C_2  and  O_3
REMARK    3  A    between atoms: O_3  and  C_4
REMARK    4  A    between atoms: C_7  and  N_10
REMARK    5  A    between atoms: N_10  and  C_11
REMARK    6  A    between atoms: C_11  and  C_12
REMARK    7  A    between atoms: C_17  and  C_24
REMARK    8  A    between atoms: C_25  and  C_27
REMARK    9  A    between atoms: C_30  and  C_33
REMARK   10  A    between atoms: C_33  and  C_34
REMARK   11  A    between atoms: C_33  and  C_35
REMARK   12  A    between atoms: C_33  and  C_36
REMARK                            x       y       z     vdW  Elec       q    Type
REMARK                         _______ _______ _______ _____ _____    ______ ____
ROOT
ATOM      1  N   UNL     1       0.524  -5.698  -2.111  0.00  0.00    -0.266 N 
ATOM      2  C   UNL     1      -0.026  -6.536  -1.210  0.00  0.00    +0.251 C 
ATOM      3  O   UNL     1      -0.036  -6.239  -0.031  0.00  0.00    -0.270 OA
ENDROOT
BRANCH   1   7
ATOM      4  C   UNL     1       2.519  -2.270  -0.826  0.00  0.00    +0.121 A 
ATOM      5  C   UNL     1       2.168  -3.253   0.089  0.00  0.00    +0.047 A 
ATOM      6  C   UNL     1       1.508  -4.388  -0.336  0.00  0.00    +0.027 A 
ATOM      7  C   UNL     1       1.194  -4.546  -1.679  0.00  0.00    +0.037 A 
ATOM      8  C   UNL     1       1.545  -3.563  -2.595  0.00  0.00    +0.027 A 
ATOM      9  C   UNL     1       2.201  -2.425  -2.167  0.00  0.00    +0.047 A 
BRANCH   4  10
ATOM     10  O   UNL     1       3.171  -1.153  -0.407  0.00  0.00    -0.492 OA
BRANCH  10  12
ATOM     11  C   UNL     1       4.196   0.257   1.268  0.00  0.00    +0.048 C 
ATOM     12  C   UNL     1       3.467  -1.059   0.988  0.00  0.00    +0.225 C 
ENDBRANCH  10  12
ENDBRANCH   4  10
ENDBRANCH   1   7
BRANCH   2  13
ATOM     13  C   UNL     1      -0.616  -7.816  -1.655  0.00  0.00    +0.037 A 
ATOM     14  C   UNL     1      -0.077  -8.493  -2.751  0.00  0.00    +0.013 A 
ATOM     15  C   UNL     1      -0.633  -9.687  -3.160  0.00  0.00    +0.005 A 
ATOM     16  C   UNL     1      -1.722 -10.214  -2.488  0.00  0.00    -0.042 A 
ATOM     17  C   UNL     1      -2.260  -9.548  -1.402  0.00  0.00    +0.005 A 
ATOM     18  C   UNL     1      -1.710  -8.356  -0.977  0.00  0.00    +0.013 A 
BRANCH  16  19
ATOM     19  C   UNL     1      -2.324 -11.519  -2.942  0.00  0.00    -0.013 C 
ATOM     20  C   UNL     1      -1.268 -12.623  -2.863  0.00  0.00    +0.015 C 
ATOM     21  C   UNL     1      -3.505 -11.877  -2.039  0.00  0.00    +0.015 C 
ATOM     22  C   UNL     1      -2.810 -11.381  -4.387  0.00  0.00    +0.015 C 
ENDBRANCH  16  19
ENDBRANCH   2  13
BRANCH   1  23
ATOM     23  C   UNL     1       0.420  -5.992  -3.543  0.00  0.00    +0.131 C 
BRANCH  23  24
ATOM     24  C   UNL     1       1.823  -6.124  -4.139  0.00  0.00    +0.116 C 
ATOM     25  C   UNL     1       1.682  -6.207  -5.646  0.00  0.00    -0.003 C 
ATOM     26  C   UNL     1       2.192  -7.311  -6.262  0.00  0.00    -0.007 A 
ATOM     27  C   UNL     1       2.098  -7.472  -7.713  0.00  0.00    +0.012 A 
ATOM     28  C   UNL     1       2.620  -8.589  -8.283  0.00  0.00    -0.050 A 
ATOM     29  C   UNL     1       3.237  -9.576  -7.515  0.00  0.00    +0.005 A 
ATOM     30  C   UNL     1       3.356  -9.486  -6.164  0.00  0.00    +0.024 A 
ATOM     31  C   UNL     1       2.849  -8.369  -5.476  0.00  0.00    +0.040 A 
ATOM     32  N   UNL     1       2.972  -8.291  -4.151  0.00  0.00    -0.284 N 
ATOM     33  C   UNL     1       2.517  -7.272  -3.442  0.00  0.00    +0.226 C 
ATOM     34  O   UNL     1       2.658  -7.258  -2.234  0.00  0.00    -0.275 OA
ATOM     35  C   UNL     1       2.529  -8.766  -9.777  0.00  0.00    +0.044 C 
ATOM     36  H   UNL     1       3.414  -9.018  -3.684  0.00  0.00    +0.155 HD
ENDBRANCH  23  24
ENDBRANCH   1  23
TORSDOF 7
