REMARK  Name = ZINC41588913
REMARK  5 active torsions:
REMARK  status: ('A' for Active; 'I' for Inactive)
REMARK    1  A    between atoms: C_1  and  C_2
REMARK    2  A    between atoms: C_10  and  C_11
REMARK    3  A    between atoms: N_25  and  C_28
REMARK    4  A    between atoms: C_28  and  C_29
REMARK    5  A    between atoms: C_28  and  C_30
REMARK                            x       y       z     vdW  Elec       q    Type
REMARK                         _______ _______ _______ _____ _____    ______ ____
ROOT
ATOM      1  C   UNL     1       0.992   1.398   0.043  0.00  0.00    +0.051 C 
ATOM      2  C   UNL     1       0.930  -0.108   0.057  0.00  0.00    +0.034 A 
ATOM      3  C   UNL     1       1.117  -0.819  -1.121  0.00  0.00    +0.133 A 
ATOM      4  C   UNL     1       1.064  -2.209  -1.119  0.00  0.00    +0.010 A 
ATOM      5  C   UNL     1       0.824  -2.885   0.046  0.00  0.00    +0.024 A 
ATOM      6  C   UNL     1       0.634  -2.183   1.235  0.00  0.00    +0.068 A 
ATOM      7  C   UNL     1       0.693  -0.779   1.248  0.00  0.00    +0.146 A 
ATOM      8  O   UNL     1       0.489  -0.327   2.505  0.00  0.00    -0.451 OA
ATOM      9  C   UNL     1       0.292  -1.341   3.379  0.00  0.00    +0.176 C 
ATOM     10  C   UNL     1       0.060  -1.218   4.712  0.00  0.00    +0.061 C 
ATOM     11  C   UNL     1       0.364  -2.600   2.623  0.00  0.00    +0.231 C 
ATOM     12  O   UNL     1       0.240  -3.735   3.050  0.00  0.00    -0.283 OA
ATOM     13  C   UNL     1       1.272  -2.990  -2.392  0.00  0.00    +0.126 C 
ATOM     14  N   UNL     1       1.099  -2.101  -3.549  0.00  0.00    -0.264 NA
ATOM     15  C   UNL     1       1.893  -0.874  -3.369  0.00  0.00    +0.319 C 
ATOM     16  O   UNL     1       1.349  -0.136  -2.272  0.00  0.00    -0.476 OA
ENDROOT
BRANCH  10  17
ATOM     17  C   UNL     1       0.160   0.096   5.355  0.00  0.00    +0.022 A 
ATOM     18  C   UNL     1       0.141   1.263   4.581  0.00  0.00    +0.031 A 
ATOM     19  C   UNL     1       0.237   2.494   5.194  0.00  0.00    +0.042 A 
ATOM     20  C   UNL     1       0.356   2.581   6.573  0.00  0.00    +0.029 A 
ATOM     21  C   UNL     1       0.377   1.437   7.350  0.00  0.00    +0.022 A 
ATOM     22  C   UNL     1       0.271   0.192   6.753  0.00  0.00    +0.136 A 
ATOM     23  O   UNL     1       0.274  -0.938   7.505  0.00  0.00    -0.465 OA
ATOM     24  C   UNL     1       0.744  -0.818   8.851  0.00  0.00    +0.395 C 
ATOM     25  O   UNL     1       0.116   0.318   9.455  0.00  0.00    -0.339 OA
ATOM     26  C   UNL     1       0.511   1.556   8.847  0.00  0.00    +0.202 C 
ATOM     27 CL   UNL     1       0.211   3.941   4.236  0.00  0.00    -0.084 Cl
ENDBRANCH  10  17
BRANCH  14  28
ATOM     28  C   UNL     1       1.463  -2.784  -4.798  0.00  0.00    +0.054 C 
ATOM     29  C   UNL     1       1.153  -1.873  -5.987  0.00  0.00    +0.024 C 
ATOM     30  C   UNL     1       2.957  -3.113  -4.782  0.00  0.00    +0.024 C 
ENDBRANCH  14  28
TORSDOF 2
