REMARK  Name = ZINC08624009
REMARK  11 active torsions:
REMARK  status: ('A' for Active; 'I' for Inactive)
REMARK    1  A    between atoms: C_1  and  C_2
REMARK    2  A    between atoms: C_5  and  N_9
REMARK    3  A    between atoms: C_10  and  C_32
REMARK    4  A    between atoms: C_11  and  C_15
REMARK    5  A    between atoms: C_12  and  C_14
REMARK    6  A    between atoms: C_18  and  N_61
REMARK    7  A    between atoms: C_22  and  C_23
REMARK    8  A    between atoms: C_22  and  N_61
REMARK    9  A    between atoms: C_26  and  N_29
REMARK   10  A    between atoms: N_29  and  C_30
REMARK   11  A    between atoms: N_29  and  C_31
REMARK                            x       y       z     vdW  Elec       q    Type
REMARK                         _______ _______ _______ _____ _____    ______ ____
ROOT
ATOM      1  C   UNL     1       5.907   0.620  -0.897  0.00  0.00    +0.044 C 
ATOM      2  C   UNL     1       6.919   0.531   0.268  0.00  0.00    +0.000 C 
ATOM      3  C   UNL     1       8.036  -0.332  -0.363  0.00  0.00    -0.047 C 
ATOM      4  C   UNL     1       7.345  -1.121  -1.450  0.00  0.00    -0.046 C 
ATOM      5  C   UNL     1       6.183  -0.602  -1.741  0.00  0.00    -0.025 C 
ENDROOT
BRANCH   1   8
ATOM      6  N   UNL     1       2.421   1.123   0.056  0.00  0.00    -0.236 N 
ATOM      7  C   UNL     1       3.542   1.523  -0.585  0.00  0.00    +0.046 A 
ATOM      8  C   UNL     1       4.495   0.586  -0.370  0.00  0.00    +0.003 A 
ATOM      9  C   UNL     1       3.938  -0.419   0.428  0.00  0.00    +0.064 A 
ATOM     10  N   UNL     1       2.697  -0.096   0.689  0.00  0.00    -0.171 NA
ATOM     11  C   UNL     1       4.648  -1.659   0.909  0.00  0.00    +0.068 C 
ATOM     12  C   UNL     1       3.703   2.785  -1.392  0.00  0.00    +0.066 C 
BRANCH   6  17
ATOM     13  C   UNL     1      -2.525   3.907   0.179  0.00  0.00    +0.045 C 
ATOM     14  C   UNL     1      -1.212   3.167   0.147  0.00  0.00    -0.032 A 
ATOM     15  C   UNL     1      -0.023   3.873   0.137  0.00  0.00    +0.007 A 
ATOM     16  C   UNL     1       1.182   3.199   0.107  0.00  0.00    +0.028 A 
ATOM     17  C   UNL     1       1.199   1.810   0.087  0.00  0.00    +0.067 A 
ATOM     18  C   UNL     1       0.004   1.104   0.098  0.00  0.00    +0.048 A 
ATOM     19  C   UNL     1      -1.199   1.784   0.122  0.00  0.00    +0.046 A 
ATOM     20 CL   UNL     1      -2.694   0.902   0.128  0.00  0.00    -0.083 Cl
ENDBRANCH   6  17
ENDBRANCH   1   8
BRANCH   3  21
ATOM     21  N   UNL     1       9.079   0.536  -0.942  0.00  0.00    +0.386 N 
ATOM     22  H   UNL     1       9.222   1.349  -0.331  0.00  0.00    -0.085 HD
ATOM     23  H   UNL     1       8.777   0.855  -1.870  0.00  0.00    -0.085 HD
BRANCH  21  24
ATOM     24  C   UNL     1      10.348  -0.205  -1.071  0.00  0.00    -0.046 C 
BRANCH  24  25
ATOM     25  C   UNL     1      11.393   0.705  -1.664  0.00  0.00    -0.064 A 
ATOM     26  C   UNL     1      11.557   0.765  -3.036  0.00  0.00    +0.003 A 
ATOM     27  C   UNL     1      12.510   1.601  -3.583  0.00  0.00    +0.023 A 
ATOM     28  C   UNL     1      13.311   2.376  -2.753  0.00  0.00    +0.029 A 
ATOM     29  C   UNL     1      13.147   2.309  -1.376  0.00  0.00    +0.023 A 
ATOM     30  C   UNL     1      12.189   1.474  -0.835  0.00  0.00    +0.003 A 
BRANCH  28  31
ATOM     31  N   UNL     1      14.280   3.219  -3.303  0.00  0.00    -0.336 N 
ATOM     32  C   UNL     1      15.038   4.126  -2.438  0.00  0.00    +0.129 C 
ATOM     33  C   UNL     1      14.538   3.196  -4.745  0.00  0.00    +0.129 C 
ENDBRANCH  28  31
ENDBRANCH  24  25
ENDBRANCH  21  24
ENDBRANCH   3  21
TORSDOF 6
