REMARK  Name = ZINC06131321
REMARK  6 active torsions:
REMARK  status: ('A' for Active; 'I' for Inactive)
REMARK    1  A    between atoms: C_11  and  N_48
REMARK    2  A    between atoms: C_13  and  N_15
REMARK    3  A    between atoms: N_15  and  S_16
REMARK    4  A    between atoms: S_16  and  C_19
REMARK    5  A    between atoms: C_26  and  C_27
REMARK    6  A    between atoms: C_26  and  N_48
REMARK                            x       y       z     vdW  Elec       q    Type
REMARK                         _______ _______ _______ _____ _____    ______ ____
ROOT
ATOM      1  C   UNL     1       3.558   2.049  -0.022  0.00  0.00    +0.001 A 
ATOM      2  C   UNL     1       2.467   1.229  -0.016  0.00  0.00    +0.008 A 
ATOM      3  C   UNL     1       1.187   1.807   0.000  0.00  0.00    -0.017 A 
ATOM      4  C   UNL     1      -0.013   1.076   0.008  0.00  0.00    +0.008 A 
ATOM      5  C   UNL     1      -1.197   1.754   0.017  0.00  0.00    +0.001 A 
ATOM      6  C   UNL     1      -1.258   3.150   0.031  0.00  0.00    +0.006 A 
ATOM      7  C   UNL     1      -0.115   3.889   0.025  0.00  0.00    -0.022 A 
ATOM      8  C   UNL     1       1.100   3.211   0.009  0.00  0.00    -0.012 A 
ATOM      9  C   UNL     1       2.222   4.033   0.003  0.00  0.00    -0.052 A 
ATOM     10  C   UNL     1       3.448   3.441  -0.013  0.00  0.00    +0.003 A 
ATOM     11  C   UNL     1       1.734   5.462   0.016  0.00  0.00    -0.016 C 
ATOM     12  C   UNL     1       0.193   5.366   0.030  0.00  0.00    +0.097 C 
ENDROOT
BRANCH  11  13
ATOM     13  N   UNL     1       2.207   6.152   1.230  0.00  0.00    +0.390 N 
ATOM     14  H   UNL     1       2.247   5.482   2.007  0.00  0.00    -0.084 HD
ATOM     15  H   UNL     1       1.555   6.910   1.465  0.00  0.00    -0.084 HD
BRANCH  13  16
ATOM     16  C   UNL     1       3.551   6.719   1.007  0.00  0.00    -0.006 C 
BRANCH  16  17
ATOM     17  C   UNL     1       4.007   7.417   2.262  0.00  0.00    +0.088 A 
ATOM     18  C   UNL     1       4.691   6.851   3.273  0.00  0.00    +0.042 A 
ATOM     19  C   UNL     1       4.911   7.863   4.236  0.00  0.00    +0.041 A 
ATOM     20  C   UNL     1       4.341   8.984   3.760  0.00  0.00    +0.195 A 
ATOM     21  O   UNL     1       3.795   8.708   2.564  0.00  0.00    -0.470 OA
ENDBRANCH  16  17
ENDBRANCH  13  16
ENDBRANCH  11  13
BRANCH  12  22
ATOM     22  N   UNL     1      -0.343   5.992   1.241  0.00  0.00    -0.184 NA
ATOM     23  H   UNL     1       0.146   5.931   2.076  0.00  0.00    +0.149 HD
BRANCH  22  24
ATOM     24  S   UNL     1      -1.786   6.804   1.185  0.00  0.00    +0.059 S 
ATOM     25  O   UNL     1      -2.043   7.266   2.503  0.00  0.00    -0.153 OA
ATOM     26  O   UNL     1      -1.714   7.682   0.070  0.00  0.00    -0.153 OA
BRANCH  24  27
ATOM     27  C   UNL     1      -3.036   5.619   0.813  0.00  0.00    +0.105 A 
ATOM     28  C   UNL     1      -3.372   5.359  -0.502  0.00  0.00    +0.030 A 
ATOM     29  C   UNL     1      -4.348   4.425  -0.795  0.00  0.00    +0.022 A 
ATOM     30  C   UNL     1      -4.998   3.760   0.230  0.00  0.00    +0.041 A 
ATOM     31  C   UNL     1      -4.665   4.026   1.546  0.00  0.00    +0.022 A 
ATOM     32  C   UNL     1      -3.684   4.955   1.837  0.00  0.00    +0.030 A 
ATOM     33 CL   UNL     1      -6.229   2.593  -0.136  0.00  0.00    -0.084 Cl
ENDBRANCH  24  27
ENDBRANCH  22  24
ENDBRANCH  12  22
TORSDOF 6
