REMARK  Name = ZINC47274117
REMARK  8 active torsions:
REMARK  status: ('A' for Active; 'I' for Inactive)
REMARK    1  A    between atoms: C_7  and  N_11
REMARK    2  A    between atoms: C_8  and  C_9
REMARK    3  A    between atoms: C_12  and  C_14
REMARK    4  A    between atoms: C_14  and  C_15
REMARK    5  A    between atoms: C_15  and  N_16
REMARK    6  A    between atoms: N_16  and  C_17
REMARK    7  A    between atoms: N_16  and  C_21
REMARK    8  A    between atoms: C_17  and  C_18
REMARK                            x       y       z     vdW  Elec       q    Type
REMARK                         _______ _______ _______ _____ _____    ______ ____
ROOT
ATOM      1  N   UNL     1       7.353  -1.753  -0.141  0.00  0.00    -0.279 N 
ATOM      2  C   UNL     1       7.385  -3.099  -0.209  0.00  0.00    +0.216 C 
ATOM      3  O   UNL     1       6.994  -3.763   0.728  0.00  0.00    -0.276 OA
ATOM      4  H   UNL     1       7.666  -1.222  -0.890  0.00  0.00    +0.155 HD
ENDROOT
BRANCH   1  11
ATOM      5  C   UNL     1       4.704   2.052   5.059  0.00  0.00    +0.001 C 
ATOM      6  C   UNL     1       6.096   2.223   4.453  0.00  0.00    +0.005 C 
ATOM      7  C   UNL     1       6.035   2.094   2.934  0.00  0.00    +0.037 C 
ATOM      8  C   UNL     1       6.220   0.639   2.532  0.00  0.00    -0.018 A 
ATOM      9  C   UNL     1       5.894  -0.393   3.340  0.00  0.00    -0.004 A 
ATOM     10  S   UNL     1       6.285  -1.843   2.400  0.00  0.00    -0.077 S 
ATOM     11  C   UNL     1       6.871  -1.127   1.000  0.00  0.00    +0.090 A 
ATOM     12  C   UNL     1       6.763   0.230   1.244  0.00  0.00    +0.084 A 
ATOM     13  C   UNL     1       5.343  -0.326   4.730  0.00  0.00    +0.043 C 
ATOM     14  C   UNL     1       4.165   0.657   4.758  0.00  0.00    +0.005 C 
BRANCH  12  15
ATOM     15  C   UNL     1       7.170   1.196   0.269  0.00  0.00    +0.102 C 
ATOM     16  N   UNL     1       7.493   1.962  -0.505  0.00  0.00    -0.191 NA
ENDBRANCH  12  15
ENDBRANCH   1  11
BRANCH   2  17
ATOM     17  C   UNL     1       7.909  -3.779  -1.448  0.00  0.00    +0.078 C 
BRANCH  17  18
ATOM     18  C   UNL     1       7.837  -5.296  -1.266  0.00  0.00    -0.069 C 
BRANCH  18  19
ATOM     19  N   UNL     1       8.501  -5.957  -2.398  0.00  0.00    +0.388 N 
ATOM     20  H   UNL     1       9.294  -5.406  -2.690  0.00  0.00    -0.081 HD
BRANCH  19  21
ATOM     21  C   UNL     1       7.554  -6.084  -3.514  0.00  0.00    -0.068 C 
ATOM     22  C   UNL     1       8.182  -6.925  -4.645  0.00  0.00    -0.015 C 
ATOM     23  C   UNL     1       7.676  -6.251  -5.945  0.00  0.00    -0.002 C 
ATOM     24  C   UNL     1       7.710  -4.745  -5.584  0.00  0.00    -0.002 C 
ATOM     25  C   UNL     1       7.254  -4.698  -4.111  0.00  0.00    -0.015 C 
ENDBRANCH  19  21
BRANCH  19  26
ATOM     26  C   UNL     1       8.956  -7.292  -1.987  0.00  0.00    +0.019 C 
BRANCH  26  27
ATOM     27  C   UNL     1      10.296  -7.580  -2.613  0.00  0.00    +0.194 C 
ATOM     28  O   UNL     1      10.885  -6.707  -3.214  0.00  0.00    -0.278 OA
ATOM     29  N   UNL     1      10.840  -8.809  -2.505  0.00  0.00    -0.331 N 
ATOM     30  H   UNL     1      10.368  -9.508  -2.025  0.00  0.00    +0.145 HD
ATOM     31  H   UNL     1      11.702  -8.995  -2.908  0.00  0.00    +0.145 HD
ENDBRANCH  26  27
ENDBRANCH  19  26
ENDBRANCH  18  19
ENDBRANCH  17  18
ENDBRANCH   2  17
TORSDOF 8
