REMARK  Name = ZINC44235172
REMARK  10 active torsions:
REMARK  status: ('A' for Active; 'I' for Inactive)
REMARK    1  A    between atoms: C_1  and  O_2
REMARK    2  A    between atoms: O_2  and  C_3
REMARK    3  A    between atoms: C_8  and  C_9
REMARK    4  A    between atoms: N_12  and  C_15
REMARK    5  A    between atoms: C_18  and  C_24
REMARK    6  A    between atoms: C_20  and  N_21
REMARK    7  A    between atoms: C_24  and  C_26
REMARK    8  A    between atoms: C_24  and  N_29
REMARK    9  A    between atoms: C_26  and  C_27
REMARK   10  A    between atoms: C_27  and  O_28
REMARK                            x       y       z     vdW  Elec       q    Type
REMARK                         _______ _______ _______ _____ _____    ______ ____
ROOT
ATOM      1  C   UNL     1      -0.711  -6.660   1.382  0.00  0.00    +0.060 A 
ATOM      2  C   UNL     1      -0.160  -7.513   0.434  0.00  0.00    +0.025 A 
ATOM      3  C   UNL     1      -0.244  -8.881   0.607  0.00  0.00    +0.004 A 
ATOM      4  C   UNL     1      -0.875  -9.401   1.722  0.00  0.00    -0.060 A 
ATOM      5  C   UNL     1      -1.424  -8.555   2.668  0.00  0.00    +0.036 A 
ATOM      6  C   UNL     1      -1.339  -7.186   2.504  0.00  0.00    +0.147 A 
ENDROOT
BRANCH   1  10
ATOM      7  C   UNL     1       0.051  -2.828  -0.033  0.00  0.00    +0.026 C 
ATOM      8  C   UNL     1      -1.043  -3.721  -0.624  0.00  0.00    +0.027 C 
ATOM      9  C   UNL     1      -1.684  -4.545   0.497  0.00  0.00    +0.106 C 
ATOM     10  N   UNL     1      -0.628  -5.276   1.211  0.00  0.00    -0.328 N 
ATOM     11  C   UNL     1       0.517  -4.524   1.741  0.00  0.00    +0.106 C 
ATOM     12  C   UNL     1       1.134  -3.700   0.606  0.00  0.00    +0.027 C 
BRANCH   7  18
ATOM     13  C   UNL     1       0.606  -0.607  -1.056  0.00  0.00    +0.124 A 
ATOM     14  C   UNL     1       1.173   0.161  -2.063  0.00  0.00    +0.046 A 
ATOM     15  C   UNL     1       1.786  -0.455  -3.136  0.00  0.00    +0.004 A 
ATOM     16  C   UNL     1       1.836  -1.835  -3.208  0.00  0.00    +0.001 A 
ATOM     17  C   UNL     1       1.271  -2.602  -2.207  0.00  0.00    +0.007 A 
ATOM     18  C   UNL     1       0.661  -1.991  -1.128  0.00  0.00    -0.003 A 
BRANCH  13  20
ATOM     19  C   UNL     1      -0.017   1.425   0.010  0.00  0.00    +0.277 C 
ATOM     20  O   UNL     1       0.002  -0.004   0.002  0.00  0.00    -0.495 OA
ENDBRANCH  13  20
ENDBRANCH   7  18
ENDBRANCH   1  10
BRANCH   6  21
ATOM     21  N   UNL     1      -1.922  -6.280   3.519  0.00  0.00    +0.058 N 
ATOM     22  O   UNL     1      -2.468  -6.739   4.495  0.00  0.00    -0.126 OA
ATOM     23  O   UNL     1      -1.851  -5.082   3.373  0.00  0.00    -0.126 OA
ENDBRANCH   6  21
BRANCH   4  24
ATOM     24  C   UNL     1      -0.964 -10.894   1.908  0.00  0.00    -0.042 C 
BRANCH  24  25
ATOM     25  N   UNL     1      -1.244 -11.532   0.614  0.00  0.00    +0.383 N 
ATOM     26  H   UNL     1      -1.304 -12.531   0.738  0.00  0.00    -0.089 HD
ATOM     27  H   UNL     1      -2.119 -11.185   0.251  0.00  0.00    -0.089 HD
ATOM     28  H   UNL     1      -0.502 -11.317  -0.034  0.00  0.00    -0.089 HD
ENDBRANCH  24  25
BRANCH  24  29
ATOM     29  C   UNL     1       0.363 -11.420   2.459  0.00  0.00    +0.016 C 
BRANCH  29  30
ATOM     30  C   UNL     1       0.232 -12.913   2.764  0.00  0.00    +0.154 C 
BRANCH  30  31
ATOM     31  O   UNL     1       1.471 -13.404   3.279  0.00  0.00    -0.395 OA
ATOM     32  H   UNL     1       1.462 -14.347   3.495  0.00  0.00    +0.209 HD
ENDBRANCH  30  31
ENDBRANCH  29  30
ENDBRANCH  24  29
ENDBRANCH   4  24
TORSDOF 9
