REMARK  Name = ZINC21923975
REMARK  15 active torsions:
REMARK  status: ('A' for Active; 'I' for Inactive)
REMARK    1  A    between atoms: C_1  and  C_2
REMARK    2  A    between atoms: C_2  and  O_3
REMARK    3  A    between atoms: O_3  and  C_4
REMARK    4  A    between atoms: C_7  and  N_13
REMARK    5  A    between atoms: C_9  and  O_10
REMARK    6  A    between atoms: O_10  and  C_11
REMARK    7  A    between atoms: C_11  and  C_12
REMARK    8  A    between atoms: C_14  and  C_16
REMARK    9  A    between atoms: C_16  and  N_17
REMARK   10  A    between atoms: N_17  and  C_18
REMARK   11  A    between atoms: N_17  and  C_19
REMARK   12  A    between atoms: C_19  and  C_20
REMARK   13  A    between atoms: N_22  and  C_23
REMARK   14  A    between atoms: C_24  and  C_34
REMARK   15  A    between atoms: C_29  and  C_33
REMARK                            x       y       z     vdW  Elec       q    Type
REMARK                         _______ _______ _______ _____ _____    ______ ____
ROOT
ATOM      1  N   UNL     1       5.001  -1.973   6.302  0.00  0.00    +0.389 N 
ATOM      2  C   UNL     1       5.331  -0.679   6.916  0.00  0.00    -0.095 C 
ATOM      3  H   UNL     1       4.159  -2.407   6.861  0.00  0.00    -0.081 HD
ENDROOT
BRANCH   1   4
ATOM      4  C   UNL     1       4.576  -1.800   4.907  0.00  0.00    +0.019 C 
BRANCH   4   6
ATOM      5  N   UNL     1       2.689  -0.766   3.686  0.00  0.00    -0.287 N 
ATOM      6  C   UNL     1       3.273  -1.043   4.869  0.00  0.00    +0.201 C 
ATOM      7  O   UNL     1       2.751  -0.682   5.902  0.00  0.00    -0.278 OA
ATOM      8  H   UNL     1       3.122  -1.158   2.754  0.00  0.00    +0.155 HD
BRANCH   5  12
ATOM      9  C   UNL     1      -0.761   1.578   3.569  0.00  0.00    +0.162 A 
ATOM     10  C   UNL     1      -0.553   0.701   4.622  0.00  0.00    +0.051 A 
ATOM     11  C   UNL     1       0.591  -0.073   4.662  0.00  0.00    +0.027 A 
ATOM     12  C   UNL     1       1.530   0.020   3.644  0.00  0.00    +0.037 A 
ATOM     13  C   UNL     1       1.322   0.893   2.585  0.00  0.00    +0.072 A 
ATOM     14  C   UNL     1       0.176   1.670   2.545  0.00  0.00    +0.164 A 
BRANCH   9  15
ATOM     15  O   UNL     1      -1.885   2.344   3.534  0.00  0.00    -0.489 OA
BRANCH  15  17
ATOM     16  C   UNL     1      -3.996   3.133   4.406  0.00  0.00    +0.048 C 
ATOM     17  C   UNL     1      -2.804   2.198   4.619  0.00  0.00    +0.226 C 
ENDBRANCH  15  17
ENDBRANCH   9  15
BRANCH  14  18
ATOM     18  O   UNL     1      -0.030   2.525   1.508  0.00  0.00    -0.489 OA
BRANCH  18  19
ATOM     19  C   UNL     1       0.976   2.572   0.495  0.00  0.00    +0.226 C 
ATOM     20  C   UNL     1       0.572   3.583  -0.579  0.00  0.00    +0.048 C 
ENDBRANCH  18  19
ENDBRANCH  14  18
ENDBRANCH   5  12
ENDBRANCH   4   6
ENDBRANCH   1   4
BRANCH   1  21
ATOM     21  C   UNL     1       6.133  -2.904   6.396  0.00  0.00    +0.019 C 
BRANCH  21  22
ATOM     22  C   UNL     1       6.384  -3.247   7.842  0.00  0.00    +0.201 C 
ATOM     23  O   UNL     1       5.687  -2.763   8.709  0.00  0.00    -0.278 OA
ATOM     24  N   UNL     1       7.381  -4.091   8.172  0.00  0.00    -0.281 N 
ATOM     25  H   UNL     1       8.013  -4.529   7.386  0.00  0.00    +0.155 HD
BRANCH  24  26
ATOM     26  C   UNL     1       7.612  -4.406   9.504  0.00  0.00    +0.090 A 
ATOM     27  C   UNL     1       8.579  -5.245  10.036  0.00  0.00    +0.084 A 
ATOM     28  C   UNL     1       8.609  -5.407  11.479  0.00  0.00    -0.018 A 
ATOM     29  C   UNL     1       7.671  -4.708  12.155  0.00  0.00    -0.004 A 
ATOM     30  S   UNL     1       6.765  -3.841  10.906  0.00  0.00    -0.077 S 
ATOM     31  C   UNL     1       7.460  -4.680  13.638  0.00  0.00    +0.046 C 
ATOM     32  C   UNL     1       8.229  -5.856  14.258  0.00  0.00    -0.009 C 
ATOM     33  C   UNL     1       9.649  -5.875  13.684  0.00  0.00    +0.008 C 
ATOM     34  C   UNL     1       9.610  -6.292  12.212  0.00  0.00    +0.037 C 
ATOM     35  C   UNL     1       8.293  -5.683  15.777  0.00  0.00    +0.008 C 
BRANCH  27  36
ATOM     36  C   UNL     1       9.515  -5.927   9.193  0.00  0.00    +0.102 C 
ATOM     37  N   UNL     1      10.258  -6.467   8.524  0.00  0.00    -0.191 NA
ENDBRANCH  27  36
ENDBRANCH  24  26
ENDBRANCH  21  22
ENDBRANCH   1  21
TORSDOF 11
