REMARK  Name = ZINC20100733
REMARK  16 active torsions:
REMARK  status: ('A' for Active; 'I' for Inactive)
REMARK    1  A    between atoms: C_1  and  C_2
REMARK    2  A    between atoms: C_6  and  C_38
REMARK    3  A    between atoms: C_7  and  N_8
REMARK    4  A    between atoms: C_9  and  C_11
REMARK    5  A    between atoms: C_11  and  S_12
REMARK    6  A    between atoms: S_12  and  C_13
REMARK    7  A    between atoms: C_14  and  C_36
REMARK    8  A    between atoms: C_15  and  C_27
REMARK    9  A    between atoms: C_17  and  C_21
REMARK   10  A    between atoms: C_18  and  C_20
REMARK   11  A    between atoms: C_21  and  O_23
REMARK   12  A    between atoms: O_23  and  C_24
REMARK   13  A    between atoms: C_24  and  C_25
REMARK   14  A    between atoms: C_30  and  O_35
REMARK   15  A    between atoms: C_31  and  O_33
REMARK   16  A    between atoms: O_33  and  C_34
REMARK                            x       y       z     vdW  Elec       q    Type
REMARK                         _______ _______ _______ _____ _____    ______ ____
ROOT
ATOM      1  C   UNL     1       1.089   0.777   1.452  0.00  0.00    +0.080 C 
ATOM      2  C   UNL     1       1.081   1.695   2.456  0.00  0.00    +0.069 C 
ATOM      3  C   UNL     1      -0.137   2.526   2.742  0.00  0.00    +0.100 C 
ATOM      4  C   UNL     1      -1.097   2.482   1.588  0.00  0.00    +0.066 C 
ATOM      5  C   UNL     1      -1.004   1.548   0.625  0.00  0.00    +0.016 C 
ATOM      6  N   UNL     1      -0.025   0.594   0.664  0.00  0.00    -0.312 N 
ATOM      7  C   UNL     1      -1.995   1.548  -0.510  0.00  0.00    +0.061 C 
ATOM      8  H   UNL     1      -0.129  -0.321   0.063  0.00  0.00    +0.152 HD
ENDROOT
BRANCH   3   9
ATOM      9  C   UNL     1      -0.821   1.996   3.975  0.00  0.00    -0.031 A 
ATOM     10  C   UNL     1      -1.286   0.694   4.000  0.00  0.00    +0.008 A 
ATOM     11  C   UNL     1      -1.915   0.203   5.129  0.00  0.00    +0.049 A 
ATOM     12  C   UNL     1      -2.079   1.015   6.239  0.00  0.00    +0.158 A 
ATOM     13  C   UNL     1      -1.611   2.325   6.215  0.00  0.00    +0.162 A 
ATOM     14  C   UNL     1      -0.977   2.810   5.082  0.00  0.00    +0.054 A 
BRANCH  13  15
ATOM     15  O   UNL     1      -1.770   3.126   7.302  0.00  0.00    -0.491 OA
ATOM     16  C   UNL     1      -1.264   4.459   7.205  0.00  0.00    +0.277 C 
ENDBRANCH  13  15
BRANCH  12  17
ATOM     17  O   UNL     1      -2.697   0.533   7.351  0.00  0.00    -0.503 OA
ATOM     18  H   UNL     1      -2.827   1.179   8.232  0.00  0.00    +0.292 HD
ENDBRANCH  12  17
ENDBRANCH   3   9
BRANCH   4  19
ATOM     19  C   UNL     1      -2.122   3.452   1.508  0.00  0.00    +0.338 C 
ATOM     20  O   UNL     1      -2.908   3.431   0.579  0.00  0.00    -0.245 OA
BRANCH  19  21
ATOM     21  O   UNL     1      -2.229   4.401   2.461  0.00  0.00    -0.457 OA
BRANCH  21  22
ATOM     22  C   UNL     1      -3.288   5.349   2.317  0.00  0.00    +0.259 C 
BRANCH  22  23
ATOM     23  C   UNL     1      -3.250   6.324   3.466  0.00  0.00    +0.006 C 
ATOM     24  C   UNL     1      -3.386   7.607   3.240  0.00  0.00    +0.007 C 
ENDBRANCH  22  23
ENDBRANCH  21  22
ENDBRANCH  19  21
ENDBRANCH   4  19
BRANCH   2  25
ATOM     25  C   UNL     1       2.256   1.872   3.255  0.00  0.00    +0.098 C 
ATOM     26  N   UNL     1       3.188   2.012   3.889  0.00  0.00    -0.191 NA
ENDBRANCH   2  25
BRANCH   1  27
ATOM     27  S   UNL     1       2.536  -0.184   1.158  0.00  0.00    -0.100 S 
BRANCH  27  28
ATOM     28  C   UNL     1       1.970  -1.185  -0.240  0.00  0.00    +0.171 C 
BRANCH  28  30
ATOM     29  N   UNL     1       2.881  -2.956  -1.707  0.00  0.00    -0.284 N 
ATOM     30  C   UNL     1       3.076  -2.111  -0.675  0.00  0.00    +0.227 C 
ATOM     31  O   UNL     1       4.143  -2.096  -0.097  0.00  0.00    -0.275 OA
ATOM     32  H   UNL     1       1.895  -3.012  -2.193  0.00  0.00    +0.155 HD
BRANCH  29  39
ATOM     33  C   UNL     1       5.355  -1.704  -2.347  0.00  0.00    +0.045 C 
ATOM     34  C   UNL     1       5.156  -3.192  -2.484  0.00  0.00    -0.029 A 
ATOM     35  C   UNL     1       6.192  -3.990  -2.927  0.00  0.00    +0.005 A 
ATOM     36  C   UNL     1       6.008  -5.354  -3.058  0.00  0.00    +0.001 A 
ATOM     37  C   UNL     1       4.788  -5.924  -2.741  0.00  0.00    +0.005 A 
ATOM     38  C   UNL     1       3.750  -5.132  -2.293  0.00  0.00    -0.029 A 
ATOM     39  C   UNL     1       3.931  -3.761  -2.160  0.00  0.00    +0.039 A 
ATOM     40  C   UNL     1       2.421  -5.753  -1.948  0.00  0.00    +0.045 C 
ENDBRANCH  29  39
ENDBRANCH  28  30
ENDBRANCH  27  28
ENDBRANCH   1  27
TORSDOF 12
