REMARK  Name = ZINC35954652
REMARK  16 active torsions:
REMARK  status: ('A' for Active; 'I' for Inactive)
REMARK    1  A    between atoms: C_1  and  C_2
REMARK    2  A    between atoms: C_2  and  C_3
REMARK    3  A    between atoms: C_4  and  C_22
REMARK    4  A    between atoms: C_5  and  N_15
REMARK    5  A    between atoms: N_6  and  C_8
REMARK    6  A    between atoms: C_12  and  C_14
REMARK    7  A    between atoms: N_18  and  C_21
REMARK    8  A    between atoms: C_22  and  N_23
REMARK    9  A    between atoms: N_23  and  C_24
REMARK   10  A    between atoms: N_23  and  C_34
REMARK   11  A    between atoms: C_24  and  C_25
REMARK   12  A    between atoms: C_28  and  C_31
REMARK   13  A    between atoms: C_31  and  C_32
REMARK   14  A    between atoms: C_31  and  C_33
REMARK   15  A    between atoms: C_34  and  C_35
REMARK   16  A    between atoms: C_34  and  C_36
REMARK                            x       y       z     vdW  Elec       q    Type
REMARK                         _______ _______ _______ _____ _____    ______ ____
ROOT
ATOM      1  C   UNL     1       0.472  -0.538  -0.916  0.00  0.00    +0.066 A 
ATOM      2  C   UNL     1      -0.248  -0.761  -2.094  0.00  0.00    -0.001 A 
ATOM      3  C   UNL     1       0.444  -1.666  -2.841  0.00  0.00    +0.126 A 
ATOM      4  N   UNL     1       1.566  -1.996  -2.146  0.00  0.00    -0.218 N 
ATOM      5  N   UNL     1       1.557  -1.270  -0.948  0.00  0.00    -0.169 NA
ENDROOT
BRANCH   3   6
ATOM      6  N   UNL     1       0.071  -2.161  -4.087  0.00  0.00    -0.318 N 
ATOM      7  C   UNL     1      -0.777  -3.358  -4.203  0.00  0.00    +0.088 C 
ATOM      8  C   UNL     1      -1.941  -3.039  -5.147  0.00  0.00    -0.060 C 
ATOM      9  N   UNL     1      -1.412  -2.545  -6.425  0.00  0.00    +0.380 N 
ATOM     10  C   UNL     1      -0.712  -1.271  -6.217  0.00  0.00    -0.060 C 
ATOM     11  C   UNL     1       0.508  -1.499  -5.326  0.00  0.00    +0.088 C 
ATOM     12  C   UNL     1      -2.522  -2.344  -7.366  0.00  0.00    -0.096 C 
ATOM     13  H   UNL     1      -0.769  -3.223  -6.806  0.00  0.00    -0.082 HD
ENDBRANCH   3   6
BRANCH   4  14
ATOM     14  C   UNL     1       2.556  -2.899  -2.557  0.00  0.00    +0.068 A 
ATOM     15  C   UNL     1       2.197  -4.112  -3.131  0.00  0.00    +0.028 A 
ATOM     16  C   UNL     1       3.175  -4.999  -3.535  0.00  0.00    +0.002 A 
ATOM     17  C   UNL     1       4.511  -4.681  -3.368  0.00  0.00    +0.003 A 
ATOM     18  C   UNL     1       4.871  -3.475  -2.796  0.00  0.00    -0.048 A 
ATOM     19  C   UNL     1       3.898  -2.581  -2.396  0.00  0.00    +0.031 A 
ATOM     20  C   UNL     1       6.328  -3.133  -2.616  0.00  0.00    +0.044 C 
ENDBRANCH   4  14
BRANCH   1  22
ATOM     21  C   UNL     1       0.585   1.802  -0.105  0.00  0.00    +0.010 C 
ATOM     22  C   UNL     1       0.071   0.394   0.198  0.00  0.00    +0.054 C 
ENDBRANCH   1  22
BRANCH   2  23
ATOM     23  C   UNL     1      -1.557  -0.116  -2.469  0.00  0.00    -0.037 C 
BRANCH  23  24
ATOM     24  N   UNL     1      -2.666  -0.998  -2.083  0.00  0.00    +0.387 N 
ATOM     25  H   UNL     1      -2.550  -1.897  -2.526  0.00  0.00    -0.081 HD
BRANCH  24  26
ATOM     26  C   UNL     1      -3.938  -0.402  -2.512  0.00  0.00    -0.074 C 
ATOM     27  C   UNL     1      -4.041   1.025  -1.969  0.00  0.00    -0.013 C 
ATOM     28  C   UNL     1      -3.998  -0.371  -4.040  0.00  0.00    -0.013 C 
ENDBRANCH  24  26
BRANCH  24  29
ATOM     29  C   UNL     1      -2.672  -1.168  -0.624  0.00  0.00    -0.042 C 
BRANCH  29  30
ATOM     30  C   UNL     1      -3.717  -2.184  -0.241  0.00  0.00    -0.064 A 
ATOM     31  C   UNL     1      -5.002  -1.773   0.063  0.00  0.00    +0.002 A 
ATOM     32  C   UNL     1      -5.960  -2.705   0.415  0.00  0.00    +0.004 A 
ATOM     33  C   UNL     1      -5.635  -4.047   0.462  0.00  0.00    -0.045 A 
ATOM     34  C   UNL     1      -4.351  -4.458   0.156  0.00  0.00    +0.004 A 
ATOM     35  C   UNL     1      -3.393  -3.527  -0.199  0.00  0.00    +0.002 A 
BRANCH  33  36
ATOM     36  C   UNL     1      -6.680  -5.063   0.846  0.00  0.00    +0.013 C 
ATOM     37  C   UNL     1      -6.874  -6.055  -0.303  0.00  0.00    +0.012 C 
ATOM     38  C   UNL     1      -6.225  -5.815   2.098  0.00  0.00    +0.012 C 
ENDBRANCH  33  36
ENDBRANCH  29  30
ENDBRANCH  24  29
ENDBRANCH  23  24
ENDBRANCH   2  23
TORSDOF 9
