REMARK  Name = ZINC36206275
REMARK  16 active torsions:
REMARK  status: ('A' for Active; 'I' for Inactive)
REMARK    1  A    between atoms: C_1  and  C_2
REMARK    2  A    between atoms: C_2  and  O_3
REMARK    3  A    between atoms: O_3  and  C_4
REMARK    4  A    between atoms: C_4  and  C_5
REMARK    5  A    between atoms: C_5  and  C_7
REMARK    6  A    between atoms: C_5  and  O_33
REMARK    7  A    between atoms: C_7  and  N_8
REMARK    8  A    between atoms: N_8  and  C_9
REMARK    9  A    between atoms: N_8  and  C_29
REMARK   10  A    between atoms: C_9  and  C_10
REMARK   11  A    between atoms: C_16  and  C_21
REMARK   12  A    between atoms: C_24  and  O_27
REMARK   13  A    between atoms: O_27  and  C_28
REMARK   14  A    between atoms: C_29  and  C_30
REMARK   15  A    between atoms: C_30  and  C_31
REMARK   16  A    between atoms: C_30  and  C_32
REMARK                            x       y       z     vdW  Elec       q    Type
REMARK                         _______ _______ _______ _____ _____    ______ ____
ROOT
ATOM      1  C   UNL     1       3.977  -5.521   2.520  0.00  0.00    +0.094 A 
ATOM      2  N   UNL     1       4.432  -6.750   2.164  0.00  0.00    -0.312 N 
ATOM      3  H   UNL     1       4.097  -7.533   2.628  0.00  0.00    +0.170 HD
ATOM      4  C   UNL     1       5.337  -6.902   1.180  0.00  0.00    +0.260 A 
ATOM      5  O   UNL     1       5.735  -8.013   0.872  0.00  0.00    -0.267 OA
ATOM      6  C   UNL     1       5.825  -5.741   0.500  0.00  0.00    +0.080 A 
ATOM      7  C   UNL     1       6.795  -5.647  -0.585  0.00  0.00    +0.004 A 
ATOM      8  C   UNL     1       7.105  -4.423  -1.076  0.00  0.00    +0.056 A 
ATOM      9  S   UNL     1       6.103  -3.319  -0.099  0.00  0.00    -0.076 S 
ATOM     10  C   UNL     1       5.298  -4.515   0.936  0.00  0.00    +0.116 A 
ATOM     11  N   UNL     1       4.400  -4.443   1.915  0.00  0.00    -0.229 NA
ENDROOT
BRANCH   7  12
ATOM     12  C   UNL     1       7.429  -6.867  -1.139  0.00  0.00    -0.016 A 
ATOM     13  C   UNL     1       8.003  -7.806  -0.284  0.00  0.00    +0.012 A 
ATOM     14  C   UNL     1       8.592  -8.940  -0.804  0.00  0.00    +0.046 A 
ATOM     15  C   UNL     1       8.612  -9.147  -2.176  0.00  0.00    +0.120 A 
ATOM     16  C   UNL     1       8.042  -8.213  -3.030  0.00  0.00    +0.046 A 
ATOM     17  C   UNL     1       7.446  -7.080  -2.517  0.00  0.00    +0.012 A 
BRANCH  15  18
ATOM     18  O   UNL     1       9.193 -10.266  -2.685  0.00  0.00    -0.495 OA
ATOM     19  C   UNL     1       9.179 -10.415  -4.106  0.00  0.00    +0.277 C 
ENDBRANCH  15  18
ENDBRANCH   7  12
BRANCH   1  20
ATOM     20  C   UNL     1       2.962  -5.399   3.627  0.00  0.00    -0.003 C 
BRANCH  20  21
ATOM     21  N   UNL     1       2.517  -4.002   3.732  0.00  0.00    +0.386 N 
ATOM     22  H   UNL     1       3.321  -3.400   3.829  0.00  0.00    -0.081 HD
BRANCH  21  23
ATOM     23  C   UNL     1       1.773  -3.634   2.520  0.00  0.00    -0.044 C 
BRANCH  23  24
ATOM     24  C   UNL     1       1.473  -2.133   2.543  0.00  0.00    +0.124 C 
BRANCH  24  25
ATOM     25  O   UNL     1       0.533  -1.851   3.582  0.00  0.00    -0.391 OA
ATOM     26  H   UNL     1      -0.312  -2.309   3.482  0.00  0.00    +0.210 HD
ENDBRANCH  24  25
BRANCH  24  27
ATOM     27  C   UNL     1       0.886  -1.710   1.195  0.00  0.00    +0.189 C 
BRANCH  27  28
ATOM     28  O   UNL     1       0.714  -0.292   1.174  0.00  0.00    -0.378 OA
BRANCH  28  30
ATOM     29  C   UNL     1       0.029   1.731   0.043  0.00  0.00    +0.034 C 
ATOM     30  C   UNL     1       0.168   0.210  -0.047  0.00  0.00    +0.156 C 
ENDBRANCH  28  30
ENDBRANCH  27  28
ENDBRANCH  24  27
ENDBRANCH  23  24
ENDBRANCH  21  23
BRANCH  21  31
ATOM     31  C   UNL     1       1.647  -3.852   4.906  0.00  0.00    -0.075 C 
BRANCH  31  32
ATOM     32  C   UNL     1       2.440  -4.177   6.173  0.00  0.00    -0.034 C 
ATOM     33  C   UNL     1       3.567  -3.156   6.346  0.00  0.00    +0.005 C 
ATOM     34  C   UNL     1       1.510  -4.120   7.386  0.00  0.00    +0.005 C 
ENDBRANCH  31  32
ENDBRANCH  21  31
ENDBRANCH  20  21
ENDBRANCH   1  20
TORSDOF 12
