REMARK  Name = ZINC09100993
REMARK  11 active torsions:
REMARK  status: ('A' for Active; 'I' for Inactive)
REMARK    1  A    between atoms: C_1  and  C_2
REMARK    2  A    between atoms: C_2  and  C_4
REMARK    3  A    between atoms: C_2  and  N_53
REMARK    4  A    between atoms: C_7  and  S_16
REMARK    5  A    between atoms: N_8  and  C_9
REMARK    6  A    between atoms: S_16  and  C_17
REMARK    7  A    between atoms: C_17  and  C_19
REMARK    8  A    between atoms: C_17  and  C_20
REMARK    9  A    between atoms: N_22  and  C_23
REMARK   10  A    between atoms: C_31  and  N_53
REMARK   11  A    between atoms: C_32  and  N_53
REMARK                            x       y       z     vdW  Elec       q    Type
REMARK                         _______ _______ _______ _____ _____    ______ ____
ROOT
ATOM      1  C   UNL     1       8.139  -6.118   1.383  0.00  0.00    +0.125 A 
ATOM      2  N   UNL     1       8.478  -4.960   0.891  0.00  0.00    -0.135 NA
ATOM      3  N   UNL     1       7.430  -4.257   0.650  0.00  0.00    -0.122 NA
ATOM      4  C   UNL     1       6.354  -4.929   0.987  0.00  0.00    +0.197 A 
ATOM      5  N   UNL     1       6.772  -6.142   1.462  0.00  0.00    -0.275 N 
ENDROOT
BRANCH   5   6
ATOM      6  C   UNL     1       5.968  -7.191   1.933  0.00  0.00    +0.050 A 
ATOM      7  C   UNL     1       6.041  -7.579   3.264  0.00  0.00    +0.028 A 
ATOM      8  C   UNL     1       5.245  -8.609   3.727  0.00  0.00    +0.022 A 
ATOM      9  C   UNL     1       4.383  -9.260   2.862  0.00  0.00    +0.041 A 
ATOM     10  C   UNL     1       4.312  -8.878   1.534  0.00  0.00    +0.022 A 
ATOM     11  C   UNL     1       5.102  -7.846   1.068  0.00  0.00    +0.028 A 
ATOM     12 CL   UNL     1       3.389 -10.558   3.445  0.00  0.00    -0.084 Cl
ENDBRANCH   5   6
BRANCH   1  14
ATOM     13  C   UNL     1       9.620  -7.919   0.539  0.00  0.00    -0.005 C 
ATOM     14  C   UNL     1       9.077  -7.226   1.790  0.00  0.00    -0.003 C 
BRANCH  14  17
ATOM     15  C   UNL     1       9.703  -5.908   3.722  0.00  0.00    -0.096 C 
ATOM     16  C   UNL     1      11.130  -7.716   2.976  0.00  0.00    -0.096 C 
ATOM     17  N   UNL     1      10.207  -6.645   2.545  0.00  0.00    +0.382 N 
ATOM     18  H   UNL     1      10.715  -5.993   1.935  0.00  0.00    -0.082 HD
ENDBRANCH  14  17
ENDBRANCH   1  14
BRANCH   4  19
ATOM     19  S   UNL     1       4.686  -4.377   0.846  0.00  0.00    -0.073 S 
BRANCH  19  20
ATOM     20  C   UNL     1       4.959  -2.727   0.155  0.00  0.00    +0.137 C 
ATOM     21  C   UNL     1       5.576  -2.853  -1.239  0.00  0.00    +0.029 C 
BRANCH  20  22
ATOM     22  C   UNL     1       3.643  -1.999   0.058  0.00  0.00    +0.230 C 
ATOM     23  O   UNL     1       2.603  -2.623   0.065  0.00  0.00    -0.274 OA
ATOM     24  N   UNL     1       3.622  -0.655  -0.036  0.00  0.00    -0.283 N 
ATOM     25  H   UNL     1       4.452  -0.161  -0.123  0.00  0.00    +0.155 HD
BRANCH  24  26
ATOM     26  C   UNL     1       2.401   0.029  -0.010  0.00  0.00    +0.053 A 
ATOM     27  C   UNL     1       1.296  -0.543   0.606  0.00  0.00    +0.025 A 
ATOM     28  C   UNL     1       0.092   0.134   0.631  0.00  0.00    +0.003 A 
ATOM     29  C   UNL     1      -0.015   1.381   0.043  0.00  0.00    +0.021 A 
ATOM     30  C   UNL     1       1.084   1.956  -0.571  0.00  0.00    +0.061 A 
ATOM     31  C   UNL     1       2.292   1.283  -0.599  0.00  0.00    +0.080 A 
ATOM     32 CL   UNL     1       3.671   2.004  -1.369  0.00  0.00    -0.080 Cl
ATOM     33 CL   UNL     1       0.946   3.522  -1.307  0.00  0.00    -0.082 Cl
ENDBRANCH  24  26
ENDBRANCH  20  22
ENDBRANCH  19  20
ENDBRANCH   4  19
TORSDOF 7
