REMARK  Name = ZINC12884353
REMARK  7 active torsions:
REMARK  status: ('A' for Active; 'I' for Inactive)
REMARK    1  A    between atoms: C_1  and  C_2
REMARK    2  A    between atoms: C_2  and  O_3
REMARK    3  A    between atoms: O_3  and  C_4
REMARK    4  A    between atoms: C_4  and  C_6
REMARK    5  A    between atoms: C_9  and  N_12
REMARK    6  A    between atoms: C_15  and  C_22
REMARK    7  A    between atoms: C_16  and  O_21
REMARK                            x       y       z     vdW  Elec       q    Type
REMARK                         _______ _______ _______ _____ _____    ______ ____
ROOT
ATOM      1  N   UNL     1       3.711   2.640  -0.020  0.00  0.00    -0.229 N 
ATOM      2  C   UNL     1       2.681   3.346   0.486  0.00  0.00    +0.267 A 
ATOM      3  O   UNL     1       2.865   4.465   0.934  0.00  0.00    -0.267 OA
ATOM      4  C   UNL     1       1.392   2.787   0.489  0.00  0.00    +0.069 A 
ATOM      5  C   UNL     1       1.213   1.531  -0.013  0.00  0.00    +0.201 A 
ATOM      6  N   UNL     1       2.290   0.847  -0.519  0.00  0.00    -0.278 N 
ATOM      7  H   UNL     1       2.167  -0.044  -0.881  0.00  0.00    +0.173 HD
ATOM      8  C   UNL     1       3.514   1.405  -0.516  0.00  0.00    +0.336 A 
ATOM      9  O   UNL     1       4.457   0.784  -0.968  0.00  0.00    -0.246 OA
ENDROOT
BRANCH   4  10
ATOM     10  C   UNL     1       0.224   3.560   1.044  0.00  0.00    +0.018 C 
ATOM     11  C   UNL     1      -0.022   4.786   0.195  0.00  0.00    +0.011 A 
ATOM     12  C   UNL     1      -0.281   6.006   0.726  0.00  0.00    -0.022 A 
ATOM     13  C   UNL     1      -0.451   6.923  -0.380  0.00  0.00    +0.003 A 
ATOM     14  C   UNL     1      -0.732   8.291  -0.446  0.00  0.00    +0.010 A 
ATOM     15  C   UNL     1      -0.825   8.846  -1.699  0.00  0.00    +0.001 A 
ATOM     16  C   UNL     1      -0.652   8.097  -2.851  0.00  0.00    +0.002 A 
ATOM     17  C   UNL     1      -0.373   6.741  -2.815  0.00  0.00    +0.026 A 
ATOM     18  C   UNL     1      -0.273   6.151  -1.557  0.00  0.00    +0.047 A 
ATOM     19  N   UNL     1      -0.015   4.867  -1.168  0.00  0.00    -0.359 N 
ATOM     20  H   UNL     1       0.147   4.123  -1.769  0.00  0.00    +0.166 HD
ATOM     21  C   UNL     1      -0.361   6.271   2.208  0.00  0.00    +0.018 C 
ATOM     22  C   UNL     1      -0.497   4.920   2.924  0.00  0.00    -0.076 C 
ATOM     23  N   UNL     1       0.535   3.988   2.425  0.00  0.00    +0.388 N 
ATOM     24  H   UNL     1       1.448   4.458   2.435  0.00  0.00    -0.084 HD
ATOM     25  H   UNL     1       0.569   3.163   3.035  0.00  0.00    -0.084 HD
ENDBRANCH   4  10
BRANCH   1  29
ATOM     26  C   UNL     1       7.536   4.296  -0.048  0.00  0.00    +0.059 A 
ATOM     27  C   UNL     1       6.680   4.492  -1.135  0.00  0.00    +0.017 A 
ATOM     28  C   UNL     1       5.417   3.944  -1.122  0.00  0.00    +0.027 A 
ATOM     29  C   UNL     1       4.993   3.195  -0.029  0.00  0.00    +0.054 A 
ATOM     30  C   UNL     1       5.841   3.002   1.056  0.00  0.00    +0.027 A 
ATOM     31  C   UNL     1       7.107   3.542   1.048  0.00  0.00    +0.017 A 
BRANCH  26  32
ATOM     32  C   UNL     1       8.890   4.882  -0.058  0.00  0.00    +0.339 C 
ATOM     33  O   UNL     1       9.261   5.537  -1.012  0.00  0.00    -0.245 OA
BRANCH  32  34
ATOM     34  O   UNL     1       9.714   4.692   0.990  0.00  0.00    -0.461 OA
BRANCH  34  36
ATOM     35  C   UNL     1      11.818   4.975   2.184  0.00  0.00    +0.048 C 
ATOM     36  C   UNL     1      11.031   5.298   0.912  0.00  0.00    +0.229 C 
ENDBRANCH  34  36
ENDBRANCH  32  34
ENDBRANCH  26  32
ENDBRANCH   1  29
BRANCH   5  37
ATOM     37  O   UNL     1      -0.014   0.969  -0.018  0.00  0.00    -0.493 OA
ATOM     38  H   UNL     1      -0.037   0.080  -0.399  0.00  0.00    +0.294 HD
ENDBRANCH   5  37
TORSDOF 6
