REMARK  Name = ZINC67461723
REMARK  11 active torsions:
REMARK  status: ('A' for Active; 'I' for Inactive)
REMARK    1  A    between atoms: C_1  and  C_2
REMARK    2  A    between atoms: C_5  and  C_29
REMARK    3  A    between atoms: N_8  and  C_10
REMARK    4  A    between atoms: C_10  and  C_11
REMARK    5  A    between atoms: C_10  and  C_12
REMARK    6  A    between atoms: C_10  and  C_13
REMARK    7  A    between atoms: C_13  and  N_14
REMARK    8  A    between atoms: N_17  and  N_18
REMARK    9  A    between atoms: C_19  and  C_21
REMARK   10  A    between atoms: C_26  and  O_27
REMARK   11  A    between atoms: O_27  and  C_28
REMARK                            x       y       z     vdW  Elec       q    Type
REMARK                         _______ _______ _______ _____ _____    ______ ____
ROOT
ATOM      1  N   UNL     1       2.001   1.661   3.436  0.00  0.00    -0.300 N 
ATOM      2  C   UNL     1       1.527   2.460   4.412  0.00  0.00    +0.316 C 
ATOM      3  O   UNL     1       1.211   1.985   5.486  0.00  0.00    -0.251 OA
ATOM      4  N   UNL     1       1.403   3.785   4.198  0.00  0.00    -0.218 N 
ATOM      5  H   UNL     1       2.253   2.039   2.579  0.00  0.00    +0.150 HD
ATOM      6  H   UNL     1       1.062   4.359   4.901  0.00  0.00    +0.174 HD
ENDROOT
BRANCH   4   7
ATOM      7  N   UNL     1       1.767   4.331   2.961  0.00  0.00    -0.229 N 
ATOM      8  C   UNL     1       1.643   5.656   2.747  0.00  0.00    +0.264 C 
ATOM      9  O   UNL     1       1.215   6.377   3.628  0.00  0.00    -0.269 OA
ATOM     10  H   UNL     1       2.109   3.756   2.258  0.00  0.00    +0.173 HD
BRANCH   8  11
ATOM     11  C   UNL     1       2.027   6.232   1.444  0.00  0.00    +0.080 A 
ATOM     12  C   UNL     1       2.513   5.407   0.427  0.00  0.00    +0.017 A 
ATOM     13  C   UNL     1       2.869   5.951  -0.788  0.00  0.00    +0.001 A 
ATOM     14  C   UNL     1       2.747   7.314  -1.006  0.00  0.00    +0.004 A 
ATOM     15  C   UNL     1       2.268   8.140  -0.010  0.00  0.00    +0.046 A 
ATOM     16  C   UNL     1       1.899   7.609   1.217  0.00  0.00    +0.132 A 
BRANCH  16  17
ATOM     17  O   UNL     1       1.423   8.420   2.195  0.00  0.00    -0.494 OA
ATOM     18  C   UNL     1       1.321   9.812   1.891  0.00  0.00    +0.277 C 
ENDBRANCH  16  17
ENDBRANCH   8  11
ENDBRANCH   4   7
BRANCH   1  19
ATOM     19  C   UNL     1       2.136   0.221   3.668  0.00  0.00    +0.093 C 
BRANCH  19  20
ATOM     20  C   UNL     1       2.570  -0.467   2.372  0.00  0.00    -0.055 C 
ATOM     21  C   UNL     1       2.629  -1.980   2.592  0.00  0.00    -0.008 C 
ATOM     22  C   UNL     1       3.953   0.043   1.963  0.00  0.00    -0.008 C 
BRANCH  20  28
ATOM     23  C   UNL     1      -0.774   1.282   0.483  0.00  0.00    +0.005 C 
ATOM     24  C   UNL     1      -0.757  -0.239   0.650  0.00  0.00    -0.031 C 
ATOM     25  C   UNL     1      -0.373  -0.895  -0.679  0.00  0.00    +0.003 C 
ATOM     26  C   UNL     1       1.048  -0.466  -1.058  0.00  0.00    -0.031 C 
ATOM     27  C   UNL     1       2.007  -0.843   0.073  0.00  0.00    -0.075 C 
ATOM     28  N   UNL     1       1.602  -0.164   1.310  0.00  0.00    +0.384 N 
ATOM     29  C   UNL     1       0.269  -0.625   1.718  0.00  0.00    -0.075 C 
ATOM     30  C   UNL     1       1.470  -1.177  -2.345  0.00  0.00    +0.005 C 
ATOM     31  H   UNL     1       1.579   0.833   1.153  0.00  0.00    -0.081 HD
ENDBRANCH  20  28
ENDBRANCH  19  20
ENDBRANCH   1  19
TORSDOF 6
