REMARK  Name = ZINC09828984
REMARK  10 active torsions:
REMARK  status: ('A' for Active; 'I' for Inactive)
REMARK    1  A    between atoms: C_1  and  O_2
REMARK    2  A    between atoms: O_2  and  C_3
REMARK    3  A    between atoms: C_6  and  N_9
REMARK    4  A    between atoms: N_12  and  C_15
REMARK    5  A    between atoms: C_15  and  C_17
REMARK    6  A    between atoms: C_15  and  C_30
REMARK    7  A    between atoms: C_17  and  N_18
REMARK    8  A    between atoms: C_19  and  C_21
REMARK    9  A    between atoms: N_23  and  C_24
REMARK   10  A    between atoms: C_24  and  C_25
REMARK                            x       y       z     vdW  Elec       q    Type
REMARK                         _______ _______ _______ _____ _____    ______ ____
ROOT
ATOM      1  C   UNL     1       5.879  -4.100   6.207  0.00  0.00    +0.017 C 
ENDROOT
BRANCH   1   5
ATOM      2  N   UNL     1       1.786  -4.231   5.351  0.00  0.00    -0.333 N 
ATOM      3  C   UNL     1       2.702  -4.073   4.211  0.00  0.00    +0.086 C 
ATOM      4  C   UNL     1       4.103  -4.510   4.650  0.00  0.00    -0.059 C 
ATOM      5  N   UNL     1       4.495  -3.761   5.851  0.00  0.00    +0.389 N 
ATOM      6  C   UNL     1       3.605  -4.106   6.967  0.00  0.00    -0.059 C 
ATOM      7  C   UNL     1       2.177  -3.644   6.641  0.00  0.00    +0.086 C 
ATOM      8  H   UNL     1       4.430  -2.772   5.665  0.00  0.00    -0.081 HD
BRANCH   2  12
ATOM      9  C   UNL     1      -1.826  -6.271   4.930  0.00  0.00    +0.120 A 
ATOM     10  C   UNL     1      -1.417  -5.837   6.182  0.00  0.00    +0.047 A 
ATOM     11  C   UNL     1      -0.220  -5.161   6.322  0.00  0.00    +0.027 A 
ATOM     12  C   UNL     1       0.573  -4.916   5.209  0.00  0.00    +0.030 A 
ATOM     13  C   UNL     1       0.163  -5.351   3.956  0.00  0.00    +0.027 A 
ATOM     14  C   UNL     1      -1.031  -6.032   3.818  0.00  0.00    +0.047 A 
BRANCH   9  16
ATOM     15  C   UNL     1      -3.772  -7.147   5.979  0.00  0.00    +0.277 C 
ATOM     16  O   UNL     1      -3.004  -6.936   4.792  0.00  0.00    -0.495 OA
ENDBRANCH   9  16
ENDBRANCH   2  12
ENDBRANCH   1   5
BRANCH   1  17
ATOM     17  C   UNL     1       5.999  -5.590   6.398  0.00  0.00    +0.093 A 
ATOM     18  C   UNL     1       6.966  -6.373   5.887  0.00  0.00    +0.043 A 
ATOM     19  C   UNL     1       6.691  -7.693   6.313  0.00  0.00    +0.041 A 
ATOM     20  C   UNL     1       5.573  -7.638   7.058  0.00  0.00    +0.195 A 
ATOM     21  O   UNL     1       5.161  -6.360   7.111  0.00  0.00    -0.469 OA
ENDBRANCH   1  17
BRANCH   1  22
ATOM     22  C   UNL     1       6.260  -3.387   7.507  0.00  0.00    +0.097 C 
BRANCH  22  23
ATOM     23  N   UNL     1       6.045  -1.946   7.355  0.00  0.00    -0.309 N 
ATOM     24  C   UNL     1       6.404  -1.103   8.343  0.00  0.00    +0.299 C 
ATOM     25  O   UNL     1       6.905  -1.538   9.360  0.00  0.00    -0.265 OA
ATOM     26  H   UNL     1       5.645  -1.598   6.542  0.00  0.00    +0.149 HD
BRANCH  24  27
ATOM     27  C   UNL     1       6.186   0.367   8.188  0.00  0.00    +0.299 C 
ATOM     28  O   UNL     1       5.685   0.802   7.172  0.00  0.00    -0.265 OA
ATOM     29  N   UNL     1       6.544   1.210   9.177  0.00  0.00    -0.303 N 
ATOM     30  H   UNL     1       6.944   0.862   9.989  0.00  0.00    +0.149 HD
BRANCH  29  31
ATOM     31  C   UNL     1       6.330   2.651   9.024  0.00  0.00    +0.147 C 
BRANCH  31  32
ATOM     32  C   UNL     1       6.814   3.364  10.261  0.00  0.00    +0.007 A 
ATOM     33  C   UNL     1       8.042   3.870  10.529  0.00  0.00    +0.013 A 
ATOM     34  C   UNL     1       8.260   4.491  11.744  0.00  0.00    +0.008 A 
ATOM     35  C   UNL     1       7.239   4.577  12.632  0.00  0.00    +0.045 A 
ATOM     36  S   UNL     1       5.914   3.769  11.749  0.00  0.00    -0.100 S 
ENDBRANCH  31  32
ENDBRANCH  29  31
ENDBRANCH  24  27
ENDBRANCH  22  23
ENDBRANCH   1  22
TORSDOF 9
