REMARK  Name = ZINC25152239
REMARK  7 active torsions:
REMARK  status: ('A' for Active; 'I' for Inactive)
REMARK    1  A    between atoms: C_1  and  C_2
REMARK    2  A    between atoms: C_2  and  C_4
REMARK    3  A    between atoms: C_2  and  N_15
REMARK    4  A    between atoms: N_6  and  C_7
REMARK    5  A    between atoms: C_8  and  C_12
REMARK    6  A    between atoms: C_18  and  C_21
REMARK    7  A    between atoms: C_21  and  C_23
REMARK                            x       y       z     vdW  Elec       q    Type
REMARK                         _______ _______ _______ _____ _____    ______ ____
ROOT
ATOM      1  N   UNL     1      -0.973  -0.941   0.575  0.00  0.00    +0.387 N 
ATOM      2  C   UNL     1      -0.295  -2.193   0.931  0.00  0.00    -0.077 C 
ATOM      3  C   UNL     1      -1.321  -3.202   1.454  0.00  0.00    -0.007 C 
ATOM      4  C   UNL     1      -2.012  -2.624   2.692  0.00  0.00    +0.057 C 
ATOM      5  C   UNL     1      -2.652  -1.282   2.327  0.00  0.00    -0.007 C 
ATOM      6  C   UNL     1      -1.578  -0.344   1.772  0.00  0.00    -0.077 C 
ATOM      7  H   UNL     1      -1.694  -1.133  -0.104  0.00  0.00    -0.081 HD
ENDROOT
BRANCH   1   9
ATOM      8  C   UNL     1      -0.698   1.312  -0.344  0.00  0.00    -0.004 C 
ATOM      9  C   UNL     1       0.002  -0.004   0.002  0.00  0.00    +0.016 C 
BRANCH   9  10
ATOM     10  C   UNL     1       0.597  -0.601  -1.247  0.00  0.00    +0.204 C 
ATOM     11  O   UNL     1      -0.041  -1.396  -1.903  0.00  0.00    -0.277 OA
ATOM     12  N   UNL     1       1.839  -0.250  -1.636  0.00  0.00    -0.281 N 
ATOM     13  H   UNL     1       2.350   0.387  -1.112  0.00  0.00    +0.155 HD
BRANCH  12  14
ATOM     14  C   UNL     1       2.387  -0.798  -2.786  0.00  0.00    +0.084 A 
ATOM     15  C   UNL     1       3.640  -0.561  -3.331  0.00  0.00    +0.065 A 
ATOM     16  C   UNL     1       3.961  -1.272  -4.547  0.00  0.00    +0.022 A 
ATOM     17  C   UNL     1       3.002  -2.089  -5.020  0.00  0.00    +0.048 A 
ATOM     18  S   UNL     1       1.688  -1.907  -3.833  0.00  0.00    -0.081 S 
BRANCH  15  19
ATOM     19  C   UNL     1       4.591   0.363  -2.704  0.00  0.00    +0.244 C 
ATOM     20  O   UNL     1       4.288   0.946  -1.679  0.00  0.00    -0.270 OA
ATOM     21  N   UNL     1       5.800   0.568  -3.263  0.00  0.00    -0.325 N 
ATOM     22  H   UNL     1       6.041   0.104  -4.080  0.00  0.00    +0.145 HD
ATOM     23  H   UNL     1       6.428   1.179  -2.849  0.00  0.00    +0.145 HD
ENDBRANCH  15  19
ENDBRANCH  12  14
ENDBRANCH   9  10
ENDBRANCH   1   9
BRANCH   4  24
ATOM     24  C   UNL     1      -3.078  -3.578   3.166  0.00  0.00    +0.166 C 
ATOM     25  O   UNL     1      -3.587  -4.355   2.385  0.00  0.00    -0.292 OA
BRANCH  24  26
ATOM     26  C   UNL     1      -3.500  -3.568   4.572  0.00  0.00    +0.021 A 
ATOM     27  C   UNL     1      -2.919  -2.668   5.474  0.00  0.00    +0.015 A 
ATOM     28  C   UNL     1      -3.317  -2.663   6.791  0.00  0.00    +0.050 A 
ATOM     29  C   UNL     1      -4.296  -3.547   7.233  0.00  0.00    +0.162 A 
ATOM     30  C   UNL     1      -4.881  -4.444   6.341  0.00  0.00    +0.163 A 
ATOM     31  C   UNL     1      -4.490  -4.453   5.015  0.00  0.00    +0.060 A 
ATOM     32  O   UNL     1      -5.846  -5.310   6.756  0.00  0.00    -0.485 OA
ATOM     33  C   UNL     1      -5.953  -5.524   8.168  0.00  0.00    +0.270 C 
ATOM     34  C   UNL     1      -5.911  -4.157   8.865  0.00  0.00    +0.270 C 
ATOM     35  O   UNL     1      -4.669  -3.525   8.539  0.00  0.00    -0.485 OA
ENDBRANCH  24  26
ENDBRANCH   4  24
TORSDOF 6
