REMARK  Name = ZINC14158001
REMARK  12 active torsions:
REMARK  status: ('A' for Active; 'I' for Inactive)
REMARK    1  A    between atoms: C_1  and  C_2
REMARK    2  A    between atoms: C_4  and  C_33
REMARK    3  A    between atoms: N_10  and  C_11
REMARK    4  A    between atoms: C_11  and  N_13
REMARK    5  A    between atoms: N_13  and  C_14
REMARK    6  A    between atoms: C_19  and  O_20
REMARK    7  A    between atoms: O_20  and  C_21
REMARK    8  A    between atoms: N_22  and  C_23
REMARK    9  A    between atoms: C_25  and  C_31
REMARK   10  A    between atoms: C_25  and  C_32
REMARK   11  A    between atoms: C_27  and  C_29
REMARK   12  A    between atoms: C_27  and  C_30
REMARK                            x       y       z     vdW  Elec       q    Type
REMARK                         _______ _______ _______ _____ _____    ______ ____
ROOT
ATOM      1  C   UNL     1      -0.053  -6.715   4.806  0.00  0.00    +0.066 C 
ATOM      2  C   UNL     1       0.019  -5.986   3.490  0.00  0.00    +0.044 A 
ATOM      3  C   UNL     1       0.142  -6.691   2.303  0.00  0.00    +0.046 A 
ATOM      4  C   UNL     1       0.205  -5.981   1.114  0.00  0.00    +0.044 A 
ATOM      5  N   UNL     1       0.146  -4.660   1.148  0.00  0.00    -0.217 NA
ATOM      6  C   UNL     1       0.028  -4.017   2.299  0.00  0.00    +0.231 A 
ATOM      7  N   UNL     1      -0.040  -4.665   3.452  0.00  0.00    -0.217 NA
ATOM      8  N   UNL     1      -0.031  -2.630   2.298  0.00  0.00    -0.297 N 
ATOM      9  C   UNL     1      -0.048  -1.944   3.482  0.00  0.00    +0.196 C 
ATOM     10  N   UNL     1       0.094  -2.594   4.624  0.00  0.00    -0.159 NA
ATOM     11  N   UNL     1      -0.210  -0.588   3.484  0.00  0.00    -0.355 N 
ATOM     12  C   UNL     1       0.339  -6.705  -0.201  0.00  0.00    +0.066 C 
ATOM     13  H   UNL     1      -0.060  -2.147   1.457  0.00  0.00    +0.171 HD
ATOM     14  H   UNL     1      -0.149  -0.093   4.316  0.00  0.00    +0.163 HD
ENDROOT
BRANCH  11  15
ATOM     15  C   UNL     1      -0.478   0.121   2.226  0.00  0.00    +0.079 C 
ATOM     16  C   UNL     1       0.843   0.356   1.491  0.00  0.00    +0.011 C 
ATOM     17  C   UNL     1       0.582   1.104   0.184  0.00  0.00    -0.071 C 
ATOM     18  N   UNL     1      -0.164   2.335   0.397  0.00  0.00    +0.386 N 
ATOM     19  C   UNL     1      -1.336   2.274   1.256  0.00  0.00    -0.071 C 
ATOM     20  C   UNL     1      -1.102   1.480   2.537  0.00  0.00    +0.011 C 
ATOM     21  C   UNL     1      -1.682   3.724   1.672  0.00  0.00    -0.010 C 
ATOM     22  C   UNL     1      -2.555   1.720   0.514  0.00  0.00    -0.010 C 
ATOM     23  C   UNL     1      -0.102   0.183  -0.825  0.00  0.00    -0.010 C 
ATOM     24  C   UNL     1       1.959   1.489  -0.406  0.00  0.00    -0.010 C 
ATOM     25  H   UNL     1       0.476   3.037   0.776  0.00  0.00    -0.084 HD
ATOM     26  H   UNL     1      -0.452   2.698  -0.515  0.00  0.00    -0.084 HD
ENDBRANCH  11  15
BRANCH  10  27
ATOM     27  C   UNL     1       0.175  -1.914   5.777  0.00  0.00    +0.162 C 
ATOM     28  S   UNL     1      -1.165  -1.002   6.330  0.00  0.00    -0.016 S 
BRANCH  27  29
ATOM     29  N   UNL     1       1.312  -1.948   6.501  0.00  0.00    -0.292 N 
ATOM     30  H   UNL     1       2.099  -2.390   6.147  0.00  0.00    +0.154 HD
BRANCH  29  31
ATOM     31  C   UNL     1       1.355  -1.346   7.765  0.00  0.00    +0.075 A 
ATOM     32  C   UNL     1       0.243  -1.384   8.592  0.00  0.00    +0.027 A 
ATOM     33  C   UNL     1       0.288  -0.789   9.839  0.00  0.00    +0.002 A 
ATOM     34  C   UNL     1       1.441  -0.155  10.264  0.00  0.00    +0.004 A 
ATOM     35  C   UNL     1       2.554  -0.113   9.445  0.00  0.00    +0.047 A 
ATOM     36  C   UNL     1       2.518  -0.712   8.196  0.00  0.00    +0.141 A 
BRANCH  36  37
ATOM     37  O   UNL     1       3.614  -0.676   7.391  0.00  0.00    -0.493 OA
ATOM     38  C   UNL     1       4.771  -0.009   7.900  0.00  0.00    +0.277 C 
ENDBRANCH  36  37
ENDBRANCH  29  31
ENDBRANCH  27  29
ENDBRANCH  10  27
TORSDOF 5
