REMARK  Name = ZINC67324784
REMARK  10 active torsions:
REMARK  status: ('A' for Active; 'I' for Inactive)
REMARK    1  A    between atoms: C_1  and  C_2
REMARK    2  A    between atoms: N_7  and  C_9
REMARK    3  A    between atoms: C_9  and  C_10
REMARK    4  A    between atoms: C_9  and  C_11
REMARK    5  A    between atoms: C_9  and  C_12
REMARK    6  A    between atoms: C_12  and  N_13
REMARK    7  A    between atoms: N_16  and  C_17
REMARK    8  A    between atoms: C_21  and  N_23
REMARK    9  A    between atoms: C_24  and  O_26
REMARK   10  A    between atoms: O_26  and  C_27
REMARK                            x       y       z     vdW  Elec       q    Type
REMARK                         _______ _______ _______ _____ _____    ______ ____
ROOT
ATOM      1  N   UNL     1       0.659  -4.887   1.735  0.00  0.00    -0.300 N 
ATOM      2  C   UNL     1       0.088  -6.072   2.028  0.00  0.00    +0.304 C 
ATOM      3  O   UNL     1       0.748  -6.953   2.545  0.00  0.00    -0.253 OA
ATOM      4  N   UNL     1      -1.214  -6.281   1.748  0.00  0.00    -0.269 N 
ATOM      5  H   UNL     1       0.133  -4.184   1.322  0.00  0.00    +0.150 HD
ATOM      6  H   UNL     1      -1.757  -5.556   1.402  0.00  0.00    +0.156 HD
ENDROOT
BRANCH   4   7
ATOM      7  C   UNL     1      -1.781  -7.544   1.956  0.00  0.00    +0.037 A 
ATOM      8  C   UNL     1      -1.369  -8.322   3.031  0.00  0.00    +0.026 A 
ATOM      9  C   UNL     1      -1.928  -9.569   3.238  0.00  0.00    +0.042 A 
ATOM     10  C   UNL     1      -2.899 -10.046   2.376  0.00  0.00    +0.145 A 
ATOM     11  C   UNL     1      -3.314  -9.271   1.298  0.00  0.00    +0.073 A 
ATOM     12  C   UNL     1      -2.759  -8.017   1.093  0.00  0.00    +0.049 A 
ATOM     13  F   UNL     1      -3.444 -11.265   2.581  0.00  0.00    -0.204 F 
BRANCH  11  14
ATOM     14  N   UNL     1      -4.297  -9.754   0.425  0.00  0.00    -0.248 N 
ATOM     15  C   UNL     1      -4.426  -9.220  -0.806  0.00  0.00    +0.404 C 
ATOM     16  O   UNL     1      -3.636  -8.381  -1.190  0.00  0.00    -0.226 OA
ATOM     17  H   UNL     1      -4.885 -10.473   0.706  0.00  0.00    +0.158 HD
BRANCH  15  18
ATOM     18  O   UNL     1      -5.431  -9.617  -1.610  0.00  0.00    -0.453 OA
ATOM     19  C   UNL     1      -5.507  -9.009  -2.901  0.00  0.00    +0.282 C 
ENDBRANCH  15  18
ENDBRANCH  11  14
ENDBRANCH   4   7
BRANCH   1  20
ATOM     20  C   UNL     1       2.074  -4.660   2.039  0.00  0.00    +0.093 C 
BRANCH  20  21
ATOM     21  C   UNL     1       2.445  -3.217   1.694  0.00  0.00    -0.055 C 
ATOM     22  C   UNL     1       3.936  -2.997   1.957  0.00  0.00    -0.008 C 
ATOM     23  C   UNL     1       1.627  -2.259   2.563  0.00  0.00    -0.008 C 
BRANCH  21  29
ATOM     24  C   UNL     1       2.677   0.109  -1.891  0.00  0.00    +0.005 C 
ATOM     25  C   UNL     1       2.218  -1.304  -1.527  0.00  0.00    -0.031 C 
ATOM     26  C   UNL     1       2.906  -2.318  -2.445  0.00  0.00    -0.001 C 
ATOM     27  C   UNL     1       2.501  -3.733  -2.023  0.00  0.00    -0.018 C 
ATOM     28  C   UNL     1       2.864  -3.943  -0.551  0.00  0.00    -0.078 C 
ATOM     29  N   UNL     1       2.154  -2.961   0.277  0.00  0.00    +0.384 N 
ATOM     30  C   UNL     1       2.590  -1.604  -0.073  0.00  0.00    -0.075 C 
ATOM     31  H   UNL     1       1.161  -3.045   0.119  0.00  0.00    -0.081 HD
ENDBRANCH  21  29
ENDBRANCH  20  21
ENDBRANCH   1  20
TORSDOF 6
