REMARK  Name = ZINC41006543
REMARK  10 active torsions:
REMARK  status: ('A' for Active; 'I' for Inactive)
REMARK    1  A    between atoms: C_1  and  C_2
REMARK    2  A    between atoms: C_7  and  N_8
REMARK    3  A    between atoms: C_9  and  C_11
REMARK    4  A    between atoms: C_13  and  C_33
REMARK    5  A    between atoms: C_15  and  C_23
REMARK    6  A    between atoms: C_17  and  C_21
REMARK    7  A    between atoms: C_17  and  O_22
REMARK    8  A    between atoms: N_25  and  C_26
REMARK    9  A    between atoms: C_31  and  C_32
REMARK   10  A    between atoms: C_37  and  N_39
REMARK                            x       y       z     vdW  Elec       q    Type
REMARK                         _______ _______ _______ _____ _____    ______ ____
ROOT
ATOM      1  C   UNL     1       1.134  -0.322   5.421  0.00  0.00    +0.149 C 
ATOM      2  C   UNL     1       0.659  -1.489   6.293  0.00  0.00    +0.053 C 
ATOM      3  C   UNL     1      -0.716  -1.956   5.812  0.00  0.00    +0.115 C 
ATOM      4  C   UNL     1      -1.739  -0.835   5.997  0.00  0.00    +0.082 C 
ATOM      5  C   UNL     1      -1.354   0.357   5.114  0.00  0.00    +0.110 C 
ATOM      6  C   UNL     1       0.074   0.756   5.434  0.00  0.00    +0.148 C 
ATOM      7  O   UNL     1       0.357   1.901   5.696  0.00  0.00    -0.296 OA
ATOM      8  C   UNL     1      -3.127  -1.339   5.596  0.00  0.00    +0.042 C 
ENDROOT
BRANCH   2   9
ATOM      9  C   UNL     1       1.641  -2.627   6.190  0.00  0.00    -0.040 A 
ATOM     10  C   UNL     1       1.679  -3.406   5.048  0.00  0.00    +0.004 A 
ATOM     11  C   UNL     1       2.581  -4.449   4.954  0.00  0.00    +0.002 A 
ATOM     12  C   UNL     1       3.445  -4.714   6.000  0.00  0.00    +0.033 A 
ATOM     13  C   UNL     1       3.408  -3.934   7.141  0.00  0.00    +0.126 A 
ATOM     14  C   UNL     1       2.509  -2.888   7.234  0.00  0.00    +0.036 A 
BRANCH  13  15
ATOM     15  N   UNL     1       4.332  -4.218   8.261  0.00  0.00    +0.056 N 
ATOM     16  O   UNL     1       5.120  -5.131   8.179  0.00  0.00    -0.126 OA
ATOM     17  O   UNL     1       4.300  -3.536   9.259  0.00  0.00    -0.126 OA
ENDBRANCH  13  15
ENDBRANCH   2   9
BRANCH   1  19
ATOM     18  N   UNL     1       0.835  -0.108   2.975  0.00  0.00    -0.285 N 
ATOM     19  C   UNL     1       1.352  -0.801   4.009  0.00  0.00    +0.228 C 
ATOM     20  O   UNL     1       1.992  -1.811   3.803  0.00  0.00    -0.275 OA
ATOM     21  H   UNL     1       0.379   0.733   3.135  0.00  0.00    +0.155 HD
BRANCH  18  28
ATOM     22  C   UNL     1      -1.065   0.740   1.034  0.00  0.00    +0.045 C 
ATOM     23  C   UNL     1       0.051  -0.213   0.694  0.00  0.00    -0.029 A 
ATOM     24  C   UNL     1       0.178  -0.698  -0.594  0.00  0.00    +0.005 A 
ATOM     25  C   UNL     1       1.202  -1.572  -0.908  0.00  0.00    +0.000 A 
ATOM     26  C   UNL     1       2.103  -1.965   0.066  0.00  0.00    +0.002 A 
ATOM     27  C   UNL     1       1.982  -1.484   1.355  0.00  0.00    +0.023 A 
ATOM     28  C   UNL     1       0.957  -0.601   1.672  0.00  0.00    +0.036 A 
ENDBRANCH  18  28
ENDBRANCH   1  19
BRANCH   3  29
ATOM     29  C   UNL     1      -0.636  -2.324   4.352  0.00  0.00    +0.224 C 
ATOM     30  O   UNL     1      -0.591  -1.454   3.509  0.00  0.00    -0.275 OA
ATOM     31  N   UNL     1      -0.617  -3.621   3.984  0.00  0.00    -0.285 N 
ATOM     32  H   UNL     1      -0.711  -4.316   4.654  0.00  0.00    +0.155 HD
BRANCH  31  33
ATOM     33  C   UNL     1      -0.460  -3.963   2.637  0.00  0.00    +0.036 A 
ATOM     34  C   UNL     1      -0.738  -3.031   1.645  0.00  0.00    +0.023 A 
ATOM     35  C   UNL     1      -0.582  -3.372   0.316  0.00  0.00    +0.002 A 
ATOM     36  C   UNL     1      -0.151  -4.640  -0.028  0.00  0.00    +0.000 A 
ATOM     37  C   UNL     1       0.126  -5.571   0.957  0.00  0.00    +0.005 A 
ATOM     38  C   UNL     1      -0.022  -5.234   2.288  0.00  0.00    -0.029 A 
ATOM     39  C   UNL     1       0.287  -6.246   3.361  0.00  0.00    +0.045 C 
ENDBRANCH  31  33
ENDBRANCH   3  29
BRANCH   4  40
ATOM     40  O   UNL     1      -1.757  -0.427   7.366  0.00  0.00    -0.388 OA
ATOM     41  H   UNL     1      -2.385   0.283   7.557  0.00  0.00    +0.210 HD
ENDBRANCH   4  40
TORSDOF 7
