REMARK  Name = ZINC13977156
REMARK  6 active torsions:
REMARK  status: ('A' for Active; 'I' for Inactive)
REMARK    1  A    between atoms: C_1  and  C_2
REMARK    2  A    between atoms: C_5  and  C_9
REMARK    3  A    between atoms: N_11  and  C_12
REMARK    4  A    between atoms: C_12  and  N_14
REMARK    5  A    between atoms: N_14  and  N_15
REMARK    6  A    between atoms: C_16  and  C_18
REMARK                            x       y       z     vdW  Elec       q    Type
REMARK                         _______ _______ _______ _____ _____    ______ ____
ROOT
ATOM      1  C   UNL     1      -0.014   1.211   0.009  0.00  0.00    +0.250 C 
ATOM      2  O   UNL     1       0.002  -0.004   0.002  0.00  0.00    -0.270 OA
ATOM      3  N   UNL     1       1.143   1.901   0.001  0.00  0.00    -0.263 N 
ATOM      4  H   UNL     1       1.130   2.871   0.007  0.00  0.00    +0.157 HD
ENDROOT
BRANCH   1   9
ATOM      5  C   UNL     1      -5.036   4.021   0.046  0.00  0.00    +0.045 C 
ATOM      6  C   UNL     1      -3.721   3.285   0.037  0.00  0.00    -0.037 A 
ATOM      7  C   UNL     1      -2.534   3.996   0.035  0.00  0.00    +0.005 A 
ATOM      8  C   UNL     1      -1.327   3.329   0.032  0.00  0.00    +0.013 A 
ATOM      9  C   UNL     1      -1.304   1.932   0.019  0.00  0.00    +0.038 A 
ATOM     10  C   UNL     1      -2.505   1.221   0.021  0.00  0.00    +0.027 A 
ATOM     11  C   UNL     1      -3.706   1.901   0.030  0.00  0.00    +0.017 A 
ATOM     12  I   UNL     1      -5.510   0.837   0.033  0.00  0.00    -0.044 I 
ENDBRANCH   1   9
BRANCH   3  13
ATOM     13  C   UNL     1       2.320   1.243  -0.013  0.00  0.00    +0.153 C 
ATOM     14  S   UNL     1       2.343  -0.469  -0.023  0.00  0.00    -0.017 S 
BRANCH  13  15
ATOM     15  N   UNL     1       3.478   1.933  -0.021  0.00  0.00    -0.246 N 
ATOM     16  H   UNL     1       4.324   1.459  -0.031  0.00  0.00    +0.172 HD
BRANCH  15  17
ATOM     17  N   UNL     1       3.459   3.333  -0.013  0.00  0.00    -0.235 N 
ATOM     18  C   UNL     1       4.617   4.023  -0.020  0.00  0.00    +0.232 C 
ATOM     19  O   UNL     1       5.675   3.431  -0.034  0.00  0.00    -0.274 OA
ATOM     20  H   UNL     1       2.612   3.807  -0.002  0.00  0.00    +0.173 HD
BRANCH  18  21
ATOM     21  C   UNL     1       4.596   5.530  -0.012  0.00  0.00    +0.076 C 
ATOM     22  C   UNL     1       5.066   6.250  -1.278  0.00  0.00    +0.013 C 
ATOM     23  C   UNL     1       5.943   6.255  -0.023  0.00  0.00    +0.013 C 
ENDBRANCH  18  21
ENDBRANCH  15  17
ENDBRANCH  13  15
ENDBRANCH   3  13
TORSDOF 5
