REMARK  Name = ZINC49590881
REMARK  8 active torsions:
REMARK  status: ('A' for Active; 'I' for Inactive)
REMARK    1  A    between atoms: C_1  and  C_2
REMARK    2  A    between atoms: C_2  and  C_4
REMARK    3  A    between atoms: C_2  and  N_14
REMARK    4  A    between atoms: C_8  and  C_10
REMARK    5  A    between atoms: C_11  and  C_12
REMARK    6  A    between atoms: C_12  and  O_13
REMARK    7  A    between atoms: N_14  and  S_15
REMARK    8  A    between atoms: S_15  and  C_18
REMARK                            x       y       z     vdW  Elec       q    Type
REMARK                         _______ _______ _______ _____ _____    ______ ____
ROOT
ATOM      1  C   UNL     1      -0.019   1.526   0.010  0.00  0.00    +0.031 C 
ATOM      2  C   UNL     1       0.002  -0.004   0.002  0.00  0.00    +0.103 C 
ENDROOT
BRANCH   2   3
ATOM      3  C   UNL     1       0.731  -0.503   1.223  0.00  0.00    -0.028 A 
ATOM      4  C   UNL     1       0.079  -0.558   2.442  0.00  0.00    +0.005 A 
ATOM      5  C   UNL     1       0.741  -1.015   3.567  0.00  0.00    +0.002 A 
ATOM      6  C   UNL     1       2.057  -1.420   3.480  0.00  0.00    +0.017 A 
ATOM      7  C   UNL     1       2.720  -1.368   2.254  0.00  0.00    +0.025 A 
ATOM      8  C   UNL     1       2.045  -0.910   1.121  0.00  0.00    +0.022 A 
BRANCH   7   9
ATOM      9  C   UNL     1       4.086  -1.786   2.157  0.00  0.00    -0.064 C 
ATOM     10  C   UNL     1       5.206  -2.129   2.078  0.00  0.00    -0.069 C 
BRANCH  10  11
ATOM     11  C   UNL     1       6.611  -2.559   1.978  0.00  0.00    +0.244 C 
BRANCH  11  12
ATOM     12  O   UNL     1       7.059  -2.411   0.629  0.00  0.00    -0.383 OA
ATOM     13  H   UNL     1       7.979  -2.676   0.489  0.00  0.00    +0.211 HD
ENDBRANCH  11  12
ENDBRANCH  10  11
ENDBRANCH   7   9
ENDBRANCH   2   3
BRANCH   2  14
ATOM     14  N   UNL     1      -1.372  -0.511   0.012  0.00  0.00    -0.182 NA
ATOM     15  H   UNL     1      -1.845  -0.615   0.853  0.00  0.00    +0.149 HD
BRANCH  14  16
ATOM     16  S   UNL     1      -2.119  -0.907  -1.411  0.00  0.00    +0.065 S 
ATOM     17  O   UNL     1      -3.414  -1.386  -1.071  0.00  0.00    -0.153 OA
ATOM     18  O   UNL     1      -1.920   0.189  -2.293  0.00  0.00    -0.153 OA
BRANCH  16  19
ATOM     19  C   UNL     1      -1.242  -2.272  -2.098  0.00  0.00    +0.142 A 
ATOM     20  C   UNL     1      -1.452  -3.599  -1.918  0.00  0.00    +0.036 A 
ATOM     21  C   UNL     1      -0.629  -4.502  -2.566  0.00  0.00    +0.010 A 
ATOM     22  C   UNL     1       0.362  -4.033  -3.362  0.00  0.00    +0.047 A 
ATOM     23  S   UNL     1       0.149  -2.267  -3.217  0.00  0.00    -0.077 S 
ENDBRANCH  16  19
ENDBRANCH  14  16
ENDBRANCH   2  14
TORSDOF 7
