REMARK  Name = ZINC15007738
REMARK  8 active torsions:
REMARK  status: ('A' for Active; 'I' for Inactive)
REMARK    1  A    between atoms: C_4  and  C_7
REMARK    2  A    between atoms: C_7  and  C_8
REMARK    3  A    between atoms: C_8  and  C_9
REMARK    4  A    between atoms: C_9  and  N_10
REMARK    5  A    between atoms: C_21  and  N_64
REMARK    6  A    between atoms: C_25  and  C_26
REMARK    7  A    between atoms: C_25  and  N_64
REMARK    8  A    between atoms: C_26  and  O_32
REMARK                            x       y       z     vdW  Elec       q    Type
REMARK                         _______ _______ _______ _____ _____    ______ ____
ROOT
ATOM      1  N   UNL     1      -1.413  -1.998   0.005  0.00  0.00    -0.299 N 
ATOM      2  C   UNL     1      -1.393  -2.670   1.185  0.00  0.00    +0.203 A 
ATOM      3  N   UNL     1      -1.376  -3.975   1.220  0.00  0.00    -0.230 NA
ATOM      4  C   UNL     1      -1.377  -4.689   0.098  0.00  0.00    +0.116 A 
ATOM      5  C   UNL     1      -1.397  -4.085  -1.169  0.00  0.00    +0.076 A 
ATOM      6  C   UNL     1      -1.421  -2.651  -1.172  0.00  0.00    +0.262 A 
ATOM      7  O   UNL     1      -1.445  -2.034  -2.223  0.00  0.00    -0.267 OA
ATOM      8  C   UNL     1      -1.395  -4.995  -2.313  0.00  0.00    -0.023 A 
ATOM      9  C   UNL     1      -1.374  -6.318  -2.043  0.00  0.00    -0.006 A 
ATOM     10  S   UNL     1      -1.358  -6.425  -0.274  0.00  0.00    -0.073 S 
ATOM     11  C   UNL     1      -1.368  -7.446  -3.029  0.00  0.00    +0.027 C 
ATOM     12  C   UNL     1      -1.012  -6.879  -4.411  0.00  0.00    -0.067 C 
ATOM     13  C   UNL     1      -1.869  -5.635  -4.667  0.00  0.00    -0.011 C 
ATOM     14  C   UNL     1      -1.415  -4.495  -3.755  0.00  0.00    +0.035 C 
ENDROOT
BRANCH  12  15
ATOM     15  N   UNL     1      -1.296  -7.888  -5.449  0.00  0.00    +0.383 N 
ATOM     16  H   UNL     1      -1.470  -7.415  -6.343  0.00  0.00    -0.085 HD
ATOM     17  H   UNL     1      -2.127  -8.426  -5.179  0.00  0.00    -0.085 HD
BRANCH  15  18
ATOM     18  C   UNL     1      -0.150  -8.805  -5.598  0.00  0.00    -0.047 C 
BRANCH  18  19
ATOM     19  C   UNL     1      -0.473  -9.839  -6.679  0.00  0.00    +0.051 C 
ATOM     20  C   UNL     1      -1.785 -10.546  -6.333  0.00  0.00    +0.033 C 
ATOM     21  C   UNL     1      -2.108 -11.579  -7.414  0.00  0.00    +0.003 C 
ATOM     22  C   UNL     1      -0.978 -12.608  -7.489  0.00  0.00    +0.000 C 
ATOM     23  C   UNL     1       0.334 -11.902  -7.835  0.00  0.00    +0.003 C 
ATOM     24  C   UNL     1       0.657 -10.868  -6.754  0.00  0.00    +0.033 C 
BRANCH  19  25
ATOM     25  O   UNL     1      -0.604  -9.182  -7.942  0.00  0.00    -0.390 OA
ATOM     26  H   UNL     1      -1.303  -8.515  -7.967  0.00  0.00    +0.210 HD
ENDBRANCH  19  25
ENDBRANCH  18  19
ENDBRANCH  15  18
ENDBRANCH  12  15
BRANCH   1  27
ATOM     27  C   UNL     1      -1.433  -0.534   0.013  0.00  0.00    +0.126 C 
BRANCH  27  28
ATOM     28  C   UNL     1       0.002  -0.004   0.002  0.00  0.00    +0.026 C 
BRANCH  28  29
ATOM     29  C   UNL     1      -0.019   1.526   0.010  0.00  0.00    +0.037 C 
BRANCH  29  33
ATOM     30  C   UNL     1       3.989   3.005  -0.020  0.00  0.00    +0.000 A 
ATOM     31  C   UNL     1       3.329   2.772  -1.212  0.00  0.00    +0.000 A 
ATOM     32  C   UNL     1       2.032   2.293  -1.202  0.00  0.00    +0.003 A 
ATOM     33  C   UNL     1       1.395   2.047  -0.000  0.00  0.00    -0.047 A 
ATOM     34  C   UNL     1       2.053   2.285   1.192  0.00  0.00    +0.003 A 
ATOM     35  C   UNL     1       3.352   2.759   1.182  0.00  0.00    +0.000 A 
ENDBRANCH  29  33
ENDBRANCH  28  29
ENDBRANCH  27  28
ENDBRANCH   1  27
TORSDOF 8
