REMARK  Name = ZINC54695309
REMARK  10 active torsions:
REMARK  status: ('A' for Active; 'I' for Inactive)
REMARK    1  A    between atoms: C_1  and  C_2
REMARK    2  A    between atoms: C_7  and  S_10
REMARK    3  A    between atoms: S_10  and  C_11
REMARK    4  A    between atoms: C_11  and  C_12
REMARK    5  A    between atoms: C_12  and  C_13
REMARK    6  A    between atoms: C_13  and  C_14
REMARK    7  A    between atoms: C_14  and  C_15
REMARK    8  A    between atoms: C_14  and  C_16
REMARK    9  A    between atoms: C_14  and  N_19
REMARK   10  A    between atoms: N_19  and  C_20
REMARK                            x       y       z     vdW  Elec       q    Type
REMARK                         _______ _______ _______ _____ _____    ______ ____
ROOT
ATOM      1  C   UNL     1       2.688  -7.247   4.953  0.00  0.00    +0.007 C 
ATOM      2  C   UNL     1       4.176  -6.893   4.921  0.00  0.00    -0.001 C 
ENDROOT
BRANCH   1   3
ATOM      3  C   UNL     1       2.076  -6.731   6.230  0.00  0.00    +0.199 C 
ATOM      4  O   UNL     1       2.579  -5.790   6.807  0.00  0.00    -0.278 OA
ATOM      5  N   UNL     1       0.969  -7.315   6.731  0.00  0.00    -0.330 N 
ATOM      6  H   UNL     1       0.566  -8.067   6.269  0.00  0.00    +0.145 HD
ATOM      7  H   UNL     1       0.575  -6.983   7.553  0.00  0.00    +0.145 HD
ENDBRANCH   1   3
BRANCH   1   8
ATOM      8  N   UNL     1       2.530  -8.706   4.889  0.00  0.00    +0.390 N 
ATOM      9  H   UNL     1       1.549  -8.940   4.910  0.00  0.00    -0.084 HD
ATOM     10  H   UNL     1       2.940  -9.051   4.034  0.00  0.00    -0.084 HD
BRANCH   8  11
ATOM     11  C   UNL     1       3.205  -9.322   6.039  0.00  0.00    -0.071 C 
ATOM     12  C   UNL     1       4.389 -10.247   5.751  0.00  0.00    -0.017 C 
ATOM     13  C   UNL     1       3.056 -10.834   6.218  0.00  0.00    -0.017 C 
ENDBRANCH   8  11
ENDBRANCH   1   8
BRANCH   1  14
ATOM     14  C   UNL     1       1.985  -6.605   3.755  0.00  0.00    -0.003 C 
BRANCH  14  15
ATOM     15  C   UNL     1       2.149  -5.085   3.822  0.00  0.00    +0.010 C 
BRANCH  15  16
ATOM     16  C   UNL     1       1.446  -4.444   2.624  0.00  0.00    +0.069 C 
BRANCH  16  17
ATOM     17  S   UNL     1       1.640  -2.642   2.703  0.00  0.00    -0.157 S 
BRANCH  17  23
ATOM     18  C   UNL     1      -0.019   1.526   0.010  0.00  0.00    +0.007 C 
ATOM     19  C   UNL     1       0.002  -0.004   0.002  0.00  0.00    -0.013 C 
ATOM     20  C   UNL     1       0.718  -0.497  -1.257  0.00  0.00    +0.003 C 
ATOM     21  C   UNL     1       0.739  -2.027  -1.265  0.00  0.00    +0.001 C 
ATOM     22  C   UNL     1       1.479  -2.534  -0.026  0.00  0.00    +0.014 C 
ATOM     23  C   UNL     1       0.763  -2.041   1.233  0.00  0.00    +0.047 C 
ATOM     24  C   UNL     1       0.742  -0.511   1.242  0.00  0.00    +0.017 C 
ENDBRANCH  17  23
ENDBRANCH  16  17
ENDBRANCH  15  16
ENDBRANCH  14  15
ENDBRANCH   1  14
TORSDOF 8
