REMARK  Name = ZINC64343407
REMARK  8 active torsions:
REMARK  status: ('A' for Active; 'I' for Inactive)
REMARK    1  A    between atoms: C_1  and  C_2
REMARK    2  A    between atoms: C_2  and  C_3
REMARK    3  A    between atoms: C_2  and  C_4
REMARK    4  A    between atoms: C_4  and  C_6
REMARK    5  A    between atoms: C_4  and  N_21
REMARK    6  A    between atoms: N_8  and  N_9
REMARK    7  A    between atoms: C_10  and  C_12
REMARK    8  A    between atoms: C_22  and  C_24
REMARK                            x       y       z     vdW  Elec       q    Type
REMARK                         _______ _______ _______ _____ _____    ______ ____
ROOT
ATOM      1  C   UNL     1      -1.281  -2.049   0.112  0.00  0.00    +0.250 C 
ATOM      2  O   UNL     1      -1.695  -2.794  -0.751  0.00  0.00    -0.272 OA
ATOM      3  N   UNL     1      -0.754  -2.556   1.244  0.00  0.00    -0.233 N 
ATOM      4  H   UNL     1      -0.357  -1.964   1.902  0.00  0.00    +0.173 HD
ENDROOT
BRANCH   3   5
ATOM      5  N   UNL     1      -0.781  -3.938   1.471  0.00  0.00    -0.231 N 
ATOM      6  C   UNL     1      -0.255  -4.445   2.603  0.00  0.00    +0.258 C 
ATOM      7  O   UNL     1       0.244  -3.703   3.428  0.00  0.00    -0.269 OA
ATOM      8  H   UNL     1      -1.178  -4.530   0.814  0.00  0.00    +0.173 HD
BRANCH   6   9
ATOM      9  C   UNL     1      -0.282  -5.892   2.841  0.00  0.00    +0.044 C 
ATOM     10  C   UNL     1       0.204  -6.564   3.941  0.00  0.00    +0.008 A 
ATOM     11  C   UNL     1       0.848  -6.131   5.128  0.00  0.00    +0.010 A 
ATOM     12  C   UNL     1       1.228  -7.030   6.062  0.00  0.00    +0.001 A 
ATOM     13  C   UNL     1       1.012  -8.409   5.913  0.00  0.00    +0.002 A 
ATOM     14  C   UNL     1       0.408  -8.925   4.821  0.00  0.00    +0.026 A 
ATOM     15  C   UNL     1      -0.038  -8.016   3.754  0.00  0.00    +0.043 A 
ATOM     16  N   UNL     1      -0.635  -8.236   2.616  0.00  0.00    -0.380 N 
ATOM     17  C   UNL     1      -0.857  -6.957   1.933  0.00  0.00    +0.154 C 
ATOM     18  H   UNL     1      -0.895  -9.106   2.277  0.00  0.00    +0.160 HD
ENDBRANCH   6   9
ENDBRANCH   3   5
BRANCH   1  19
ATOM     19  C   UNL     1      -1.355  -0.556  -0.083  0.00  0.00    +0.163 C 
BRANCH  19  20
ATOM     20  N   UNL     1      -2.372  -0.245  -1.090  0.00  0.00    -0.301 N 
ATOM     21  C   UNL     1      -2.977   0.960  -1.086  0.00  0.00    +0.255 C 
ATOM     22  O   UNL     1      -2.680   1.785  -0.249  0.00  0.00    -0.272 OA
ATOM     23  H   UNL     1      -2.610  -0.905  -1.759  0.00  0.00    +0.150 HD
BRANCH  21  24
ATOM     24  C   UNL     1      -4.023   1.280  -2.123  0.00  0.00    +0.261 C 
ATOM     25  C   UNL     1      -5.297   0.427  -1.906  0.00  0.00    +0.084 C 
ATOM     26  C   UNL     1      -6.152   1.359  -1.065  0.00  0.00    +0.015 C 
ATOM     27  C   UNL     1      -5.628   2.562  -1.155  0.00  0.00    +0.184 C 
ATOM     28  O   UNL     1      -4.531   2.617  -1.946  0.00  0.00    -0.487 OA
ENDBRANCH  21  24
ENDBRANCH  19  20
BRANCH  19  30
ATOM     29  C   UNL     1       0.313  -0.596  -1.942  0.00  0.00    +0.009 C 
ATOM     30  C   UNL     1       0.005  -0.035  -0.552  0.00  0.00    +0.012 C 
ATOM     31  C   UNL     1      -0.029   1.493  -0.615  0.00  0.00    +0.009 C 
ENDBRANCH  19  30
ENDBRANCH   1  19
TORSDOF 6
