REMARK  Name = ZINC67010455
REMARK  9 active torsions:
REMARK  status: ('A' for Active; 'I' for Inactive)
REMARK    1  A    between atoms: C_1  and  C_2
REMARK    2  A    between atoms: C_2  and  C_4
REMARK    3  A    between atoms: C_2  and  N_15
REMARK    4  A    between atoms: C_8  and  S_10
REMARK    5  A    between atoms: S_10  and  N_13
REMARK    6  A    between atoms: N_13  and  C_14
REMARK    7  A    between atoms: N_15  and  C_16
REMARK    8  A    between atoms: C_16  and  C_17
REMARK    9  A    between atoms: C_20  and  C_22
REMARK                            x       y       z     vdW  Elec       q    Type
REMARK                         _______ _______ _______ _____ _____    ______ ____
ROOT
ATOM      1  N   UNL     1      -1.376  -0.512   0.012  0.00  0.00    +0.388 N 
ATOM      2  H   UNL     1      -1.363  -1.518   0.090  0.00  0.00    -0.084 HD
ATOM      3  H   UNL     1      -1.873  -0.121   0.799  0.00  0.00    -0.084 HD
ENDROOT
BRANCH   1   5
ATOM      4  C   UNL     1      -0.019   1.526   0.010  0.00  0.00    -0.009 C 
ATOM      5  C   UNL     1       0.002  -0.004   0.002  0.00  0.00    -0.043 C 
BRANCH   5   6
ATOM      6  C   UNL     1       0.731  -0.503   1.223  0.00  0.00    -0.060 A 
ATOM      7  C   UNL     1       0.081  -0.558   2.442  0.00  0.00    +0.002 A 
ATOM      8  C   UNL     1       0.749  -1.016   3.562  0.00  0.00    +0.002 A 
ATOM      9  C   UNL     1       2.068  -1.420   3.463  0.00  0.00    +0.028 A 
ATOM     10  C   UNL     1       2.718  -1.365   2.244  0.00  0.00    +0.105 A 
ATOM     11  C   UNL     1       2.048  -0.911   1.123  0.00  0.00    +0.030 A 
BRANCH  10  12
ATOM     12  S   UNL     1       4.399  -1.879   2.118  0.00  0.00    +0.058 S 
ATOM     13  O   UNL     1       4.941  -1.217   0.984  0.00  0.00    -0.153 OA
ATOM     14  O   UNL     1       4.961  -1.749   3.417  0.00  0.00    -0.153 OA
BRANCH  12  15
ATOM     15  N   UNL     1       4.391  -3.496   1.764  0.00  0.00    -0.193 NA
ATOM     16  C   UNL     1       3.843  -3.965   0.489  0.00  0.00    +0.127 C 
ATOM     17  H   UNL     1       4.750  -4.134   2.401  0.00  0.00    +0.148 HD
ENDBRANCH  12  15
ENDBRANCH  10  12
ENDBRANCH   5   6
ENDBRANCH   1   5
BRANCH   1  18
ATOM     18  C   UNL     1      -2.050  -0.126  -1.234  0.00  0.00    -0.006 C 
BRANCH  18  19
ATOM     19  C   UNL     1      -3.464  -0.648  -1.224  0.00  0.00    +0.089 A 
ATOM     20  C   UNL     1      -4.540   0.011  -0.752  0.00  0.00    +0.043 A 
ATOM     21  C   UNL     1      -5.654  -0.834  -0.934  0.00  0.00    +0.050 A 
ATOM     22  C   UNL     1      -5.190  -1.974  -1.513  0.00  0.00    +0.135 A 
ATOM     23  O   UNL     1      -3.861  -1.844  -1.688  0.00  0.00    -0.462 OA
BRANCH  22  24
ATOM     24  C   UNL     1      -6.004  -3.148  -1.890  0.00  0.00    +0.017 A 
ATOM     25  C   UNL     1      -7.381  -3.148  -1.663  0.00  0.00    +0.014 A 
ATOM     26  C   UNL     1      -8.136  -4.247  -2.017  0.00  0.00    +0.039 A 
ATOM     27  C   UNL     1      -7.529  -5.350  -2.596  0.00  0.00    +0.123 A 
ATOM     28  C   UNL     1      -6.162  -5.355  -2.825  0.00  0.00    +0.039 A 
ATOM     29  C   UNL     1      -5.399  -4.259  -2.481  0.00  0.00    +0.014 A 
ATOM     30  F   UNL     1      -8.273  -6.424  -2.940  0.00  0.00    -0.205 F 
ENDBRANCH  22  24
ENDBRANCH  18  19
ENDBRANCH   1  18
TORSDOF 7
