REMARK  Name = ZINC62980026
REMARK  3 active torsions:
REMARK  status: ('A' for Active; 'I' for Inactive)
REMARK    1  A    between atoms: C_3  and  C_20
REMARK    2  A    between atoms: C_5  and  N_8
REMARK    3  A    between atoms: C_11  and  N_14
REMARK                            x       y       z     vdW  Elec       q    Type
REMARK                         _______ _______ _______ _____ _____    ______ ____
ROOT
ATOM      1  N   UNL     1       1.891  -1.550   0.374  0.00  0.00    -0.297 NA
ATOM      2  C   UNL     1       2.036  -1.458  -1.102  0.00  0.00    +0.086 C 
ATOM      3  C   UNL     1       2.260  -2.915  -1.562  0.00  0.00    +0.035 C 
ATOM      4  C   UNL     1       1.637  -3.786  -0.452  0.00  0.00    +0.072 C 
ATOM      5  C   UNL     1       1.089  -2.782   0.586  0.00  0.00    +0.103 C 
ENDROOT
BRANCH   4   6
ATOM      6  N   UNL     1       0.546  -4.605  -0.998  0.00  0.00    -0.294 NA
ATOM      7  C   UNL     1      -0.137  -5.351   0.069  0.00  0.00    +0.113 C 
ATOM      8  C   UNL     1      -1.301  -6.143  -0.534  0.00  0.00    +0.175 C 
ATOM      9  O   UNL     1      -0.803  -7.002  -1.563  0.00  0.00    -0.377 OA
ATOM     10  C   UNL     1      -0.132  -6.309  -2.618  0.00  0.00    +0.175 C 
ATOM     11  C   UNL     1       1.043  -5.519  -2.036  0.00  0.00    +0.113 C 
ENDBRANCH   4   6
BRANCH   1  15
ATOM     12  C   UNL     1       1.796   1.879   1.635  0.00  0.00    +0.003 C 
ATOM     13  C   UNL     1       2.018   0.931   2.840  0.00  0.00    +0.020 C 
ATOM     14  C   UNL     1       1.277  -0.363   2.445  0.00  0.00    +0.109 C 
ATOM     15  C   UNL     1       1.195  -0.371   0.908  0.00  0.00    +0.074 C 
ATOM     16  C   UNL     1       1.889   0.918   0.423  0.00  0.00    +0.020 C 
BRANCH  14  17
ATOM     17  C   UNL     1       2.027  -1.538   2.917  0.00  0.00    +0.067 C 
ATOM     18  N   UNL     1       2.607  -2.445   3.282  0.00  0.00    -0.196 NA
ENDBRANCH  14  17
ENDBRANCH   1  15
TORSDOF 3
