REMARK  Name = ZINC17306238
REMARK  12 active torsions:
REMARK  status: ('A' for Active; 'I' for Inactive)
REMARK    1  A    between atoms: C_1  and  C_2
REMARK    2  A    between atoms: C_4  and  S_28
REMARK    3  A    between atoms: C_6  and  N_9
REMARK    4  A    between atoms: C_7  and  C_8
REMARK    5  A    between atoms: C_10  and  C_12
REMARK    6  A    between atoms: C_12  and  N_57
REMARK    7  A    between atoms: C_13  and  N_57
REMARK    8  A    between atoms: C_14  and  C_16
REMARK    9  A    between atoms: C_14  and  C_17
REMARK   10  A    between atoms: C_14  and  N_57
REMARK   11  A    between atoms: C_20  and  N_23
REMARK   12  A    between atoms: S_28  and  N_31
REMARK                            x       y       z     vdW  Elec       q    Type
REMARK                         _______ _______ _______ _____ _____    ______ ____
ROOT
ATOM      1  N   UNL     1      -3.386   0.514   3.723  0.00  0.00    -0.287 N 
ATOM      2  C   UNL     1      -3.692  -0.648   3.112  0.00  0.00    +0.201 C 
ATOM      3  O   UNL     1      -3.074  -0.998   2.129  0.00  0.00    -0.278 OA
ATOM      4  H   UNL     1      -3.838   0.765   4.543  0.00  0.00    +0.155 HD
ENDROOT
BRANCH   1  10
ATOM      5  C   UNL     1      -1.738   5.063   2.849  0.00  0.00    +0.044 C 
ATOM      6  C   UNL     1      -1.591   3.567   2.735  0.00  0.00    -0.044 A 
ATOM      7  C   UNL     1      -0.493   3.028   2.090  0.00  0.00    +0.032 A 
ATOM      8  C   UNL     1      -0.357   1.657   1.978  0.00  0.00    +0.107 A 
ATOM      9  C   UNL     1      -1.314   0.820   2.520  0.00  0.00    +0.052 A 
ATOM     10  C   UNL     1      -2.415   1.358   3.173  0.00  0.00    +0.038 A 
ATOM     11  C   UNL     1      -2.551   2.737   3.279  0.00  0.00    -0.026 A 
ATOM     12  C   UNL     1      -3.744   3.325   3.986  0.00  0.00    +0.046 C 
BRANCH   8  13
ATOM     13  S   UNL     1       1.040   0.975   1.149  0.00  0.00    +0.056 S 
ATOM     14  O   UNL     1       1.214  -0.340   1.661  0.00  0.00    -0.153 OA
ATOM     15  O   UNL     1       2.066   1.957   1.208  0.00  0.00    -0.153 OA
BRANCH  13  16
ATOM     16  N   UNL     1       0.631   0.812  -0.447  0.00  0.00    -0.204 NA
ATOM     17  H   UNL     1      -0.250   1.079  -0.752  0.00  0.00    +0.144 HD
ATOM     18  H   UNL     1       1.273   0.449  -1.077  0.00  0.00    +0.144 HD
ENDBRANCH  13  16
ENDBRANCH   8  13
ENDBRANCH   1  10
BRANCH   2  19
ATOM     19  C   UNL     1      -4.804  -1.511   3.650  0.00  0.00    +0.019 C 
BRANCH  19  21
ATOM     20  C   UNL     1      -3.749  -3.566   2.924  0.00  0.00    -0.095 C 
ATOM     21  N   UNL     1      -4.942  -2.704   2.787  0.00  0.00    +0.388 N 
ATOM     22  H   UNL     1      -5.024  -2.400   1.810  0.00  0.00    -0.081 HD
BRANCH  21  23
ATOM     23  C   UNL     1      -6.157  -3.459   3.159  0.00  0.00    -0.041 C 
ATOM     24  C   UNL     1      -6.322  -4.637   2.197  0.00  0.00    -0.008 C 
BRANCH  23  25
ATOM     25  C   UNL     1      -7.353  -2.548   3.049  0.00  0.00    -0.061 A 
ATOM     26  C   UNL     1      -7.488  -1.716   1.953  0.00  0.00    +0.004 A 
ATOM     27  C   UNL     1      -8.585  -0.885   1.846  0.00  0.00    +0.028 A 
ATOM     28  C   UNL     1      -9.548  -0.877   2.847  0.00  0.00    +0.067 A 
ATOM     29  C   UNL     1      -9.406  -1.709   3.949  0.00  0.00    +0.028 A 
ATOM     30  C   UNL     1      -8.310  -2.542   4.047  0.00  0.00    +0.004 A 
BRANCH  28  31
ATOM     31  N   UNL     1     -10.660  -0.030   2.744  0.00  0.00    -0.220 N 
ATOM     32  C   UNL     1     -10.930   0.832   1.744  0.00  0.00    +0.225 A 
ATOM     33  N   UNL     1     -12.059   1.432   2.021  0.00  0.00    -0.222 NA
ATOM     34  C   UNL     1     -12.534   0.990   3.185  0.00  0.00    +0.245 A 
ATOM     35  N   UNL     1     -11.713   0.094   3.666  0.00  0.00    -0.154 NA
ENDBRANCH  28  31
ENDBRANCH  23  25
ENDBRANCH  21  23
ENDBRANCH  19  21
ENDBRANCH   2  19
TORSDOF 8
