REMARK  Name = ZINC24338984
REMARK  10 active torsions:
REMARK  status: ('A' for Active; 'I' for Inactive)
REMARK    1  A    between atoms: C_1  and  C_2
REMARK    2  A    between atoms: C_5  and  C_38
REMARK    3  A    between atoms: C_10  and  C_12
REMARK    4  A    between atoms: C_12  and  N_13
REMARK    5  A    between atoms: N_16  and  C_19
REMARK    6  A    between atoms: C_19  and  C_21
REMARK    7  A    between atoms: C_19  and  C_22
REMARK    8  A    between atoms: N_24  and  C_25
REMARK    9  A    between atoms: C_30  and  S_31
REMARK   10  A    between atoms: S_31  and  C_32
REMARK                            x       y       z     vdW  Elec       q    Type
REMARK                         _______ _______ _______ _____ _____    ______ ____
ROOT
ATOM      1  C   UNL     1       5.981  -1.008   0.916  0.00  0.00    +0.017 C 
ATOM      2  C   UNL     1       6.007  -1.719   2.271  0.00  0.00    -0.004 C 
ENDROOT
BRANCH   1   6
ATOM      3  N   UNL     1       2.488   1.132  -0.115  0.00  0.00    -0.298 NA
ATOM      4  C   UNL     1       2.473   0.348   1.127  0.00  0.00    +0.066 C 
ATOM      5  C   UNL     1       3.583  -0.704   1.076  0.00  0.00    -0.062 C 
ATOM      6  N   UNL     1       4.880  -0.036   0.894  0.00  0.00    +0.389 N 
ATOM      7  C   UNL     1       4.894   0.748  -0.348  0.00  0.00    -0.062 C 
ATOM      8  C   UNL     1       3.784   1.800  -0.297  0.00  0.00    +0.066 C 
ATOM      9  H   UNL     1       5.026   0.657   1.736  0.00  0.00    -0.081 HD
BRANCH   3  10
ATOM     10  C   UNL     1       1.387   2.104  -0.137  0.00  0.00    +0.180 C 
BRANCH  10  18
ATOM     11  C   UNL     1      -1.188   3.664  -2.698  0.00  0.00    +0.009 C 
ATOM     12  C   UNL     1      -1.890   4.051  -1.395  0.00  0.00    +0.004 C 
ATOM     13  C   UNL     1      -3.288   3.428  -1.364  0.00  0.00    +0.009 C 
ATOM     14  C   UNL     1      -3.173   1.906  -1.482  0.00  0.00    +0.004 C 
ATOM     15  C   UNL     1      -2.375   1.365  -0.292  0.00  0.00    +0.111 C 
ATOM     16  N   UNL     1      -1.085   2.064  -0.229  0.00  0.00    -0.300 N 
ATOM     17  C   UNL     1      -1.079   3.533  -0.198  0.00  0.00    +0.111 C 
ATOM     18  C   UNL     1       0.071   1.372  -0.195  0.00  0.00    +0.230 C 
ATOM     19  O   UNL     1       0.052   0.159  -0.216  0.00  0.00    -0.274 OA
ATOM     20  C   UNL     1      -4.572   1.287  -1.484  0.00  0.00    +0.009 C 
ENDBRANCH  10  18
ENDBRANCH   3  10
ENDBRANCH   1   6
BRANCH   1  21
ATOM     21  C   UNL     1       5.777  -2.023  -0.179  0.00  0.00    +0.203 C 
ATOM     22  O   UNL     1       4.831  -1.921  -0.932  0.00  0.00    -0.277 OA
ATOM     23  N   UNL     1       6.646  -3.043  -0.323  0.00  0.00    -0.286 N 
ATOM     24  H   UNL     1       7.470  -3.169   0.394  0.00  0.00    +0.155 HD
BRANCH  23  25
ATOM     25  C   UNL     1       6.499  -3.943  -1.387  0.00  0.00    +0.047 A 
ATOM     26  C   UNL     1       5.234  -4.280  -1.844  0.00  0.00    +0.024 A 
ATOM     27  C   UNL     1       5.091  -5.165  -2.897  0.00  0.00    +0.002 A 
ATOM     28  C   UNL     1       6.208  -5.725  -3.491  0.00  0.00    +0.001 A 
ATOM     29  C   UNL     1       7.473  -5.400  -3.038  0.00  0.00    +0.017 A 
ATOM     30  C   UNL     1       7.625  -4.509  -1.986  0.00  0.00    +0.034 A 
BRANCH  30  31
ATOM     31  S   UNL     1       9.237  -4.093  -1.406  0.00  0.00    -0.088 S 
BRANCH  31  32
ATOM     32  C   UNL     1      10.318  -4.909  -2.532  0.00  0.00    +0.013 A 
ATOM     33  C   UNL     1      10.670  -6.237  -2.322  0.00  0.00    +0.015 A 
ATOM     34  C   UNL     1      11.514  -6.875  -3.209  0.00  0.00    +0.001 A 
ATOM     35  C   UNL     1      12.018  -6.191  -4.301  0.00  0.00    +0.000 A 
ATOM     36  C   UNL     1      11.674  -4.868  -4.510  0.00  0.00    +0.001 A 
ATOM     37  C   UNL     1      10.826  -4.225  -3.630  0.00  0.00    +0.015 A 
ENDBRANCH  31  32
ENDBRANCH  30  31
ENDBRANCH  23  25
ENDBRANCH   1  21
TORSDOF 7
