REMARK  Name = ZINC12329819
REMARK  6 active torsions:
REMARK  status: ('A' for Active; 'I' for Inactive)
REMARK    1  A    between atoms: C_6  and  C_7
REMARK    2  A    between atoms: C_7  and  C_9
REMARK    3  A    between atoms: C_7  and  O_27
REMARK    4  A    between atoms: C_9  and  N_51
REMARK    5  A    between atoms: C_16  and  O_26
REMARK    6  A    between atoms: C_20  and  O_25
REMARK                            x       y       z     vdW  Elec       q    Type
REMARK                         _______ _______ _______ _____ _____    ______ ____
ROOT
ATOM      1  C   UNL     1      -4.141  -0.503  -0.415  0.00  0.00    -0.075 C 
ATOM      2  C   UNL     1      -2.636  -0.239  -0.314  0.00  0.00    +0.029 C 
ATOM      3  C   UNL     1      -2.364   1.244  -0.572  0.00  0.00    +0.110 C 
ATOM      4  C   UNL     1      -2.917   1.632  -1.945  0.00  0.00    +0.029 C 
ATOM      5  C   UNL     1      -4.414   1.314  -1.995  0.00  0.00    -0.075 C 
ATOM      6  C   UNL     1      -0.855   1.501  -0.539  0.00  0.00    +0.084 C 
ATOM      7  C   UNL     1      -0.310   1.010   0.805  0.00  0.00    +0.152 C 
ATOM      8  C   UNL     1      -1.170   1.540   1.924  0.00  0.00    +0.026 A 
ATOM      9  C   UNL     1      -0.658   1.548   3.211  0.00  0.00    +0.055 A 
ATOM     10  C   UNL     1      -1.421   2.026   4.263  0.00  0.00    +0.117 A 
ATOM     11  C   UNL     1      -2.705   2.496   4.028  0.00  0.00    +0.049 A 
ATOM     12  C   UNL     1      -3.216   2.489   2.747  0.00  0.00    +0.049 A 
ATOM     13  C   UNL     1      -2.449   2.012   1.688  0.00  0.00    +0.127 A 
ATOM     14  O   UNL     1      -2.986   2.035   0.439  0.00  0.00    -0.485 OA
ATOM     15  N   UNL     1      -4.604  -0.135  -1.770  0.00  0.00    +0.382 N 
ATOM     16  H   UNL     1      -4.052  -0.655  -2.463  0.00  0.00    -0.082 HD
ENDROOT
BRANCH  10  17
ATOM     17  O   UNL     1      -0.914   2.033   5.525  0.00  0.00    -0.507 OA
ATOM     18  H   UNL     1      -0.445   2.847   5.755  0.00  0.00    +0.292 HD
ENDBRANCH  10  17
BRANCH   7  19
ATOM     19  O   UNL     1       1.030   1.476   0.974  0.00  0.00    -0.387 OA
ATOM     20  H   UNL     1       1.440   1.202   1.805  0.00  0.00    +0.210 HD
ENDBRANCH   7  19
BRANCH  15  21
ATOM     21  C   UNL     1      -6.029  -0.488  -1.929  0.00  0.00    -0.042 C 
BRANCH  21  22
ATOM     22  C   UNL     1      -6.136  -1.997  -2.161  0.00  0.00    +0.128 C 
BRANCH  22  28
ATOM     23  C   UNL     1      -8.241  -2.281  -3.485  0.00  0.00    +0.007 A 
ATOM     24  C   UNL     1      -9.571  -2.644  -3.589  0.00  0.00    +0.020 A 
ATOM     25  C   UNL     1     -10.252  -3.101  -2.474  0.00  0.00    +0.041 A 
ATOM     26  C   UNL     1      -9.599  -3.200  -1.258  0.00  0.00    +0.020 A 
ATOM     27  C   UNL     1      -8.268  -2.843  -1.158  0.00  0.00    +0.007 A 
ATOM     28  C   UNL     1      -7.588  -2.386  -2.272  0.00  0.00    -0.021 A 
ATOM     29 CL   UNL     1     -11.924  -3.550  -2.602  0.00  0.00    -0.084 Cl
ENDBRANCH  22  28
BRANCH  22  30
ATOM     30  O   UNL     1      -5.457  -2.342  -3.370  0.00  0.00    -0.389 OA
ATOM     31  H   UNL     1      -5.811  -1.906  -4.158  0.00  0.00    +0.210 HD
ENDBRANCH  22  30
ENDBRANCH  21  22
ENDBRANCH  15  21
TORSDOF 6
