REMARK  Name = ZINC65526093
REMARK  9 active torsions:
REMARK  status: ('A' for Active; 'I' for Inactive)
REMARK    1  A    between atoms: C_1  and  C_2
REMARK    2  A    between atoms: C_2  and  N_3
REMARK    3  A    between atoms: C_10  and  C_27
REMARK    4  A    between atoms: C_10  and  C_30
REMARK    5  A    between atoms: C_12  and  C_14
REMARK    6  A    between atoms: C_19  and  C_20
REMARK    7  A    between atoms: C_27  and  C_28
REMARK    8  A    between atoms: C_28  and  O_29
REMARK    9  A    between atoms: C_30  and  O_31
REMARK                            x       y       z     vdW  Elec       q    Type
REMARK                         _______ _______ _______ _____ _____    ______ ____
ROOT
ATOM      1  N   UNL     1      -3.092  -1.675   0.558  0.00  0.00    +0.380 N 
ATOM      2  C   UNL     1      -3.288  -0.980  -0.740  0.00  0.00    -0.074 C 
ATOM      3  C   UNL     1      -4.367  -1.808  -1.469  0.00  0.00    -0.007 C 
ATOM      4  C   UNL     1      -4.274  -3.224  -0.839  0.00  0.00    -0.002 C 
ATOM      5  C   UNL     1      -3.149  -3.117   0.211  0.00  0.00    -0.073 C 
ATOM      6  C   UNL     1      -3.812  -4.140  -1.991  0.00  0.00    +0.046 C 
ATOM      7  N   UNL     1      -3.119  -3.232  -2.941  0.00  0.00    -0.304 NA
ATOM      8  C   UNL     1      -3.945  -1.987  -2.942  0.00  0.00    +0.070 C 
ATOM      9  H   UNL     1      -2.180  -3.033  -2.630  0.00  0.00    +0.123 HD
ATOM     10  H   UNL     1      -3.831  -1.437   1.203  0.00  0.00    -0.082 HD
ENDROOT
BRANCH   8  11
ATOM     11  C   UNL     1      -3.135  -0.778  -3.416  0.00  0.00    +0.100 C 
ATOM     12  C   UNL     1      -3.983   0.477  -3.389  0.00  0.00    +0.119 C 
ATOM     13  N   UNL     1      -4.039   0.898  -4.610  0.00  0.00    -0.161 NA
ATOM     14  N   UNL     1      -3.330   0.085  -5.488  0.00  0.00    -0.153 NA
ATOM     15  C   UNL     1      -2.763  -0.924  -4.878  0.00  0.00    +0.080 C 
BRANCH  15  16
ATOM     16  C   UNL     1      -1.937  -1.981  -5.482  0.00  0.00    -0.001 A 
ATOM     17  C   UNL     1      -1.015  -2.686  -4.701  0.00  0.00    +0.012 A 
ATOM     18  C   UNL     1      -0.245  -3.675  -5.273  0.00  0.00    +0.039 A 
ATOM     19  C   UNL     1      -0.382  -3.972  -6.621  0.00  0.00    +0.123 A 
ATOM     20  C   UNL     1      -1.294  -3.277  -7.401  0.00  0.00    +0.039 A 
ATOM     21  C   UNL     1      -2.074  -2.289  -6.840  0.00  0.00    +0.012 A 
ATOM     22  F   UNL     1       0.377  -4.942  -7.176  0.00  0.00    -0.205 F 
ENDBRANCH  15  16
ENDBRANCH   8  11
BRANCH   1  24
ATOM     23  C   UNL     1      -1.791   0.123   1.593  0.00  0.00    -0.017 C 
ATOM     24  C   UNL     1      -1.782  -1.335   1.130  0.00  0.00    -0.082 C 
ENDBRANCH   1  24
BRANCH   6  25
ATOM     25  C   UNL     1      -5.018  -4.797  -2.666  0.00  0.00    +0.052 C 
BRANCH  25  26
ATOM     26  C   UNL     1      -4.549  -5.592  -3.886  0.00  0.00    +0.157 C 
BRANCH  26  27
ATOM     27  O   UNL     1      -5.685  -6.105  -4.586  0.00  0.00    -0.395 OA
ATOM     28  H   UNL     1      -5.462  -6.621  -5.373  0.00  0.00    +0.209 HD
ENDBRANCH  26  27
ENDBRANCH  25  26
ENDBRANCH   6  25
BRANCH   6  29
ATOM     29  C   UNL     1      -2.845  -5.205  -1.471  0.00  0.00    +0.178 C 
BRANCH  29  30
ATOM     30  O   UNL     1      -3.453  -5.910  -0.386  0.00  0.00    -0.393 OA
ATOM     31  H   UNL     1      -2.895  -6.603  -0.005  0.00  0.00    +0.209 HD
ENDBRANCH  29  30
ENDBRANCH   6  29
TORSDOF 8
