REMARK  Name = ZINC43424049
REMARK  6 active torsions:
REMARK  status: ('A' for Active; 'I' for Inactive)
REMARK    1  A    between atoms: C_1  and  C_2
REMARK    2  A    between atoms: C_2  and  C_3
REMARK    3  A    between atoms: C_3  and  C_5
REMARK    4  A    between atoms: C_3  and  N_25
REMARK    5  A    between atoms: C_5  and  C_7
REMARK    6  A    between atoms: C_5  and  N_13
REMARK                            x       y       z     vdW  Elec       q    Type
REMARK                         _______ _______ _______ _____ _____    ______ ____
ROOT
ATOM      1  C   UNL     1       0.581  -2.125   1.350  0.00  0.00    +0.080 C 
ENDROOT
BRANCH   1   2
ATOM      2  N   UNL     1      -0.828  -2.532   1.256  0.00  0.00    -0.289 NA
ATOM      3  C   UNL     1      -1.377  -2.230  -0.074  0.00  0.00    +0.113 C 
ATOM      4  C   UNL     1      -2.855  -2.624  -0.118  0.00  0.00    +0.175 C 
ATOM      5  O   UNL     1      -2.991  -4.006   0.228  0.00  0.00    -0.374 OA
ATOM      6  C   UNL     1      -2.471  -4.323   1.520  0.00  0.00    +0.135 C 
ATOM      7  C   UNL     1      -0.984  -3.960   1.565  0.00  0.00    +0.086 C 
ATOM      8  C   UNL     1      -0.433  -4.261   2.959  0.00  0.00    +0.021 C 
ATOM      9  C   UNL     1      -0.597  -5.753   3.254  0.00  0.00    +0.002 C 
ATOM     10  C   UNL     1      -2.078  -6.130   3.194  0.00  0.00    +0.003 C 
ATOM     11  C   UNL     1      -2.632  -5.817   1.802  0.00  0.00    +0.033 C 
ENDBRANCH   1   2
BRANCH   1  12
ATOM     12  C   UNL     1       0.832  -0.969   0.416  0.00  0.00    +0.006 A 
ATOM     13  C   UNL     1       1.803  -0.823  -0.518  0.00  0.00    +0.014 A 
ATOM     14  C   UNL     1       1.841   0.338  -1.270  0.00  0.00    +0.023 A 
ATOM     15  C   UNL     1       0.906   1.294  -1.049  0.00  0.00    +0.055 A 
ATOM     16  S   UNL     1      -0.076   0.559   0.248  0.00  0.00    -0.085 S 
ATOM     17 BR   UNL     1       0.692   2.970  -1.899  0.00  0.00    -0.043 Br
ENDBRANCH   1  12
BRANCH   1  18
ATOM     18  C   UNL     1       0.894  -1.698   2.785  0.00  0.00    -0.053 C 
BRANCH  18  19
ATOM     19  N   UNL     1       2.278  -1.210   2.860  0.00  0.00    +0.381 N 
ATOM     20  H   UNL     1       2.484  -0.928   3.807  0.00  0.00    -0.090 HD
ATOM     21  H   UNL     1       2.910  -1.945   2.582  0.00  0.00    -0.090 HD
ATOM     22  H   UNL     1       2.389  -0.419   2.242  0.00  0.00    -0.090 HD
ENDBRANCH  18  19
BRANCH  18  24
ATOM     23  C   UNL     1       0.150  -0.258   4.686  0.00  0.00    +0.002 C 
ATOM     24  C   UNL     1      -0.064  -0.583   3.207  0.00  0.00    -0.018 C 
ENDBRANCH  18  24
ENDBRANCH   1  18
TORSDOF 5
