REMARK  Name = ZINC06885848
REMARK  7 active torsions:
REMARK  status: ('A' for Active; 'I' for Inactive)
REMARK    1  A    between atoms: C_10  and  N_54
REMARK    2  A    between atoms: C_12  and  C_13
REMARK    3  A    between atoms: C_12  and  N_54
REMARK    4  A    between atoms: C_13  and  C_15
REMARK    5  A    between atoms: C_13  and  O_28
REMARK    6  A    between atoms: C_15  and  O_16
REMARK    7  A    between atoms: O_16  and  C_17
REMARK                            x       y       z     vdW  Elec       q    Type
REMARK                         _______ _______ _______ _____ _____    ______ ____
ROOT
ATOM      1  C   UNL     1      -1.259  -2.297  -1.416  0.00  0.00    +0.123 C 
ENDROOT
BRANCH   1   2
ATOM      2  O   UNL     1      -0.406  -1.887  -2.487  0.00  0.00    -0.391 OA
ATOM      3  H   UNL     1       0.504  -1.704  -2.217  0.00  0.00    +0.210 HD
ENDBRANCH   1   2
BRANCH   1   4
ATOM      4  C   UNL     1      -0.707  -3.578  -0.787  0.00  0.00    -0.048 C 
BRANCH   4   5
ATOM      5  N   UNL     1      -0.656  -4.637  -1.814  0.00  0.00    +0.385 N 
ATOM      6  H   UNL     1      -1.597  -4.779  -2.201  0.00  0.00    -0.085 HD
ATOM      7  H   UNL     1      -0.017  -4.350  -2.564  0.00  0.00    -0.085 HD
BRANCH   5  17
ATOM      8  C   UNL     1       1.725  -8.151  -4.322  0.00  0.00    +0.000 A 
ATOM      9  C   UNL     1       1.922  -6.787  -4.215  0.00  0.00    +0.000 A 
ATOM     10  C   UNL     1       1.296  -6.082  -3.208  0.00  0.00    +0.002 A 
ATOM     11  C   UNL     1       0.469  -6.731  -2.300  0.00  0.00    -0.058 A 
ATOM     12  C   UNL     1       0.269  -8.088  -2.410  0.00  0.00    -0.046 A 
ATOM     13  C   UNL     1       0.902  -8.797  -3.423  0.00  0.00    +0.004 A 
ATOM     14  C   UNL     1      -0.626  -8.854  -1.471  0.00  0.00    +0.035 C 
ATOM     15  C   UNL     1      -0.886  -8.049  -0.200  0.00  0.00    +0.003 C 
ATOM     16  C   UNL     1      -1.358  -6.647  -0.604  0.00  0.00    -0.011 C 
ATOM     17  C   UNL     1      -0.177  -5.900  -1.222  0.00  0.00    -0.041 C 
ENDBRANCH   5  17
ENDBRANCH   4   5
ENDBRANCH   1   4
BRANCH   1  18
ATOM     18  C   UNL     1      -1.315  -1.193  -0.358  0.00  0.00    +0.190 C 
BRANCH  18  19
ATOM     19  O   UNL     1      -1.937  -0.032  -0.913  0.00  0.00    -0.369 OA
BRANCH  19  20
ATOM     20  C   UNL     1      -1.954   1.094  -0.034  0.00  0.00    +0.149 C 
ATOM     21  C   UNL     1      -3.199   1.026   0.848  0.00  0.00    +0.037 C 
ATOM     22  C   UNL     1      -3.312   2.342   1.627  0.00  0.00    +0.007 C 
ATOM     23  C   UNL     1      -3.675   3.454   0.644  0.00  0.00    +0.035 C 
ATOM     24  C   UNL     1      -2.735   3.448  -0.533  0.00  0.00    -0.042 A 
ATOM     25  C   UNL     1      -1.955   2.359  -0.853  0.00  0.00    -0.016 A 
ATOM     26  C   UNL     1      -1.113   2.416  -1.956  0.00  0.00    +0.006 A 
ATOM     27  C   UNL     1      -1.056   3.552  -2.736  0.00  0.00    +0.000 A 
ATOM     28  C   UNL     1      -1.839   4.645  -2.416  0.00  0.00    +0.000 A 
ATOM     29  C   UNL     1      -2.675   4.591  -1.319  0.00  0.00    +0.004 A 
ENDBRANCH  19  20
ENDBRANCH  18  19
ENDBRANCH   1  18
TORSDOF 7
