REMARK  Name = ZINC36597873
REMARK  10 active torsions:
REMARK  status: ('A' for Active; 'I' for Inactive)
REMARK    1  A    between atoms: C_1  and  C_2
REMARK    2  A    between atoms: C_5  and  C_7
REMARK    3  A    between atoms: C_7  and  N_8
REMARK    4  A    between atoms: N_8  and  C_9
REMARK    5  A    between atoms: C_9  and  C_11
REMARK    6  A    between atoms: C_9  and  C_18
REMARK    7  A    between atoms: C_14  and  O_17
REMARK    8  A    between atoms: N_20  and  C_21
REMARK    9  A    between atoms: C_27  and  C_29
REMARK   10  A    between atoms: C_29  and  C_30
REMARK                            x       y       z     vdW  Elec       q    Type
REMARK                         _______ _______ _______ _____ _____    ______ ____
ROOT
ATOM      1  N   UNL     1       1.921  -3.727  -1.376  0.00  0.00    -0.278 N 
ATOM      2  C   UNL     1       1.502  -4.984  -1.623  0.00  0.00    +0.221 C 
ATOM      3  O   UNL     1       2.133  -5.697  -2.374  0.00  0.00    -0.275 OA
ENDROOT
BRANCH   1   4
ATOM      4  C   UNL     1       1.159  -2.866  -0.469  0.00  0.00    +0.183 C 
BRANCH   4   9
ATOM      5  C   UNL     1      -1.333   0.727  -2.983  0.00  0.00    +0.086 C 
ATOM      6  C   UNL     1      -1.007  -0.593  -2.333  0.00  0.00    +0.102 A 
ATOM      7  C   UNL     1      -1.809  -1.672  -2.298  0.00  0.00    +0.045 A 
ATOM      8  C   UNL     1      -1.111  -2.679  -1.594  0.00  0.00    +0.046 A 
ATOM      9  C   UNL     1       0.076  -2.155  -1.240  0.00  0.00    +0.122 A 
ATOM     10  O   UNL     1       0.136  -0.893  -1.696  0.00  0.00    -0.463 OA
ENDBRANCH   4   9
ENDBRANCH   1   4
BRANCH   1  11
ATOM     11  C   UNL     1       3.138  -3.221  -2.016  0.00  0.00    +0.193 C 
BRANCH  11  12
ATOM     12  C   UNL     1       4.346  -3.767  -1.299  0.00  0.00    -0.018 A 
ATOM     13  C   UNL     1       4.393  -3.753   0.082  0.00  0.00    +0.009 A 
ATOM     14  C   UNL     1       5.499  -4.252   0.742  0.00  0.00    +0.046 A 
ATOM     15  C   UNL     1       6.564  -4.767   0.017  0.00  0.00    +0.117 A 
ATOM     16  C   UNL     1       6.514  -4.780  -1.370  0.00  0.00    +0.046 A 
ATOM     17  C   UNL     1       5.403  -4.284  -2.024  0.00  0.00    +0.009 A 
BRANCH  15  18
ATOM     18  O   UNL     1       7.654  -5.258   0.663  0.00  0.00    -0.507 OA
ATOM     19  H   UNL     1       7.596  -6.201   0.871  0.00  0.00    +0.292 HD
ENDBRANCH  15  18
ENDBRANCH  11  12
BRANCH  11  20
ATOM     20  C   UNL     1       3.151  -1.716  -1.950  0.00  0.00    +0.238 C 
ATOM     21  O   UNL     1       2.280  -1.127  -1.346  0.00  0.00    -0.273 OA
ATOM     22  N   UNL     1       4.132  -1.023  -2.563  0.00  0.00    -0.311 N 
ATOM     23  H   UNL     1       4.829  -1.494  -3.047  0.00  0.00    +0.149 HD
BRANCH  22  24
ATOM     24  C   UNL     1       4.146   0.440  -2.499  0.00  0.00    +0.073 C 
ATOM     25  C   UNL     1       3.254   1.007  -3.606  0.00  0.00    +0.022 C 
ATOM     26  C   UNL     1       3.268   2.536  -3.539  0.00  0.00    +0.002 C 
ATOM     27  C   UNL     1       4.700   3.041  -3.728  0.00  0.00    +0.000 C 
ATOM     28  C   UNL     1       5.591   2.474  -2.621  0.00  0.00    +0.002 C 
ATOM     29  C   UNL     1       5.577   0.946  -2.688  0.00  0.00    +0.022 C 
ENDBRANCH  22  24
ENDBRANCH  11  20
ENDBRANCH   1  11
BRANCH   2  30
ATOM     30  C   UNL     1       0.250  -5.504  -0.965  0.00  0.00    +0.132 C 
BRANCH  30  31
ATOM     31  C   UNL     1       0.005  -6.925  -1.403  0.00  0.00    -0.019 A 
ATOM     32  C   UNL     1      -0.837  -7.183  -2.469  0.00  0.00    +0.005 A 
ATOM     33  C   UNL     1      -1.063  -8.486  -2.872  0.00  0.00    +0.002 A 
ATOM     34  C   UNL     1      -0.447  -9.532  -2.210  0.00  0.00    +0.021 A 
ATOM     35  C   UNL     1       0.396  -9.275  -1.144  0.00  0.00    +0.060 A 
ATOM     36  C   UNL     1       0.627  -7.969  -0.744  0.00  0.00    +0.063 A 
ATOM     37 CL   UNL     1       1.690  -7.645   0.589  0.00  0.00    -0.082 Cl
ATOM     38 CL   UNL     1       1.169 -10.588  -0.313  0.00  0.00    -0.082 Cl
ENDBRANCH  30  31
ENDBRANCH   2  30
TORSDOF 9
