REMARK  Name = ZINC42554921
REMARK  14 active torsions:
REMARK  status: ('A' for Active; 'I' for Inactive)
REMARK    1  A    between atoms: C_1  and  C_2
REMARK    2  A    between atoms: C_2  and  C_3
REMARK    3  A    between atoms: C_3  and  C_4
REMARK    4  A    between atoms: C_4  and  C_5
REMARK    5  A    between atoms: C_5  and  N_6
REMARK    6  A    between atoms: N_6  and  C_7
REMARK    7  A    between atoms: N_6  and  C_20
REMARK    8  A    between atoms: C_7  and  C_9
REMARK    9  A    between atoms: C_7  and  C_11
REMARK   10  A    between atoms: C_9  and  N_10
REMARK   11  A    between atoms: C_14  and  O_18
REMARK   12  A    between atoms: O_18  and  C_19
REMARK   13  A    between atoms: C_20  and  C_21
REMARK   14  A    between atoms: C_20  and  C_22
REMARK                            x       y       z     vdW  Elec       q    Type
REMARK                         _______ _______ _______ _____ _____    ______ ____
ROOT
ATOM      1  C   UNL     1      -3.056  -3.528  -0.004  0.00  0.00    -0.055 C 
ENDROOT
BRANCH   1   2
ATOM      2  C   UNL     1      -4.246  -3.053  -0.798  0.00  0.00    -0.061 A 
ATOM      3  C   UNL     1      -4.068  -2.178  -1.853  0.00  0.00    +0.005 A 
ATOM      4  C   UNL     1      -5.157  -1.741  -2.582  0.00  0.00    +0.047 A 
ATOM      5  C   UNL     1      -6.431  -2.181  -2.254  0.00  0.00    +0.134 A 
ATOM      6  C   UNL     1      -6.608  -3.060  -1.195  0.00  0.00    +0.060 A 
ATOM      7  C   UNL     1      -5.514  -3.498  -0.472  0.00  0.00    +0.021 A 
ATOM      8 BR   UNL     1      -8.343  -3.662  -0.744  0.00  0.00    -0.047 Br
BRANCH   5   9
ATOM      9  O   UNL     1      -7.504  -1.752  -2.970  0.00  0.00    -0.494 OA
ATOM     10  C   UNL     1      -7.247  -0.848  -4.046  0.00  0.00    +0.277 C 
ENDBRANCH   5   9
ENDBRANCH   1   2
BRANCH   1  11
ATOM     11  N   UNL     1      -2.283  -4.485  -0.807  0.00  0.00    +0.385 N 
ATOM     12  H   UNL     1      -1.575  -4.913  -0.230  0.00  0.00    -0.081 HD
BRANCH  11  13
ATOM     13  C   UNL     1      -3.180  -5.522  -1.332  0.00  0.00    -0.074 C 
ATOM     14  C   UNL     1      -3.983  -6.131  -0.180  0.00  0.00    -0.013 C 
ATOM     15  C   UNL     1      -4.139  -4.900  -2.349  0.00  0.00    -0.013 C 
ENDBRANCH  11  13
BRANCH  11  16
ATOM     16  C   UNL     1      -1.642  -3.780  -1.926  0.00  0.00    -0.078 C 
BRANCH  16  17
ATOM     17  C   UNL     1      -0.690  -4.733  -2.651  0.00  0.00    -0.019 C 
BRANCH  17  18
ATOM     18  C   UNL     1      -0.114  -4.038  -3.886  0.00  0.00    -0.002 C 
BRANCH  18  20
ATOM     19  C   UNL     1       1.414  -4.295  -5.845  0.00  0.00    +0.004 C 
ATOM     20  C   UNL     1       0.839  -4.991  -4.610  0.00  0.00    -0.003 C 
ENDBRANCH  18  20
ENDBRANCH  17  18
ENDBRANCH  16  17
ENDBRANCH  11  16
ENDBRANCH   1  11
BRANCH   1  21
ATOM     21  C   UNL     1      -2.172  -2.332   0.354  0.00  0.00    -0.098 C 
BRANCH  21  22
ATOM     22  N   UNL     1      -0.956  -2.806   1.028  0.00  0.00    +0.377 N 
ATOM     23  H   UNL     1      -1.211  -3.372   1.823  0.00  0.00    -0.090 HD
ATOM     24  H   UNL     1      -0.409  -3.357   0.384  0.00  0.00    -0.090 HD
ATOM     25  H   UNL     1      -0.413  -2.014   1.338  0.00  0.00    -0.090 HD
ENDBRANCH  21  22
ENDBRANCH   1  21
TORSDOF 10
