REMARK  Name = ZINC63161255
REMARK  8 active torsions:
REMARK  status: ('A' for Active; 'I' for Inactive)
REMARK    1  A    between atoms: C_1  and  C_2
REMARK    2  A    between atoms: N_6  and  C_8
REMARK    3  A    between atoms: C_8  and  C_9
REMARK    4  A    between atoms: C_8  and  C_10
REMARK    5  A    between atoms: C_8  and  C_11
REMARK    6  A    between atoms: C_11  and  N_12
REMARK    7  A    between atoms: N_15  and  C_16
REMARK    8  A    between atoms: C_18  and  C_24
REMARK                            x       y       z     vdW  Elec       q    Type
REMARK                         _______ _______ _______ _____ _____    ______ ____
ROOT
ATOM      1  N   UNL     1       2.034  -4.478   1.069  0.00  0.00    -0.300 N 
ATOM      2  C   UNL     1       2.174  -5.796   0.827  0.00  0.00    +0.304 C 
ATOM      3  O   UNL     1       1.649  -6.609   1.565  0.00  0.00    -0.253 OA
ATOM      4  N   UNL     1       2.894  -6.215  -0.232  0.00  0.00    -0.265 N 
ATOM      5  H   UNL     1       2.452  -3.830   0.480  0.00  0.00    +0.150 HD
ATOM      6  H   UNL     1       3.250  -5.569  -0.862  0.00  0.00    +0.157 HD
ENDROOT
BRANCH   4   7
ATOM      7  C   UNL     1       3.129  -7.583  -0.424  0.00  0.00    +0.100 A 
ATOM      8  C   UNL     1       2.725  -8.200  -1.576  0.00  0.00    +0.042 A 
ATOM      9  C   UNL     1       2.973  -9.570  -1.743  0.00  0.00    +0.073 A 
ATOM     10  C   UNL     1       3.604 -10.267  -0.770  0.00  0.00    +0.098 A 
ATOM     11  N   UNL     1       4.006  -9.656   0.376  0.00  0.00    -0.327 N 
ATOM     12  H   UNL     1       4.457 -10.172   1.062  0.00  0.00    +0.168 HD
ATOM     13  C   UNL     1       3.790  -8.341   0.567  0.00  0.00    +0.270 A 
ATOM     14  O   UNL     1       4.161  -7.804   1.599  0.00  0.00    -0.266 OA
BRANCH   9  15
ATOM     15  C   UNL     1       2.535 -10.267  -3.005  0.00  0.00    +0.419 C 
ATOM     16  F   UNL     1       2.890 -11.619  -2.939  0.00  0.00    -0.166 F 
ATOM     17  F   UNL     1       1.147 -10.155  -3.142  0.00  0.00    -0.166 F 
ATOM     18  F   UNL     1       3.162  -9.674  -4.106  0.00  0.00    -0.166 F 
ENDBRANCH   9  15
ENDBRANCH   4   7
BRANCH   1  19
ATOM     19  C   UNL     1       1.251  -4.023   2.221  0.00  0.00    +0.093 C 
BRANCH  19  20
ATOM     20  C   UNL     1       1.251  -2.494   2.266  0.00  0.00    -0.055 C 
ATOM     21  C   UNL     1       2.689  -1.987   2.395  0.00  0.00    -0.008 C 
ATOM     22  C   UNL     1       0.433  -2.019   3.469  0.00  0.00    -0.008 C 
BRANCH  20  28
ATOM     23  C   UNL     1       0.128   1.583  -0.201  0.00  0.00    +0.005 C 
ATOM     24  C   UNL     1       0.120   0.054  -0.247  0.00  0.00    -0.031 C 
ATOM     25  C   UNL     1      -1.314  -0.444  -0.450  0.00  0.00    -0.001 C 
ATOM     26  C   UNL     1      -1.322  -1.975  -0.417  0.00  0.00    -0.018 C 
ATOM     27  C   UNL     1      -0.724  -2.454   0.908  0.00  0.00    -0.078 C 
ATOM     28  N   UNL     1       0.655  -1.968   1.030  0.00  0.00    +0.384 N 
ATOM     29  C   UNL     1       0.664  -0.500   1.071  0.00  0.00    -0.075 C 
ATOM     30  H   UNL     1       1.194  -2.284   0.238  0.00  0.00    -0.081 HD
ENDBRANCH  20  28
ENDBRANCH  19  20
ENDBRANCH   1  19
TORSDOF 5
