REMARK  Name = ZINC39934949
REMARK  10 active torsions:
REMARK  status: ('A' for Active; 'I' for Inactive)
REMARK    1  A    between atoms: C_1  and  O_2
REMARK    2  A    between atoms: O_2  and  C_3
REMARK    3  A    between atoms: C_8  and  C_13
REMARK    4  A    between atoms: C_13  and  C_28
REMARK    5  A    between atoms: C_14  and  C_15
REMARK    6  A    between atoms: C_20  and  O_21
REMARK    7  A    between atoms: O_21  and  C_22
REMARK    8  A    between atoms: C_22  and  C_23
REMARK    9  A    between atoms: C_23  and  O_25
REMARK   10  A    between atoms: O_25  and  C_26
REMARK                            x       y       z     vdW  Elec       q    Type
REMARK                         _______ _______ _______ _____ _____    ______ ____
ROOT
ATOM      1  C   UNL     1       3.677  -4.581   3.633  0.00  0.00    +0.072 C 
ATOM      2  C   UNL     1       3.898  -5.781   4.211  0.00  0.00    +0.030 C 
ENDROOT
BRANCH   1   8
ATOM      3  C   UNL     1       0.994  -0.192   1.424  0.00  0.00    +0.122 A 
ATOM      4  C   UNL     1       1.490   0.471   2.623  0.00  0.00    +0.048 A 
ATOM      5  C   UNL     1       2.009  -0.220   3.655  0.00  0.00    +0.031 A 
ATOM      6  C   UNL     1       2.085  -1.687   3.587  0.00  0.00    +0.061 A 
ATOM      7  N   UNL     1       2.530  -2.580   4.423  0.00  0.00    -0.359 N 
ATOM      8  C   UNL     1       2.345  -3.897   3.803  0.00  0.00    +0.216 C 
ATOM      9  N   UNL     1       1.731  -3.656   2.491  0.00  0.00    -0.359 N 
ATOM     10  C   UNL     1       1.579  -2.365   2.363  0.00  0.00    +0.064 A 
ATOM     11  C   UNL     1       1.025  -1.540   1.288  0.00  0.00    +0.073 A 
ATOM     12  H   UNL     1       2.915  -2.407   5.296  0.00  0.00    +0.162 HD
ATOM     13  H   UNL     1       1.484  -4.330   1.839  0.00  0.00    +0.162 HD
BRANCH   3  15
ATOM     14  C   UNL     1       0.473   1.977   0.608  0.00  0.00    +0.277 C 
ATOM     15  O   UNL     1       0.483   0.561   0.418  0.00  0.00    -0.495 OA
ENDBRANCH   3  15
ENDBRANCH   1   8
BRANCH   2  16
ATOM     16  C   UNL     1       5.138  -6.517   3.925  0.00  0.00    +0.019 A 
ATOM     17  C   UNL     1       5.736  -6.426   2.664  0.00  0.00    +0.026 A 
ATOM     18  C   UNL     1       6.899  -7.119   2.403  0.00  0.00    +0.019 A 
ATOM     19  C   UNL     1       7.479  -7.906   3.386  0.00  0.00    +0.019 A 
ATOM     20  C   UNL     1       6.899  -8.004   4.636  0.00  0.00    +0.047 A 
ATOM     21  C   UNL     1       5.733  -7.310   4.918  0.00  0.00    +0.128 A 
ATOM     22 BR   UNL     1       7.706  -6.996   0.698  0.00  0.00    -0.050 Br
BRANCH  21  23
ATOM     23  O   UNL     1       5.166  -7.402   6.148  0.00  0.00    -0.480 OA
BRANCH  23  24
ATOM     24  C   UNL     1       5.828  -8.229   7.108  0.00  0.00    +0.349 C 
BRANCH  24  25
ATOM     25  C   UNL     1       5.059  -8.209   8.404  0.00  0.00    +0.345 C 
ATOM     26  O   UNL     1       4.048  -7.554   8.496  0.00  0.00    -0.247 OA
BRANCH  25  27
ATOM     27  O   UNL     1       5.497  -8.918   9.455  0.00  0.00    -0.466 OA
ATOM     28  C   UNL     1       4.719  -8.853  10.652  0.00  0.00    +0.280 C 
ENDBRANCH  25  27
ENDBRANCH  24  25
ENDBRANCH  23  24
ENDBRANCH  21  23
ENDBRANCH   2  16
BRANCH   1  29
ATOM     29  C   UNL     1       4.708  -3.958   2.859  0.00  0.00    +0.099 C 
ATOM     30  N   UNL     1       5.527  -3.464   2.245  0.00  0.00    -0.191 NA
ENDBRANCH   1  29
TORSDOF 8
