REMARK  Name = ZINC45510449
REMARK  8 active torsions:
REMARK  status: ('A' for Active; 'I' for Inactive)
REMARK    1  A    between atoms: C_1  and  C_2
REMARK    2  A    between atoms: C_3  and  N_9
REMARK    3  A    between atoms: C_10  and  C_12
REMARK    4  A    between atoms: C_12  and  C_14
REMARK    5  A    between atoms: C_12  and  N_15
REMARK    6  A    between atoms: N_18  and  S_21
REMARK    7  A    between atoms: S_21  and  C_24
REMARK    8  A    between atoms: C_28  and  C_30
REMARK                            x       y       z     vdW  Elec       q    Type
REMARK                         _______ _______ _______ _____ _____    ______ ____
ROOT
ATOM      1  N   UNL     1       0.176  -0.832  -6.003  0.00  0.00    +0.389 N 
ATOM      2  C   UNL     1       0.139  -0.082  -7.265  0.00  0.00    -0.060 C 
ATOM      3  C   UNL     1       0.007  -1.062  -8.436  0.00  0.00    +0.091 C 
ATOM      4  N   UNL     1       1.097  -2.046  -8.346  0.00  0.00    -0.180 NA
ATOM      5  C   UNL     1       1.311  -2.728  -7.060  0.00  0.00    +0.091 C 
ATOM      6  C   UNL     1       1.381  -1.670  -5.955  0.00  0.00    -0.060 C 
ATOM      7  H   UNL     1      -0.642  -1.418  -5.938  0.00  0.00    -0.081 HD
ENDROOT
BRANCH   4   8
ATOM      8  S   UNL     1       2.057  -2.376  -9.655  0.00  0.00    +0.061 S 
ATOM      9  O   UNL     1       2.588  -3.678  -9.451  0.00  0.00    -0.153 OA
ATOM     10  O   UNL     1       1.301  -2.034 -10.809  0.00  0.00    -0.153 OA
BRANCH   8  11
ATOM     11  C   UNL     1       3.420  -1.261  -9.597  0.00  0.00    +0.106 A 
ATOM     12  C   UNL     1       3.333  -0.030 -10.222  0.00  0.00    +0.028 A 
ATOM     13  C   UNL     1       4.402   0.844 -10.176  0.00  0.00    +0.002 A 
ATOM     14  C   UNL     1       5.558   0.489  -9.505  0.00  0.00    +0.012 A 
ATOM     15  C   UNL     1       5.644  -0.740  -8.879  0.00  0.00    +0.057 A 
ATOM     16  C   UNL     1       4.573  -1.613  -8.921  0.00  0.00    +0.041 A 
BRANCH  15  17
ATOM     17  C   UNL     1       6.903  -1.127  -8.148  0.00  0.00    +0.417 C 
ATOM     18  F   UNL     1       7.835  -0.087  -8.241  0.00  0.00    -0.166 F 
ATOM     19  F   UNL     1       6.606  -1.367  -6.802  0.00  0.00    -0.166 F 
ATOM     20  F   UNL     1       7.438  -2.286  -8.721  0.00  0.00    -0.166 F 
ENDBRANCH  15  17
ENDBRANCH   8  11
ENDBRANCH   4   8
BRANCH   1  21
ATOM     21  C   UNL     1       0.192   0.111  -4.876  0.00  0.00    +0.017 C 
ATOM     22  C   UNL     1      -1.026   1.032  -4.965  0.00  0.00    -0.004 C 
BRANCH  21  24
ATOM     23  N   UNL     1       0.695  -0.128  -2.466  0.00  0.00    -0.287 N 
ATOM     24  C   UNL     1       0.148  -0.656  -3.580  0.00  0.00    +0.203 C 
ATOM     25  O   UNL     1      -0.378  -1.748  -3.538  0.00  0.00    -0.277 OA
ATOM     26  H   UNL     1       1.051   0.774  -2.482  0.00  0.00    +0.155 HD
BRANCH  23  29
ATOM     27  C   UNL     1       1.021   1.255  -0.001  0.00  0.00    +0.047 C 
ATOM     28  C   UNL     1       0.906  -0.246  -0.063  0.00  0.00    -0.011 A 
ATOM     29  C   UNL     1       0.748  -0.881  -1.288  0.00  0.00    +0.038 A 
ATOM     30  C   UNL     1       0.642  -2.265  -1.342  0.00  0.00    +0.023 A 
ATOM     31  C   UNL     1       0.694  -3.006  -0.177  0.00  0.00    +0.003 A 
ATOM     32  C   UNL     1       0.851  -2.373   1.041  0.00  0.00    +0.020 A 
ATOM     33  C   UNL     1       0.963  -0.994   1.098  0.00  0.00    +0.046 A 
ATOM     34 CL   UNL     1       1.169  -0.203   2.630  0.00  0.00    -0.083 Cl
ENDBRANCH  23  29
ENDBRANCH  21  24
ENDBRANCH   1  21
TORSDOF 6
