REMARK  Name = ZINC63623148
REMARK  10 active torsions:
REMARK  status: ('A' for Active; 'I' for Inactive)
REMARK    1  A    between atoms: C_1  and  C_2
REMARK    2  A    between atoms: C_5  and  C_18
REMARK    3  A    between atoms: C_7  and  C_17
REMARK    4  A    between atoms: N_9  and  C_10
REMARK    5  A    between atoms: C_13  and  O_16
REMARK    6  A    between atoms: C_19  and  C_20
REMARK    7  A    between atoms: C_19  and  C_22
REMARK    8  A    between atoms: N_24  and  C_25
REMARK    9  A    between atoms: C_25  and  C_26
REMARK   10  A    between atoms: C_26  and  C_27
REMARK                            x       y       z     vdW  Elec       q    Type
REMARK                         _______ _______ _______ _____ _____    ______ ____
ROOT
ATOM      1  C   UNL     1       2.338  -2.396  -1.650  0.00  0.00    +0.002 C 
ATOM      2  C   UNL     1       2.266  -3.536  -2.363  0.00  0.00    +0.110 C 
ENDROOT
BRANCH   1   6
ATOM      3  C   UNL     1       0.015   1.536   0.003  0.00  0.00    +0.028 C 
ATOM      4  C   UNL     1       0.015   0.006  -0.003  0.00  0.00    +0.071 C 
ATOM      5  C   UNL     1       0.691  -0.527  -1.291  0.00  0.00    +0.031 C 
ATOM      6  C   UNL     1       1.153  -1.938  -0.839  0.00  0.00    +0.035 C 
ATOM      7  C   UNL     1       1.549  -1.716   0.636  0.00  0.00    +0.078 C 
ATOM      8  N   UNL     1       0.842  -0.512   1.102  0.00  0.00    -0.324 N 
ATOM      9  C   UNL     1       1.129  -2.925   1.475  0.00  0.00    +0.028 C 
BRANCH   8  10
ATOM     10  C   UNL     1       0.940   0.050   2.380  0.00  0.00    +0.030 A 
ATOM     11  C   UNL     1       2.142   0.600   2.806  0.00  0.00    +0.027 A 
ATOM     12  C   UNL     1       2.237   1.155   4.067  0.00  0.00    +0.047 A 
ATOM     13  C   UNL     1       1.134   1.163   4.908  0.00  0.00    +0.117 A 
ATOM     14  C   UNL     1      -0.066   0.613   4.482  0.00  0.00    +0.047 A 
ATOM     15  C   UNL     1      -0.165   0.063   3.220  0.00  0.00    +0.027 A 
BRANCH  13  16
ATOM     16  O   UNL     1       1.229   1.709   6.149  0.00  0.00    -0.507 OA
ATOM     17  H   UNL     1       1.013   2.651   6.182  0.00  0.00    +0.292 HD
ENDBRANCH  13  16
ENDBRANCH   8  10
ENDBRANCH   1   6
BRANCH   2  18
ATOM     18  C   UNL     1       3.428  -3.985  -3.157  0.00  0.00    +0.254 C 
ATOM     19  O   UNL     1       4.449  -3.326  -3.168  0.00  0.00    -0.269 OA
ATOM     20  N   UNL     1       3.356  -5.126  -3.871  0.00  0.00    -0.310 N 
ATOM     21  H   UNL     1       2.541  -5.653  -3.863  0.00  0.00    +0.149 HD
BRANCH  20  22
ATOM     22  C   UNL     1       4.508  -5.572  -4.659  0.00  0.00    +0.109 C 
BRANCH  22  23
ATOM     23  C   UNL     1       4.165  -6.884  -5.367  0.00  0.00    +0.052 C 
BRANCH  23  24
ATOM     24  C   UNL     1       5.349  -7.342  -6.178  0.00  0.00    -0.040 C 
ATOM     25  C   UNL     1       6.303  -8.222  -5.797  0.00  0.00    -0.001 A 
ATOM     26  C   UNL     1       6.516  -8.987  -4.562  0.00  0.00    +0.010 A 
ATOM     27  C   UNL     1       7.588  -9.807  -4.475  0.00  0.00    +0.001 A 
ATOM     28  C   UNL     1       8.499  -9.945  -5.531  0.00  0.00    +0.002 A 
ATOM     29  C   UNL     1       8.370  -9.276  -6.696  0.00  0.00    +0.026 A 
ATOM     30  C   UNL     1       7.280  -8.386  -6.898  0.00  0.00    +0.043 A 
ATOM     31  N   UNL     1       6.942  -7.636  -7.919  0.00  0.00    -0.380 N 
ATOM     32  C   UNL     1       5.709  -6.916  -7.583  0.00  0.00    +0.144 C 
ATOM     33  H   UNL     1       7.425  -7.571  -8.758  0.00  0.00    +0.160 HD
ENDBRANCH  23  24
ENDBRANCH  22  23
ENDBRANCH  20  22
ENDBRANCH   2  18
BRANCH   2  34
ATOM     34  C   UNL     1       1.063  -4.313  -2.351  0.00  0.00    +0.104 C 
ATOM     35  N   UNL     1       0.109  -4.930  -2.341  0.00  0.00    -0.191 NA
ENDBRANCH   2  34
TORSDOF 8
