REMARK  Name = ZINC32087920
REMARK  7 active torsions:
REMARK  status: ('A' for Active; 'I' for Inactive)
REMARK    1  A    between atoms: C_1  and  C_2
REMARK    2  A    between atoms: C_5  and  C_22
REMARK    3  A    between atoms: N_8  and  C_10
REMARK    4  A    between atoms: C_10  and  C_12
REMARK    5  A    between atoms: C_10  and  C_14
REMARK    6  A    between atoms: C_12  and  N_13
REMARK    7  A    between atoms: C_19  and  O_20
REMARK                            x       y       z     vdW  Elec       q    Type
REMARK                         _______ _______ _______ _____ _____    ______ ____
ROOT
ATOM      1  C   UNL     1       1.559  -2.503   2.349  0.00  0.00    +0.073 C 
ENDROOT
BRANCH   1   7
ATOM      2  C   UNL     1       0.256   1.651   0.060  0.00  0.00    +0.009 C 
ATOM      3  C   UNL     1       0.198   0.122   0.019  0.00  0.00    +0.000 C 
ATOM      4  C   UNL     1      -1.264  -0.332  -0.017  0.00  0.00    +0.009 C 
ATOM      5  C   UNL     1      -1.315  -1.863   0.002  0.00  0.00    +0.000 C 
ATOM      6  C   UNL     1      -0.594  -2.377   1.250  0.00  0.00    +0.088 C 
ATOM      7  N   UNL     1       0.800  -1.915   1.237  0.00  0.00    -0.297 NA
ATOM      8  C   UNL     1       0.875  -0.449   1.266  0.00  0.00    +0.088 C 
ATOM      9  C   UNL     1      -2.773  -2.325   0.025  0.00  0.00    +0.009 C 
ENDBRANCH   1   7
BRANCH   1  10
ATOM     10  C   UNL     1       1.089  -1.905   3.650  0.00  0.00    +0.010 A 
ATOM     11  C   UNL     1       1.775  -0.846   4.212  0.00  0.00    +0.024 A 
ATOM     12  C   UNL     1       1.345  -0.297   5.406  0.00  0.00    +0.018 A 
ATOM     13  C   UNL     1       0.226  -0.807   6.040  0.00  0.00    +0.019 A 
ATOM     14  C   UNL     1      -0.463  -1.866   5.482  0.00  0.00    +0.047 A 
ATOM     15  C   UNL     1      -0.036  -2.415   4.282  0.00  0.00    +0.122 A 
ATOM     16 BR   UNL     1       2.286   1.153   6.173  0.00  0.00    -0.050 Br
BRANCH  15  17
ATOM     17  O   UNL     1      -0.715  -3.454   3.728  0.00  0.00    -0.506 OA
ATOM     18  H   UNL     1      -0.404  -4.324   4.013  0.00  0.00    +0.292 HD
ENDBRANCH  15  17
ENDBRANCH   1  10
BRANCH   1  19
ATOM     19  C   UNL     1       3.049  -2.209   2.161  0.00  0.00    -0.062 C 
BRANCH  19  20
ATOM     20  N   UNL     1       3.479  -2.687   0.840  0.00  0.00    +0.379 N 
ATOM     21  H   UNL     1       3.322  -3.681   0.774  0.00  0.00    -0.090 HD
ATOM     22  H   UNL     1       2.950  -2.214   0.123  0.00  0.00    -0.090 HD
ATOM     23  H   UNL     1       4.462  -2.493   0.716  0.00  0.00    -0.090 HD
ENDBRANCH  19  20
ENDBRANCH   1  19
TORSDOF 5
