REMARK  Name = ZINC64625873
REMARK  7 active torsions:
REMARK  status: ('A' for Active; 'I' for Inactive)
REMARK    1  A    between atoms: C_1  and  C_2
REMARK    2  A    between atoms: C_2  and  C_3
REMARK    3  A    between atoms: C_2  and  N_19
REMARK    4  A    between atoms: C_3  and  N_4
REMARK    5  A    between atoms: N_7  and  C_8
REMARK    6  A    between atoms: C_8  and  C_9
REMARK    7  A    between atoms: N_11  and  C_12
REMARK                            x       y       z     vdW  Elec       q    Type
REMARK                         _______ _______ _______ _____ _____    ______ ____
ROOT
ATOM      1  N   UNL     1      -1.694  -1.711   0.013  0.00  0.00    -0.301 N 
ATOM      2  C   UNL     1      -2.941  -2.211   0.114  0.00  0.00    +0.300 C 
ATOM      3  O   UNL     1      -3.886  -1.461   0.268  0.00  0.00    -0.253 OA
ATOM      4  N   UNL     1      -3.141  -3.542   0.045  0.00  0.00    -0.291 N 
ATOM      5  H   UNL     1      -0.940  -2.309  -0.110  0.00  0.00    +0.150 HD
ATOM      6  H   UNL     1      -2.388  -4.140  -0.078  0.00  0.00    +0.151 HD
ENDROOT
BRANCH   1   7
ATOM      7  C   UNL     1      -1.476  -0.264   0.088  0.00  0.00    +0.090 C 
BRANCH   7   9
ATOM      8  C   UNL     1       0.252   1.540   0.102  0.00  0.00    -0.012 C 
ATOM      9  C   UNL     1       0.026   0.028   0.068  0.00  0.00    -0.054 C 
BRANCH   9  10
ATOM     10  N   UNL     1       0.617  -0.529  -1.156  0.00  0.00    +0.385 N 
ATOM     11  C   UNL     1       2.058  -0.234  -1.185  0.00  0.00    -0.073 C 
ATOM     12  C   UNL     1       2.705  -1.071  -2.289  0.00  0.00    +0.017 C 
ATOM     13  C   UNL     1       1.943  -0.892  -3.577  0.00  0.00    -0.048 A 
ATOM     14  C   UNL     1       2.546  -1.276  -4.765  0.00  0.00    +0.004 A 
ATOM     15  C   UNL     1       1.878  -1.130  -5.964  0.00  0.00    +0.000 A 
ATOM     16  C   UNL     1       0.601  -0.599  -5.980  0.00  0.00    +0.000 A 
ATOM     17  C   UNL     1       0.001  -0.215  -4.798  0.00  0.00    +0.002 A 
ATOM     18  C   UNL     1       0.671  -0.360  -3.592  0.00  0.00    -0.061 A 
ATOM     19  C   UNL     1      -0.018   0.080  -2.328  0.00  0.00    -0.042 C 
ATOM     20  H   UNL     1       0.475  -1.528  -1.175  0.00  0.00    -0.081 HD
ENDBRANCH   9  10
ENDBRANCH   7   9
ENDBRANCH   1   7
BRANCH   4  21
ATOM     21  C   UNL     1      -4.497  -4.085   0.155  0.00  0.00    +0.202 C 
BRANCH  21  22
ATOM     22  C   UNL     1      -4.447  -5.588   0.047  0.00  0.00    +0.234 C 
ATOM     23  O   UNL     1      -3.382  -6.149  -0.107  0.00  0.00    -0.274 OA
ATOM     24  N   UNL     1      -5.584  -6.307   0.121  0.00  0.00    -0.284 N 
ATOM     25  H   UNL     1      -6.441  -5.856   0.169  0.00  0.00    +0.155 HD
BRANCH  24  26
ATOM     26  C   UNL     1      -5.527  -7.707   0.129  0.00  0.00    +0.034 A 
ATOM     27  C   UNL     1      -6.527  -8.446  -0.489  0.00  0.00    +0.026 A 
ATOM     28  C   UNL     1      -6.470  -9.826  -0.480  0.00  0.00    +0.040 A 
ATOM     29  C   UNL     1      -5.417 -10.472   0.146  0.00  0.00    +0.124 A 
ATOM     30  C   UNL     1      -4.419  -9.736   0.763  0.00  0.00    +0.040 A 
ATOM     31  C   UNL     1      -4.469  -8.356   0.750  0.00  0.00    +0.026 A 
ATOM     32  F   UNL     1      -5.363 -11.822   0.154  0.00  0.00    -0.205 F 
ENDBRANCH  24  26
ENDBRANCH  21  22
ENDBRANCH   4  21
TORSDOF 6
