REMARK  Name = ZINC63349547
REMARK  10 active torsions:
REMARK  status: ('A' for Active; 'I' for Inactive)
REMARK    1  A    between atoms: C_1  and  O_2
REMARK    2  A    between atoms: O_2  and  C_3
REMARK    3  A    between atoms: C_6  and  C_11
REMARK    4  A    between atoms: C_8  and  O_9
REMARK    5  A    between atoms: O_9  and  C_10
REMARK    6  A    between atoms: C_12  and  C_28
REMARK    7  A    between atoms: C_13  and  C_22
REMARK    8  A    between atoms: N_29  and  C_30
REMARK    9  A    between atoms: C_30  and  C_31
REMARK   10  A    between atoms: C_31  and  C_32
REMARK                            x       y       z     vdW  Elec       q    Type
REMARK                         _______ _______ _______ _____ _____    ______ ____
ROOT
ATOM      1  C   UNL     1       2.497  -2.620  -4.729  0.00  0.00    +0.141 C 
ATOM      2  C   UNL     1       2.853  -1.778  -5.728  0.00  0.00    +0.023 C 
ATOM      3  C   UNL     1       3.407  -2.296  -7.026  0.00  0.00    +0.087 C 
ATOM      4  C   UNL     1       3.866  -3.720  -6.865  0.00  0.00    +0.007 A 
ATOM      5  C   UNL     1       4.713  -4.274  -7.809  0.00  0.00    +0.008 A 
ATOM      6  C   UNL     1       5.143  -5.580  -7.675  0.00  0.00    +0.001 A 
ATOM      7  C   UNL     1       4.728  -6.339  -6.596  0.00  0.00    +0.004 A 
ATOM      8  C   UNL     1       3.884  -5.792  -5.651  0.00  0.00    +0.046 A 
ATOM      9  C   UNL     1       3.449  -4.478  -5.783  0.00  0.00    +0.133 A 
ATOM     10  O   UNL     1       2.625  -3.955  -4.844  0.00  0.00    -0.455 OA
ENDROOT
BRANCH   1  14
ATOM     11  C   UNL     1       0.949  -0.994  -1.122  0.00  0.00    +0.162 A 
ATOM     12  C   UNL     1       2.171  -0.555  -1.613  0.00  0.00    +0.050 A 
ATOM     13  C   UNL     1       2.677  -1.080  -2.783  0.00  0.00    +0.015 A 
ATOM     14  C   UNL     1       1.958  -2.057  -3.478  0.00  0.00    +0.021 A 
ATOM     15  C   UNL     1       0.728  -2.500  -2.983  0.00  0.00    +0.061 A 
ATOM     16  C   UNL     1       0.230  -1.972  -1.807  0.00  0.00    +0.162 A 
BRANCH  11  18
ATOM     17  C   UNL     1       1.244   0.526   0.682  0.00  0.00    +0.277 C 
ATOM     18  O   UNL     1       0.456  -0.473   0.031  0.00  0.00    -0.491 OA
ENDBRANCH  11  18
BRANCH  16  19
ATOM     19  O   UNL     1      -0.964  -2.404  -1.320  0.00  0.00    -0.491 OA
ATOM     20  C   UNL     1      -1.647  -3.409  -2.073  0.00  0.00    +0.277 C 
ENDBRANCH  16  19
ENDBRANCH   1  14
BRANCH   3  21
ATOM     21  C   UNL     1       2.336  -2.237  -8.084  0.00  0.00    -0.035 A 
ATOM     22  C   UNL     1       1.156  -2.937  -7.914  0.00  0.00    +0.004 A 
ATOM     23  C   UNL     1       0.174  -2.883  -8.885  0.00  0.00    +0.000 A 
ATOM     24  C   UNL     1       0.370  -2.128 -10.026  0.00  0.00    +0.000 A 
ATOM     25  C   UNL     1       1.550  -1.427 -10.196  0.00  0.00    +0.000 A 
ATOM     26  C   UNL     1       2.530  -1.478  -9.223  0.00  0.00    +0.004 A 
ENDBRANCH   3  21
BRANCH   2  27
ATOM     27  C   UNL     1       2.702  -0.388  -5.547  0.00  0.00    +0.086 C 
ATOM     28  N   UNL     1       3.138   0.439  -6.454  0.00  0.00    -0.390 N 
ATOM     29  H   UNL     1       3.501   0.097  -7.287  0.00  0.00    +0.159 HD
BRANCH  28  30
ATOM     30  C   UNL     1       3.079   1.883  -6.218  0.00  0.00    +0.116 C 
BRANCH  30  31
ATOM     31  C   UNL     1       4.499   2.453  -6.190  0.00  0.00    +0.054 C 
BRANCH  31  32
ATOM     32  C   UNL     1       4.439   3.940  -5.956  0.00  0.00    -0.040 C 
ATOM     33  C   UNL     1       4.552   4.582  -4.770  0.00  0.00    -0.001 A 
ATOM     34  C   UNL     1       4.754   4.105  -3.397  0.00  0.00    +0.010 A 
ATOM     35  C   UNL     1       4.827   5.009  -2.393  0.00  0.00    +0.001 A 
ATOM     36  C   UNL     1       4.714   6.386  -2.631  0.00  0.00    +0.002 A 
ATOM     37  C   UNL     1       4.526   6.899  -3.865  0.00  0.00    +0.026 A 
ATOM     38  C   UNL     1       4.435   6.040  -4.995  0.00  0.00    +0.043 A 
ATOM     39  N   UNL     1       4.258   6.291  -6.269  0.00  0.00    -0.380 N 
ATOM     40  C   UNL     1       4.248   5.018  -6.999  0.00  0.00    +0.144 C 
ATOM     41  H   UNL     1       4.155   7.171  -6.665  0.00  0.00    +0.160 HD
ENDBRANCH  31  32
ENDBRANCH  30  31
ENDBRANCH  28  30
ENDBRANCH   2  27
TORSDOF 8
