REMARK  Name = ZINC02689396
REMARK  10 active torsions:
REMARK  status: ('A' for Active; 'I' for Inactive)
REMARK    1  A    between atoms: C_1  and  C_2
REMARK    2  A    between atoms: C_5  and  S_8
REMARK    3  A    between atoms: S_8  and  N_11
REMARK    4  A    between atoms: N_11  and  N_12
REMARK    5  A    between atoms: C_14  and  C_25
REMARK    6  A    between atoms: C_20  and  O_23
REMARK    7  A    between atoms: O_23  and  C_24
REMARK    8  A    between atoms: N_27  and  C_28
REMARK    9  A    between atoms: C_31  and  O_34
REMARK   10  A    between atoms: O_34  and  C_35
REMARK                            x       y       z     vdW  Elec       q    Type
REMARK                         _______ _______ _______ _____ _____    ______ ____
ROOT
ATOM      1  N   UNL     1       2.972  -5.274   1.248  0.00  0.00    -0.260 N 
ATOM      2  C   UNL     1       4.237  -5.479   1.013  0.00  0.00    +0.225 A 
ATOM      3  C   UNL     1       4.695  -6.021  -0.288  0.00  0.00    +0.099 A 
ATOM      4  C   UNL     1       5.971  -5.704  -0.686  0.00  0.00    +0.030 A 
ATOM      5  C   UNL     1       6.773  -4.857   0.206  0.00  0.00    +0.022 A 
ATOM      6  C   UNL     1       7.964  -4.275  -0.241  0.00  0.00    +0.012 A 
ATOM      7  C   UNL     1       8.699  -3.481   0.612  0.00  0.00    +0.004 A 
ATOM      8  C   UNL     1       8.267  -3.256   1.909  0.00  0.00    +0.049 A 
ATOM      9  C   UNL     1       7.090  -3.827   2.367  0.00  0.00    +0.163 A 
ATOM     10  C   UNL     1       6.335  -4.631   1.522  0.00  0.00    +0.179 A 
ATOM     11  O   UNL     1       5.183  -5.197   1.955  0.00  0.00    -0.434 OA
ATOM     12  H   UNL     1       2.672  -5.076   2.148  0.00  0.00    +0.189 HD
ENDROOT
BRANCH   3  13
ATOM     13  C   UNL     1       3.819  -6.864  -1.119  0.00  0.00    +0.253 C 
ATOM     14  O   UNL     1       3.645  -8.032  -0.827  0.00  0.00    -0.270 OA
ATOM     15  N   UNL     1       3.211  -6.341  -2.201  0.00  0.00    -0.281 N 
ATOM     16  H   UNL     1       3.288  -5.393  -2.391  0.00  0.00    +0.155 HD
BRANCH  15  17
ATOM     17  C   UNL     1       2.466  -7.167  -3.053  0.00  0.00    +0.034 A 
ATOM     18  C   UNL     1       1.834  -8.296  -2.548  0.00  0.00    +0.027 A 
ATOM     19  C   UNL     1       1.100  -9.109  -3.388  0.00  0.00    +0.047 A 
ATOM     20  C   UNL     1       0.994  -8.799  -4.736  0.00  0.00    +0.120 A 
ATOM     21  C   UNL     1       1.625  -7.672  -5.241  0.00  0.00    +0.047 A 
ATOM     22  C   UNL     1       2.355  -6.855  -4.401  0.00  0.00    +0.027 A 
BRANCH  20  23
ATOM     23  O   UNL     1       0.270  -9.601  -5.562  0.00  0.00    -0.495 OA
ATOM     24  C   UNL     1       0.203  -9.222  -6.939  0.00  0.00    +0.277 C 
ENDBRANCH  20  23
ENDBRANCH  15  17
ENDBRANCH   3  13
BRANCH   1  25
ATOM     25  N   UNL     1       2.046  -5.338   0.199  0.00  0.00    -0.157 N 
ATOM     26  H   UNL     1       2.353  -5.330  -0.721  0.00  0.00    +0.194 HD
BRANCH  25  27
ATOM     27  S   UNL     1       0.425  -5.427   0.529  0.00  0.00    +0.085 S 
ATOM     28  O   UNL     1       0.251  -6.529   1.409  0.00  0.00    -0.149 OA
ATOM     29  O   UNL     1      -0.249  -5.333  -0.718  0.00  0.00    -0.149 OA
BRANCH  27  34
ATOM     30  C   UNL     1      -1.036  -0.479   3.658  0.00  0.00    +0.044 C 
ATOM     31  C   UNL     1      -0.671  -1.715   2.876  0.00  0.00    -0.050 A 
ATOM     32  C   UNL     1      -0.743  -1.706   1.496  0.00  0.00    +0.005 A 
ATOM     33  C   UNL     1      -0.408  -2.840   0.779  0.00  0.00    +0.029 A 
ATOM     34  C   UNL     1      -0.000  -3.982   1.443  0.00  0.00    +0.110 A 
ATOM     35  C   UNL     1       0.073  -3.990   2.823  0.00  0.00    +0.029 A 
ATOM     36  C   UNL     1      -0.258  -2.855   3.540  0.00  0.00    +0.005 A 
ENDBRANCH  27  34
ENDBRANCH  25  27
ENDBRANCH   1  25
BRANCH   9  37
ATOM     37  O   UNL     1       6.674  -3.600   3.642  0.00  0.00    -0.491 OA
ATOM     38  C   UNL     1       7.500  -2.764   4.455  0.00  0.00    +0.277 C 
ENDBRANCH   9  37
TORSDOF 7
