REMARK  Name = ZINC39631589
REMARK  12 active torsions:
REMARK  status: ('A' for Active; 'I' for Inactive)
REMARK    1  A    between atoms: C_1  and  C_2
REMARK    2  A    between atoms: C_2  and  C_4
REMARK    3  A    between atoms: C_2  and  N_11
REMARK    4  A    between atoms: C_4  and  C_5
REMARK    5  A    between atoms: C_5  and  C_6
REMARK    6  A    between atoms: C_6  and  C_7
REMARK    7  A    between atoms: C_7  and  C_8
REMARK    8  A    between atoms: C_7  and  C_9
REMARK    9  A    between atoms: C_7  and  O_10
REMARK   10  A    between atoms: C_12  and  C_14
REMARK   11  A    between atoms: C_25  and  C_27
REMARK   12  A    between atoms: C_27  and  C_33
REMARK                            x       y       z     vdW  Elec       q    Type
REMARK                         _______ _______ _______ _____ _____    ______ ____
ROOT
ATOM      1  C   UNL     1      -3.923  -1.399   0.899  0.00  0.00    +0.100 C 
ATOM      2  C   UNL     1      -3.663  -2.800   0.302  0.00  0.00    +0.121 C 
ATOM      3  N   UNL     1      -3.569  -3.697   1.478  0.00  0.00    -0.300 N 
ATOM      4  C   UNL     1      -4.617  -3.202   2.403  0.00  0.00    +0.115 C 
ATOM      5  C   UNL     1      -4.552  -1.667   2.276  0.00  0.00    -0.004 C 
ATOM      6  C   UNL     1      -5.956  -1.072   2.341  0.00  0.00    -0.010 C 
ATOM      7  C   UNL     1      -6.539  -1.300   3.738  0.00  0.00    -0.082 C 
ATOM      8  N   UNL     1      -5.672  -0.669   4.741  0.00  0.00    +0.379 N 
ATOM      9  C   UNL     1      -4.352  -1.311   4.736  0.00  0.00    -0.082 C 
ATOM     10  C   UNL     1      -3.676  -1.083   3.381  0.00  0.00    -0.010 C 
ATOM     11  C   UNL     1      -2.723  -4.729   1.665  0.00  0.00    +0.222 C 
ATOM     12  O   UNL     1      -1.863  -4.964   0.843  0.00  0.00    -0.275 OA
ATOM     13  H   UNL     1      -5.569   0.311   4.526  0.00  0.00    -0.086 HD
ATOM     14  H   UNL     1      -6.089  -0.768   5.654  0.00  0.00    -0.086 HD
ENDROOT
BRANCH  11  15
ATOM     15  C   UNL     1      -2.846  -5.591   2.895  0.00  0.00    +0.044 C 
ATOM     16  C   UNL     1      -2.493  -4.765   4.134  0.00  0.00    +0.016 C 
ATOM     17  C   UNL     1      -1.056  -4.252   4.012  0.00  0.00    +0.001 C 
ATOM     18  C   UNL     1      -0.098  -5.439   3.900  0.00  0.00    +0.000 C 
ATOM     19  C   UNL     1      -0.452  -6.265   2.662  0.00  0.00    +0.001 C 
ATOM     20  C   UNL     1      -1.888  -6.778   2.784  0.00  0.00    +0.016 C 
ATOM     21  C   UNL     1      -4.282  -6.104   3.017  0.00  0.00    +0.021 C 
ENDBRANCH  11  15
BRANCH   1  23
ATOM     22  N   UNL     1      -2.616   0.700   0.973  0.00  0.00    -0.312 N 
ATOM     23  C   UNL     1      -2.627  -0.645   1.053  0.00  0.00    +0.218 C 
ATOM     24  O   UNL     1      -1.593  -1.249   1.248  0.00  0.00    -0.275 OA
ATOM     25  H   UNL     1      -3.442   1.183   0.817  0.00  0.00    +0.149 HD
BRANCH  22  27
ATOM     26  C   UNL     1      -1.074   1.665   2.608  0.00  0.00    +0.028 C 
ATOM     27  C   UNL     1      -1.356   1.433   1.122  0.00  0.00    +0.070 C 
BRANCH  27  28
ATOM     28  C   UNL     1      -1.462   2.781   0.407  0.00  0.00    +0.022 C 
BRANCH  28  29
ATOM     29  C   UNL     1      -1.620   2.549  -1.097  0.00  0.00    +0.005 C 
BRANCH  29  30
ATOM     30  C   UNL     1      -1.726   3.897  -1.813  0.00  0.00    +0.034 C 
BRANCH  30  31
ATOM     31  C   UNL     1      -1.884   3.665  -3.317  0.00  0.00    +0.061 C 
ATOM     32  C   UNL     1      -1.865   5.011  -4.045  0.00  0.00    +0.041 C 
ATOM     33  C   UNL     1      -0.731   2.796  -3.822  0.00  0.00    +0.041 C 
BRANCH  31  34
ATOM     34  O   UNL     1      -3.126   3.005  -3.569  0.00  0.00    -0.389 OA
ATOM     35  H   UNL     1      -3.902   3.500  -3.274  0.00  0.00    +0.210 HD
ENDBRANCH  31  34
ENDBRANCH  30  31
ENDBRANCH  29  30
ENDBRANCH  28  29
ENDBRANCH  27  28
ENDBRANCH  22  27
ENDBRANCH   1  23
TORSDOF 8
