REMARK  Name = ZINC54580830
REMARK  11 active torsions:
REMARK  status: ('A' for Active; 'I' for Inactive)
REMARK    1  A    between atoms: C_1  and  C_2
REMARK    2  A    between atoms: C_2  and  C_3
REMARK    3  A    between atoms: C_2  and  N_14
REMARK    4  A    between atoms: C_6  and  S_9
REMARK    5  A    between atoms: S_9  and  N_12
REMARK    6  A    between atoms: N_12  and  C_13
REMARK    7  A    between atoms: N_17  and  C_18
REMARK    8  A    between atoms: C_18  and  C_19
REMARK    9  A    between atoms: C_19  and  C_20
REMARK   10  A    between atoms: C_19  and  C_21
REMARK   11  A    between atoms: C_19  and  N_22
REMARK                            x       y       z     vdW  Elec       q    Type
REMARK                         _______ _______ _______ _____ _____    ______ ____
ROOT
ATOM      1  N   UNL     1       0.834  -0.926  -1.117  0.00  0.00    -0.293 N 
ATOM      2  C   UNL     1       0.127  -0.903  -2.264  0.00  0.00    +0.300 C 
ATOM      3  O   UNL     1      -1.038  -0.554  -2.252  0.00  0.00    -0.253 OA
ATOM      4  N   UNL     1       0.710  -1.267  -3.423  0.00  0.00    -0.301 N 
ATOM      5  H   UNL     1       1.763  -1.205  -1.126  0.00  0.00    +0.151 HD
ATOM      6  H   UNL     1       1.639  -1.546  -3.432  0.00  0.00    +0.150 HD
ENDROOT
BRANCH   1   8
ATOM      7  C   UNL     1       0.278   0.989   0.298  0.00  0.00    +0.033 C 
ATOM      8  C   UNL     1       0.200  -0.531   0.143  0.00  0.00    +0.102 C 
BRANCH   8   9
ATOM      9  C   UNL     1       0.916  -1.190   1.294  0.00  0.00    -0.027 A 
ATOM     10  C   UNL     1       2.295  -1.289   1.286  0.00  0.00    +0.007 A 
ATOM     11  C   UNL     1       2.951  -1.894   2.341  0.00  0.00    +0.029 A 
ATOM     12  C   UNL     1       2.228  -2.399   3.406  0.00  0.00    +0.105 A 
ATOM     13  C   UNL     1       0.850  -2.300   3.415  0.00  0.00    +0.029 A 
ATOM     14  C   UNL     1       0.194  -1.691   2.361  0.00  0.00    +0.007 A 
BRANCH  12  15
ATOM     15  S   UNL     1       3.065  -3.171   4.751  0.00  0.00    +0.058 S 
ATOM     16  O   UNL     1       2.128  -4.046   5.364  0.00  0.00    -0.153 OA
ATOM     17  O   UNL     1       4.314  -3.624   4.246  0.00  0.00    -0.153 OA
BRANCH  15  18
ATOM     18  N   UNL     1       3.404  -1.989   5.860  0.00  0.00    -0.193 NA
ATOM     19  C   UNL     1       2.312  -1.296   6.549  0.00  0.00    +0.127 C 
ATOM     20  H   UNL     1       4.325  -1.755   6.053  0.00  0.00    +0.148 HD
ENDBRANCH  15  18
ENDBRANCH  12  15
ENDBRANCH   8   9
ENDBRANCH   1   8
BRANCH   4  21
ATOM     21  C   UNL     1      -0.059  -1.242  -4.669  0.00  0.00    +0.093 C 
BRANCH  21  22
ATOM     22  C   UNL     1       0.863  -1.571  -5.845  0.00  0.00    -0.055 C 
ATOM     23  C   UNL     1       1.360  -3.012  -5.715  0.00  0.00    -0.008 C 
ATOM     24  C   UNL     1       0.093  -1.414  -7.157  0.00  0.00    -0.008 C 
BRANCH  22  25
ATOM     25  N   UNL     1       2.011  -0.655  -5.838  0.00  0.00    +0.384 N 
ATOM     26  C   UNL     1       1.531   0.730  -5.918  0.00  0.00    -0.078 C 
ATOM     27  C   UNL     1       2.718   1.692  -5.830  0.00  0.00    -0.019 C 
ATOM     28  C   UNL     1       3.679   1.415  -6.989  0.00  0.00    -0.004 C 
ATOM     29  C   UNL     1       4.116  -0.052  -6.938  0.00  0.00    -0.019 C 
ATOM     30  C   UNL     1       2.877  -0.949  -6.986  0.00  0.00    -0.078 C 
ATOM     31  H   UNL     1       2.533  -0.778  -4.983  0.00  0.00    -0.081 HD
ENDBRANCH  22  25
ENDBRANCH  21  22
ENDBRANCH   4  21
TORSDOF 7
