REMARK  Name = ZINC14356912
REMARK  11 active torsions:
REMARK  status: ('A' for Active; 'I' for Inactive)
REMARK    1  A    between atoms: C_1  and  C_2
REMARK    2  A    between atoms: C_2  and  N_71
REMARK    3  A    between atoms: C_6  and  C_8
REMARK    4  A    between atoms: C_8  and  N_9
REMARK    5  A    between atoms: C_13  and  C_14
REMARK    6  A    between atoms: C_17  and  O_20
REMARK    7  A    between atoms: O_20  and  C_21
REMARK    8  A    between atoms: C_21  and  C_22
REMARK    9  A    between atoms: N_30  and  C_31
REMARK   10  A    between atoms: C_34  and  O_37
REMARK   11  A    between atoms: O_37  and  C_38
REMARK                            x       y       z     vdW  Elec       q    Type
REMARK                         _______ _______ _______ _____ _____    ______ ____
ROOT
ATOM      1  N   UNL     1       8.862   8.011   1.202  0.00  0.00    -0.248 N 
ATOM      2  C   UNL     1       8.049   7.404   0.354  0.00  0.00    +0.259 C 
ATOM      3  O   UNL     1       7.114   6.729   0.742  0.00  0.00    -0.269 OA
ATOM      4  C   UNL     1       8.329   7.579  -1.084  0.00  0.00    +0.078 C 
ATOM      5  C   UNL     1       7.670   7.074  -2.158  0.00  0.00    +0.028 C 
ATOM      6  S   UNL     1       9.766   8.640  -1.033  0.00  0.00    -0.049 S 
ATOM      7  C   UNL     1       9.911   8.778   0.741  0.00  0.00    +0.168 C 
ATOM      8  N   UNL     1      10.801   9.447   1.438  0.00  0.00    -0.225 NA
ENDROOT
BRANCH   5   9
ATOM      9  C   UNL     1       6.615   6.070  -1.966  0.00  0.00    -0.024 A 
ATOM     10  C   UNL     1       5.429   6.147  -2.707  0.00  0.00    +0.011 A 
ATOM     11  C   UNL     1       4.444   5.203  -2.523  0.00  0.00    +0.046 A 
ATOM     12  C   UNL     1       4.625   4.175  -1.605  0.00  0.00    +0.121 A 
ATOM     13  C   UNL     1       5.797   4.097  -0.863  0.00  0.00    +0.046 A 
ATOM     14  C   UNL     1       6.792   5.033  -1.042  0.00  0.00    +0.011 A 
BRANCH  12  15
ATOM     15  O   UNL     1       3.649   3.247  -1.428  0.00  0.00    -0.487 OA
BRANCH  15  16
ATOM     16  C   UNL     1       3.900   2.218  -0.468  0.00  0.00    +0.264 C 
BRANCH  16  17
ATOM     17  C   UNL     1       2.715   1.288  -0.409  0.00  0.00    -0.010 A 
ATOM     18  C   UNL     1       2.663   0.182  -1.237  0.00  0.00    +0.007 A 
ATOM     19  C   UNL     1       1.577  -0.671  -1.183  0.00  0.00    +0.000 A 
ATOM     20  C   UNL     1       0.541  -0.416  -0.304  0.00  0.00    +0.000 A 
ATOM     21  C   UNL     1       0.596   0.686   0.528  0.00  0.00    +0.000 A 
ATOM     22  C   UNL     1       1.682   1.540   0.474  0.00  0.00    +0.007 A 
ENDBRANCH  16  17
ENDBRANCH  15  16
ENDBRANCH  12  15
ENDBRANCH   5   9
BRANCH   8  23
ATOM     23  C   UNL     1      11.780  10.158   0.797  0.00  0.00    +0.067 A 
ATOM     24  C   UNL     1      12.476   9.586  -0.270  0.00  0.00    +0.031 A 
ATOM     25  C   UNL     1      13.457  10.309  -0.917  0.00  0.00    +0.048 A 
ATOM     26  C   UNL     1      13.760  11.598  -0.502  0.00  0.00    +0.120 A 
ATOM     27  C   UNL     1      13.075  12.168   0.562  0.00  0.00    +0.048 A 
ATOM     28  C   UNL     1      12.089  11.456   1.211  0.00  0.00    +0.031 A 
BRANCH  26  29
ATOM     29  O   UNL     1      14.731  12.305  -1.140  0.00  0.00    -0.495 OA
ATOM     30  C   UNL     1      15.396  11.658  -2.227  0.00  0.00    +0.277 C 
ENDBRANCH  26  29
ENDBRANCH   8  23
BRANCH   1  31
ATOM     31  C   UNL     1       8.641   7.874   2.643  0.00  0.00    +0.101 C 
BRANCH  31  35
ATOM     32  C   UNL     1       7.961  11.262   3.835  0.00  0.00    -0.078 C 
ATOM     33  C   UNL     1       7.233  10.479   4.948  0.00  0.00    -0.020 C 
ATOM     34  C   UNL     1       7.651   9.011   4.672  0.00  0.00    -0.016 C 
ATOM     35  C   UNL     1       7.708   8.986   3.124  0.00  0.00    -0.051 C 
ATOM     36  N   UNL     1       8.261  10.305   2.757  0.00  0.00    +0.382 N 
ATOM     37  H   UNL     1       9.278  10.228   2.645  0.00  0.00    -0.081 HD
BRANCH  36  39
ATOM     38  C   UNL     1       8.175  12.181   1.167  0.00  0.00    -0.017 C 
ATOM     39  C   UNL     1       7.666  10.772   1.478  0.00  0.00    -0.082 C 
ENDBRANCH  36  39
ENDBRANCH  31  35
ENDBRANCH   1  31
TORSDOF 9
