REMARK  Name = ZINC22561441
REMARK  12 active torsions:
REMARK  status: ('A' for Active; 'I' for Inactive)
REMARK    1  A    between atoms: C_1  and  C_2
REMARK    2  A    between atoms: C_2  and  C_4
REMARK    3  A    between atoms: C_2  and  N_32
REMARK    4  A    between atoms: C_7  and  S_16
REMARK    5  A    between atoms: N_8  and  C_9
REMARK    6  A    between atoms: S_16  and  C_17
REMARK    7  A    between atoms: C_17  and  C_19
REMARK    8  A    between atoms: C_17  and  C_20
REMARK    9  A    between atoms: N_22  and  C_23
REMARK   10  A    between atoms: C_26  and  C_29
REMARK   11  A    between atoms: N_32  and  C_33
REMARK   12  A    between atoms: N_32  and  C_34
REMARK                            x       y       z     vdW  Elec       q    Type
REMARK                         _______ _______ _______ _____ _____    ______ ____
ROOT
ATOM      1  C   UNL     1      -0.797  -0.805  -0.835  0.00  0.00    +0.125 A 
ATOM      2  N   UNL     1      -0.415  -2.011  -0.522  0.00  0.00    -0.135 NA
ATOM      3  N   UNL     1       0.150  -2.010   0.631  0.00  0.00    -0.122 NA
ATOM      4  C   UNL     1       0.166  -0.793   1.122  0.00  0.00    +0.197 A 
ATOM      5  N   UNL     1      -0.435   0.018   0.199  0.00  0.00    -0.275 N 
ENDROOT
BRANCH   5   6
ATOM      6  C   UNL     1      -0.643   1.402   0.293  0.00  0.00    +0.050 A 
ATOM      7  C   UNL     1      -1.935   1.908   0.352  0.00  0.00    +0.028 A 
ATOM      8  C   UNL     1      -2.137   3.271   0.451  0.00  0.00    +0.022 A 
ATOM      9  C   UNL     1      -1.054   4.132   0.480  0.00  0.00    +0.041 A 
ATOM     10  C   UNL     1       0.234   3.630   0.416  0.00  0.00    +0.022 A 
ATOM     11  C   UNL     1       0.441   2.268   0.323  0.00  0.00    +0.028 A 
ATOM     12 CL   UNL     1      -1.312   5.845   0.597  0.00  0.00    -0.084 Cl
ENDBRANCH   5   6
BRANCH   1  14
ATOM     13  C   UNL     1      -0.505  -0.377  -3.260  0.00  0.00    -0.005 C 
ATOM     14  C   UNL     1      -1.503  -0.391  -2.101  0.00  0.00    -0.003 C 
BRANCH  14  15
ATOM     15  N   UNL     1      -2.582  -1.345  -2.394  0.00  0.00    +0.382 N 
ATOM     16  C   UNL     1      -3.510  -1.454  -1.261  0.00  0.00    -0.096 C 
ATOM     17  C   UNL     1      -3.293  -0.973  -3.624  0.00  0.00    -0.096 C 
ATOM     18  H   UNL     1      -2.125  -2.333  -2.553  0.00  0.00    -0.082 HD
ENDBRANCH  14  15
ENDBRANCH   1  14
BRANCH   4  19
ATOM     19  S   UNL     1       0.836  -0.296   2.674  0.00  0.00    -0.073 S 
BRANCH  19  20
ATOM     20  C   UNL     1       1.430  -1.893   3.285  0.00  0.00    +0.137 C 
ATOM     21  C   UNL     1       2.555  -2.399   2.381  0.00  0.00    +0.029 C 
BRANCH  20  22
ATOM     22  C   UNL     1       1.949  -1.732   4.691  0.00  0.00    +0.230 C 
ATOM     23  O   UNL     1       2.262  -0.633   5.099  0.00  0.00    -0.274 OA
ATOM     24  N   UNL     1       2.065  -2.807   5.494  0.00  0.00    -0.285 N 
ATOM     25  H   UNL     1       1.701  -3.788   5.155  0.00  0.00    +0.155 HD
BRANCH  24  26
ATOM     26  C   UNL     1       2.648  -2.677   6.754  0.00  0.00    +0.033 A 
ATOM     27  C   UNL     1       3.680  -1.765   6.951  0.00  0.00    +0.024 A 
ATOM     28  C   UNL     1       4.254  -1.630   8.195  0.00  0.00    +0.015 A 
ATOM     29  C   UNL     1       3.806  -2.418   9.258  0.00  0.00    +0.037 A 
ATOM     30  C   UNL     1       2.772  -3.337   9.056  0.00  0.00    +0.015 A 
ATOM     31  C   UNL     1       2.199  -3.463   7.811  0.00  0.00    +0.024 A 
BRANCH  29  32
ATOM     32  C   UNL     1       4.423  -2.280  10.592  0.00  0.00    +0.242 C 
ATOM     33  O   UNL     1       4.031  -2.966  11.517  0.00  0.00    -0.270 OA
ATOM     34  N   UNL     1       5.419  -1.393  10.785  0.00  0.00    -0.325 N 
ATOM     35  H   UNL     1       5.879  -1.290  11.780  0.00  0.00    +0.145 HD
ATOM     36  H   UNL     1       5.773  -0.773   9.949  0.00  0.00    +0.145 HD
ENDBRANCH  29  32
ENDBRANCH  24  26
ENDBRANCH  20  22
ENDBRANCH  19  20
ENDBRANCH   4  19
TORSDOF 8
