REMARK  Name = ZINC02159371
REMARK  8 active torsions:
REMARK  status: ('A' for Active; 'I' for Inactive)
REMARK    1  A    between atoms: C_1  and  O_2
REMARK    2  A    between atoms: O_2  and  C_3
REMARK    3  A    between atoms: C_3  and  C_4
REMARK    4  A    between atoms: C_3  and  O_36
REMARK    5  A    between atoms: C_4  and  N_5
REMARK    6  A    between atoms: C_25  and  C_27
REMARK    7  A    between atoms: C_30  and  N_33
REMARK    8  A    between atoms: O_36  and  C_37
REMARK                            x       y       z     vdW  Elec       q    Type
REMARK                         _______ _______ _______ _____ _____    ______ ____
ROOT
ATOM      1  N   UNL     1       2.389   4.474   0.138  0.00  0.00    -0.286 N 
ATOM      2  C   UNL     1       2.669   3.473   1.154  0.00  0.00    +0.203 C 
ATOM      3  C   UNL     1       2.395   2.087   0.667  0.00  0.00    +0.234 C 
ATOM      4  O   UNL     1       2.617   1.167   1.426  0.00  0.00    -0.274 OA
ATOM      5  N   UNL     1       1.922   1.794  -0.546  0.00  0.00    -0.276 N 
ATOM      6  C   UNL     1       1.538   2.812  -1.523  0.00  0.00    +0.167 C 
ATOM      7  C   UNL     1       1.887   4.191  -1.062  0.00  0.00    +0.237 C 
ATOM      8  O   UNL     1       1.699   5.110  -1.831  0.00  0.00    -0.274 OA
ATOM      9  C   UNL     1       0.028   2.720  -1.780  0.00  0.00    +0.069 C 
ATOM     10  C   UNL     1      -0.349   1.272  -1.962  0.00  0.00    -0.015 A 
ATOM     11  C   UNL     1      -1.556   0.724  -2.548  0.00  0.00    +0.003 A 
ATOM     12  C   UNL     1      -2.693   1.318  -3.104  0.00  0.00    +0.010 A 
ATOM     13  C   UNL     1      -3.667   0.473  -3.574  0.00  0.00    +0.001 A 
ATOM     14  C   UNL     1      -3.542  -0.905  -3.506  0.00  0.00    +0.002 A 
ATOM     15  C   UNL     1      -2.427  -1.519  -2.961  0.00  0.00    +0.026 A 
ATOM     16  C   UNL     1      -1.421  -0.686  -2.477  0.00  0.00    +0.047 A 
ATOM     17  N   UNL     1      -0.217  -0.950  -1.891  0.00  0.00    -0.356 N 
ATOM     18  H   UNL     1       0.136  -1.836  -1.716  0.00  0.00    +0.166 HD
ATOM     19  C   UNL     1       0.418   0.225  -1.587  0.00  0.00    +0.046 A 
ATOM     20  C   UNL     1       1.772   0.375  -0.932  0.00  0.00    +0.154 C 
ENDROOT
BRANCH  20  21
ATOM     21  C   UNL     1       1.849  -0.501   0.292  0.00  0.00    -0.021 A 
ATOM     22  C   UNL     1       2.910  -1.372   0.454  0.00  0.00    +0.008 A 
ATOM     23  C   UNL     1       2.982  -2.171   1.579  0.00  0.00    +0.033 A 
ATOM     24  C   UNL     1       1.988  -2.107   2.538  0.00  0.00    +0.126 A 
ATOM     25  C   UNL     1       0.924  -1.240   2.373  0.00  0.00    +0.033 A 
ATOM     26  C   UNL     1       0.854  -0.437   1.250  0.00  0.00    +0.008 A 
BRANCH  24  27
ATOM     27  N   UNL     1       2.063  -2.966   3.741  0.00  0.00    +0.056 N 
ATOM     28  O   UNL     1       1.188  -2.909   4.586  0.00  0.00    -0.126 OA
ATOM     29  O   UNL     1       3.001  -3.730   3.886  0.00  0.00    -0.126 OA
ENDBRANCH  24  27
ENDBRANCH  20  21
BRANCH   1  30
ATOM     30  C   UNL     1       2.677   5.876   0.452  0.00  0.00    +0.169 C 
BRANCH  30  31
ATOM     31  C   UNL     1       4.113   6.206   0.039  0.00  0.00    +0.266 C 
BRANCH  31  33
ATOM     32  C   UNL     1       6.349   5.880   0.838  0.00  0.00    +0.197 C 
ATOM     33  O   UNL     1       5.020   5.362   0.751  0.00  0.00    -0.353 OA
ENDBRANCH  31  33
BRANCH  31  34
ATOM     34  O   UNL     1       4.266   5.992  -1.365  0.00  0.00    -0.353 OA
ATOM     35  C   UNL     1       5.437   6.593  -1.921  0.00  0.00    +0.197 C 
ENDBRANCH  31  34
ENDBRANCH  30  31
ENDBRANCH   1  30
TORSDOF 6
