REMARK  Name = ZINC04711341
REMARK  12 active torsions:
REMARK  status: ('A' for Active; 'I' for Inactive)
REMARK    1  A    between atoms: C_4  and  N_7
REMARK    2  A    between atoms: N_7  and  C_8
REMARK    3  A    between atoms: C_8  and  C_9
REMARK    4  A    between atoms: C_9  and  N_10
REMARK    5  A    between atoms: C_11  and  C_13
REMARK    6  A    between atoms: C_13  and  C_14
REMARK    7  A    between atoms: C_14  and  C_15
REMARK    8  A    between atoms: C_15  and  C_16
REMARK    9  A    between atoms: C_16  and  C_17
REMARK   10  A    between atoms: C_17  and  N_18
REMARK   11  A    between atoms: N_21  and  C_22
REMARK   12  A    between atoms: C_25  and  N_28
REMARK                            x       y       z     vdW  Elec       q    Type
REMARK                         _______ _______ _______ _____ _____    ______ ____
ROOT
ATOM      1  N   UNL     1       3.712  -0.780   0.401  0.00  0.00    -0.254 N 
ATOM      2  C   UNL     1       4.825  -0.044   0.215  0.00  0.00    +0.311 C 
ATOM      3  O   UNL     1       4.820   1.143   0.478  0.00  0.00    -0.252 OA
ATOM      4  N   UNL     1       5.945  -0.623  -0.263  0.00  0.00    -0.269 N 
ATOM      5  H   UNL     1       5.915  -1.532  -0.601  0.00  0.00    +0.156 HD
ENDROOT
BRANCH   1   9
ATOM      6  C   UNL     1       0.133   1.081   1.440  0.00  0.00    +0.000 A 
ATOM      7  C   UNL     1       0.714   0.172   2.304  0.00  0.00    +0.002 A 
ATOM      8  C   UNL     1       1.900  -0.447   1.963  0.00  0.00    +0.023 A 
ATOM      9  C   UNL     1       2.510  -0.155   0.750  0.00  0.00    +0.038 A 
ATOM     10  C   UNL     1       1.924   0.759  -0.116  0.00  0.00    +0.023 A 
ATOM     11  C   UNL     1       0.737   1.374   0.231  0.00  0.00    +0.002 A 
ENDBRANCH   1   9
BRANCH   4  12
ATOM     12  C   UNL     1       7.151   0.087  -0.271  0.00  0.00    +0.035 A 
ATOM     13  C   UNL     1       7.141   1.476  -0.258  0.00  0.00    +0.025 A 
ATOM     14  C   UNL     1       8.333   2.173  -0.266  0.00  0.00    +0.034 A 
ATOM     15  C   UNL     1       9.536   1.490  -0.287  0.00  0.00    +0.126 A 
ATOM     16  C   UNL     1       9.549   0.107  -0.300  0.00  0.00    +0.034 A 
ATOM     17  C   UNL     1       8.360  -0.596  -0.287  0.00  0.00    +0.025 A 
BRANCH  15  18
ATOM     18  N   UNL     1      10.811   2.241  -0.295  0.00  0.00    +0.056 N 
ATOM     19  O   UNL     1      10.801   3.450  -0.284  0.00  0.00    -0.126 OA
ATOM     20  O   UNL     1      11.863   1.645  -0.313  0.00  0.00    -0.126 OA
ENDBRANCH  15  18
ENDBRANCH   4  12
BRANCH   1  21
ATOM     21  C   UNL     1       3.761  -2.235   0.237  0.00  0.00    +0.134 C 
BRANCH  21  22
ATOM     22  C   UNL     1       3.448  -2.596  -1.216  0.00  0.00    +0.123 C 
BRANCH  22  23
ATOM     23  N   UNL     1       3.497  -4.051  -1.380  0.00  0.00    -0.314 N 
ATOM     24  C   UNL     1       3.253  -4.602  -2.585  0.00  0.00    +0.213 C 
ATOM     25  O   UNL     1       2.993  -3.894  -3.535  0.00  0.00    -0.276 OA
ATOM     26  H   UNL     1       3.705  -4.618  -0.621  0.00  0.00    +0.149 HD
BRANCH  24  27
ATOM     27  C   UNL     1       3.303  -6.099  -2.753  0.00  0.00    +0.096 C 
BRANCH  27  28
ATOM     28  C   UNL     1       2.990  -6.460  -4.207  0.00  0.00    +0.009 C 
BRANCH  28  29
ATOM     29  C   UNL     1       3.041  -7.979  -4.378  0.00  0.00    -0.001 C 
BRANCH  29  30
ATOM     30  C   UNL     1       2.729  -8.340  -5.831  0.00  0.00    -0.020 C 
BRANCH  30  31
ATOM     31  C   UNL     1       2.780  -9.860  -6.002  0.00  0.00    -0.086 C 
BRANCH  31  32
ATOM     32  N   UNL     1       2.479 -10.206  -7.398  0.00  0.00    +0.378 N 
ATOM     33  H   UNL     1       2.513 -11.208  -7.510  0.00  0.00    -0.090 HD
ATOM     34  H   UNL     1       1.558  -9.871  -7.636  0.00  0.00    -0.090 HD
ATOM     35  H   UNL     1       3.161  -9.776  -8.005  0.00  0.00    -0.090 HD
ENDBRANCH  31  32
ENDBRANCH  30  31
ENDBRANCH  29  30
ENDBRANCH  28  29
ENDBRANCH  27  28
ENDBRANCH  24  27
ENDBRANCH  22  23
ENDBRANCH  21  22
ENDBRANCH   1  21
TORSDOF 12
