REMARK  Name = ZINC08790557
REMARK  12 active torsions:
REMARK  status: ('A' for Active; 'I' for Inactive)
REMARK    1  A    between atoms: C_1  and  C_2
REMARK    2  A    between atoms: C_2  and  C_3
REMARK    3  A    between atoms: C_2  and  C_4
REMARK    4  A    between atoms: C_4  and  N_5
REMARK    5  A    between atoms: C_6  and  O_33
REMARK    6  A    between atoms: C_7  and  C_17
REMARK    7  A    between atoms: N_10  and  C_13
REMARK    8  A    between atoms: C_13  and  C_14
REMARK    9  A    between atoms: C_14  and  C_15
REMARK   10  A    between atoms: C_14  and  C_16
REMARK   11  A    between atoms: C_23  and  O_29
REMARK   12  A    between atoms: O_29  and  C_30
REMARK                            x       y       z     vdW  Elec       q    Type
REMARK                         _______ _______ _______ _____ _____    ______ ____
ROOT
ATOM      1  N   UNL     1       1.196  -0.679  -0.019  0.00  0.00    -0.264 N 
ATOM      2  C   UNL     1       0.002  -0.004   0.002  0.00  0.00    +0.204 A 
ATOM      3  C   UNL     1      -1.166  -0.707   0.009  0.00  0.00    +0.068 A 
ATOM      4  C   UNL     1      -1.118  -2.112   0.001  0.00  0.00    +0.262 A 
ATOM      5  O   UNL     1      -2.149  -2.762   0.007  0.00  0.00    -0.267 OA
ATOM      6  N   UNL     1       0.077  -2.736  -0.014  0.00  0.00    -0.260 N 
ATOM      7  C   UNL     1       1.219  -2.025  -0.022  0.00  0.00    +0.335 A 
ATOM      8  O   UNL     1       2.287  -2.606  -0.036  0.00  0.00    -0.246 OA
ENDROOT
BRANCH   3   9
ATOM      9  C   UNL     1      -2.490   0.012   0.026  0.00  0.00    +0.018 C 
ATOM     10  C   UNL     1      -3.215  -0.289   1.316  0.00  0.00    +0.011 A 
ATOM     11  C   UNL     1      -4.535  -0.582   1.370  0.00  0.00    -0.022 A 
ATOM     12  C   UNL     1      -4.867  -0.810   2.758  0.00  0.00    +0.006 A 
ATOM     13  C   UNL     1      -6.060  -1.144   3.407  0.00  0.00    +0.056 A 
ATOM     14  C   UNL     1      -6.004  -1.284   4.786  0.00  0.00    +0.121 A 
ATOM     15  C   UNL     1      -4.822  -1.103   5.493  0.00  0.00    +0.047 A 
ATOM     16  C   UNL     1      -3.632  -0.774   4.868  0.00  0.00    +0.030 A 
ATOM     17  C   UNL     1      -3.661  -0.627   3.483  0.00  0.00    +0.047 A 
ATOM     18  N   UNL     1      -2.685  -0.313   2.577  0.00  0.00    -0.359 N 
ATOM     19  H   UNL     1      -1.757  -0.135   2.796  0.00  0.00    +0.166 HD
ATOM     20  C   UNL     1      -5.424  -0.636   0.153  0.00  0.00    +0.018 C 
ATOM     21  C   UNL     1      -4.692   0.063  -1.001  0.00  0.00    -0.076 C 
ATOM     22  N   UNL     1      -3.314  -0.460  -1.109  0.00  0.00    +0.388 N 
ATOM     23  H   UNL     1      -3.341  -1.486  -1.103  0.00  0.00    -0.084 HD
ATOM     24  H   UNL     1      -2.897  -0.133  -1.988  0.00  0.00    -0.084 HD
BRANCH  14  25
ATOM     25  O   UNL     1      -7.137  -1.607   5.464  0.00  0.00    -0.495 OA
ATOM     26  C   UNL     1      -7.029  -1.740   6.883  0.00  0.00    +0.277 C 
ENDBRANCH  14  25
ENDBRANCH   3   9
BRANCH   2  27
ATOM     27  O   UNL     1      -0.016   1.346   0.009  0.00  0.00    -0.493 OA
ATOM     28  H   UNL     1       0.862   1.751   0.003  0.00  0.00    +0.294 HD
ENDBRANCH   2  27
BRANCH   1  29
ATOM     29  C   UNL     1       2.455   0.070  -0.033  0.00  0.00    +0.132 C 
BRANCH  29  31
ATOM     30  C   UNL     1       4.289   0.994   1.390  0.00  0.00    +0.009 C 
ATOM     31  C   UNL     1       2.914   0.323   1.405  0.00  0.00    +0.003 C 
ATOM     32  C   UNL     1       1.908   1.236   2.108  0.00  0.00    +0.009 C 
ENDBRANCH  29  31
ENDBRANCH   1  29
BRANCH   6  33
ATOM     33  C   UNL     1       0.132  -4.200  -0.023  0.00  0.00    +0.133 C 
BRANCH  33  34
ATOM     34  C   UNL     1       0.138  -4.702  -1.469  0.00  0.00    +0.003 C 
ATOM     35  C   UNL     1       1.422  -4.244  -2.163  0.00  0.00    +0.009 C 
ATOM     36  C   UNL     1       0.070  -6.230  -1.479  0.00  0.00    +0.009 C 
ENDBRANCH  33  34
ENDBRANCH   6  33
TORSDOF 7
