REMARK  Name = ZINC67393938
REMARK  13 active torsions:
REMARK  status: ('A' for Active; 'I' for Inactive)
REMARK    1  A    between atoms: C_1  and  C_2
REMARK    2  A    between atoms: C_2  and  C_3
REMARK    3  A    between atoms: C_3  and  N_4
REMARK    4  A    between atoms: C_7  and  C_10
REMARK    5  A    between atoms: C_10  and  N_11
REMARK    6  A    between atoms: C_12  and  C_14
REMARK    7  A    between atoms: N_16  and  C_17
REMARK    8  A    between atoms: C_18  and  C_26
REMARK    9  A    between atoms: C_22  and  C_23
REMARK   10  A    between atoms: C_23  and  C_24
REMARK   11  A    between atoms: C_23  and  C_25
REMARK   12  A    between atoms: C_26  and  C_27
REMARK   13  A    between atoms: C_26  and  C_28
REMARK                            x       y       z     vdW  Elec       q    Type
REMARK                         _______ _______ _______ _____ _____    ______ ____
ROOT
ATOM      1  C   UNL     1       2.836  -8.884   3.928  0.00  0.00    +0.303 C 
ATOM      2  O   UNL     1       2.554  -8.720   2.759  0.00  0.00    -0.265 OA
ATOM      3  N   UNL     1       3.474 -10.006   4.316  0.00  0.00    -0.277 N 
ATOM      4  H   UNL     1       3.766 -10.105   5.236  0.00  0.00    +0.155 HD
ENDROOT
BRANCH   3   5
ATOM      5  C   UNL     1       3.716 -11.027   3.394  0.00  0.00    +0.041 A 
ATOM      6  C   UNL     1       4.521 -10.789   2.287  0.00  0.00    -0.023 A 
ATOM      7  C   UNL     1       4.758 -11.800   1.377  0.00  0.00    +0.006 A 
ATOM      8  C   UNL     1       4.195 -13.049   1.566  0.00  0.00    +0.001 A 
ATOM      9  C   UNL     1       3.393 -13.289   2.666  0.00  0.00    +0.006 A 
ATOM     10  C   UNL     1       3.156 -12.284   3.584  0.00  0.00    -0.023 A 
BRANCH  10  11
ATOM     11  C   UNL     1       2.288 -12.549   4.786  0.00  0.00    +0.015 C 
ATOM     12  C   UNL     1       0.891 -12.970   4.323  0.00  0.00    +0.012 C 
ATOM     13  C   UNL     1       2.905 -13.669   5.625  0.00  0.00    +0.012 C 
ENDBRANCH  10  11
BRANCH   6  14
ATOM     14  C   UNL     1       5.135  -9.428   2.079  0.00  0.00    +0.015 C 
ATOM     15  C   UNL     1       6.509  -9.380   2.752  0.00  0.00    +0.012 C 
ATOM     16  C   UNL     1       5.291  -9.162   0.581  0.00  0.00    +0.012 C 
ENDBRANCH   6  14
ENDBRANCH   3   5
BRANCH   1  18
ATOM     17  N   UNL     1       1.839  -6.721   4.549  0.00  0.00    -0.307 N 
ATOM     18  C   UNL     1       2.477  -7.843   4.937  0.00  0.00    +0.299 C 
ATOM     19  O   UNL     1       2.759  -8.007   6.106  0.00  0.00    -0.265 OA
ATOM     20  H   UNL     1       1.613  -6.589   3.615  0.00  0.00    +0.149 HD
BRANCH  17  21
ATOM     21  C   UNL     1       1.487  -5.699   5.538  0.00  0.00    +0.106 C 
BRANCH  21  25
ATOM     22  N   UNL     1      -1.028  -3.295   5.887  0.00  0.00    +0.380 N 
ATOM     23  C   UNL     1      -1.509  -3.784   4.569  0.00  0.00    -0.079 C 
ATOM     24  C   UNL     1      -0.591  -5.000   4.287  0.00  0.00    -0.016 C 
ATOM     25  C   UNL     1       0.776  -4.537   4.840  0.00  0.00    -0.012 C 
ATOM     26  C   UNL     1       0.445  -3.425   5.853  0.00  0.00    -0.074 C 
ATOM     27  H   UNL     1      -1.411  -3.860   6.630  0.00  0.00    -0.082 HD
BRANCH  22  28
ATOM     28  C   UNL     1      -1.407  -1.888   6.074  0.00  0.00    -0.079 C 
BRANCH  28  30
ATOM     29  C   UNL     1      -3.321  -0.320   6.426  0.00  0.00    +0.002 C 
ATOM     30  C   UNL     1      -2.926  -1.785   6.231  0.00  0.00    -0.022 C 
ENDBRANCH  28  30
ENDBRANCH  22  28
ENDBRANCH  21  25
ENDBRANCH  17  21
ENDBRANCH   1  18
TORSDOF 8
