REMARK  Name = ZINC35887860
REMARK  11 active torsions:
REMARK  status: ('A' for Active; 'I' for Inactive)
REMARK    1  A    between atoms: C_1  and  C_2
REMARK    2  A    between atoms: C_2  and  C_3
REMARK    3  A    between atoms: C_2  and  C_4
REMARK    4  A    between atoms: C_4  and  N_5
REMARK    5  A    between atoms: N_5  and  C_6
REMARK    6  A    between atoms: C_6  and  C_7
REMARK    7  A    between atoms: N_10  and  C_21
REMARK    8  A    between atoms: C_12  and  C_14
REMARK    9  A    between atoms: C_21  and  C_22
REMARK   10  A    between atoms: C_27  and  O_28
REMARK   11  A    between atoms: C_29  and  C_31
REMARK                            x       y       z     vdW  Elec       q    Type
REMARK                         _______ _______ _______ _____ _____    ______ ____
ROOT
ATOM      1  C   UNL     1      -2.284  -3.304   2.542  0.00  0.00    -0.005 C 
ATOM      2  C   UNL     1      -3.207  -2.571   3.540  0.00  0.00    -0.073 C 
ATOM      3  N   UNL     1      -3.667  -3.632   4.472  0.00  0.00    +0.383 N 
ATOM      4  C   UNL     1      -2.464  -4.479   4.683  0.00  0.00    -0.070 C 
ATOM      5  C   UNL     1      -1.796  -4.560   3.292  0.00  0.00    +0.005 C 
ATOM      6  H   UNL     1      -4.409  -4.172   4.054  0.00  0.00    -0.081 HD
ENDROOT
BRANCH   5   7
ATOM      7  C   UNL     1      -0.295  -4.537   3.429  0.00  0.00    -0.046 A 
ATOM      8  C   UNL     1       0.483  -5.372   2.649  0.00  0.00    +0.006 A 
ATOM      9  C   UNL     1       1.859  -5.352   2.774  0.00  0.00    +0.038 A 
ATOM     10  C   UNL     1       2.459  -4.495   3.681  0.00  0.00    +0.123 A 
ATOM     11  C   UNL     1       1.679  -3.659   4.462  0.00  0.00    +0.038 A 
ATOM     12  C   UNL     1       0.303  -3.677   4.332  0.00  0.00    +0.006 A 
ATOM     13  F   UNL     1       3.804  -4.474   3.804  0.00  0.00    -0.205 F 
ENDBRANCH   5   7
BRANCH   1  14
ATOM     14  C   UNL     1      -1.097  -2.415   2.164  0.00  0.00    +0.110 C 
BRANCH  14  15
ATOM     15  N   UNL     1      -1.553  -1.343   1.275  0.00  0.00    -0.297 N 
ATOM     16  C   UNL     1      -1.327  -1.427  -0.051  0.00  0.00    +0.247 C 
ATOM     17  O   UNL     1      -1.655  -0.512  -0.781  0.00  0.00    -0.270 OA
BRANCH  16  18
ATOM     18  C   UNL     1      -0.682  -2.630  -0.617  0.00  0.00    +0.037 A 
ATOM     19  C   UNL     1      -1.104  -3.902  -0.224  0.00  0.00    +0.013 A 
ATOM     20  C   UNL     1      -0.498  -5.021  -0.757  0.00  0.00    +0.001 A 
ATOM     21  C   UNL     1       0.526  -4.885  -1.677  0.00  0.00    +0.000 A 
ATOM     22  C   UNL     1       0.949  -3.628  -2.071  0.00  0.00    +0.001 A 
ATOM     23  C   UNL     1       0.347  -2.500  -1.550  0.00  0.00    +0.013 A 
ENDBRANCH  16  18
BRANCH  15  24
ATOM     24  C   UNL     1      -2.253  -0.181   1.828  0.00  0.00    +0.111 C 
BRANCH  24  26
ATOM     25  C   UNL     1      -2.000   2.204   2.527  0.00  0.00    +0.009 C 
ATOM     26  C   UNL     1      -1.252   0.951   2.068  0.00  0.00    +0.000 C 
ATOM     27  C   UNL     1      -0.254   0.528   3.148  0.00  0.00    +0.009 C 
ENDBRANCH  24  26
ENDBRANCH  15  24
ENDBRANCH  14  15
ENDBRANCH   1  14
BRANCH   3  28
ATOM     28  C   UNL     1      -4.110  -3.043   5.743  0.00  0.00    -0.039 C 
BRANCH  28  29
ATOM     29  C   UNL     1      -4.685  -4.122   6.624  0.00  0.00    -0.022 A 
ATOM     30  C   UNL     1      -6.053  -4.287   6.710  0.00  0.00    +0.005 A 
ATOM     31  C   UNL     1      -6.582  -5.277   7.518  0.00  0.00    +0.000 A 
ATOM     32  C   UNL     1      -5.742  -6.103   8.242  0.00  0.00    +0.004 A 
ATOM     33  C   UNL     1      -4.372  -5.942   8.159  0.00  0.00    +0.045 A 
ATOM     34  C   UNL     1      -3.840  -4.953   7.344  0.00  0.00    +0.118 A 
BRANCH  34  35
ATOM     35  O   UNL     1      -2.493  -4.796   7.256  0.00  0.00    -0.507 OA
ATOM     36  H   UNL     1      -2.124  -4.185   7.909  0.00  0.00    +0.292 HD
ENDBRANCH  34  35
ENDBRANCH  28  29
ENDBRANCH   3  28
TORSDOF 9
