REMARK  Name = ZINC39653074
REMARK  9 active torsions:
REMARK  status: ('A' for Active; 'I' for Inactive)
REMARK    1  A    between atoms: C_1  and  O_2
REMARK    2  A    between atoms: O_2  and  C_3
REMARK    3  A    between atoms: C_5  and  C_11
REMARK    4  A    between atoms: C_7  and  O_9
REMARK    5  A    between atoms: O_9  and  C_10
REMARK    6  A    between atoms: C_11  and  C_12
REMARK    7  A    between atoms: C_12  and  N_13
REMARK    8  A    between atoms: C_14  and  C_16
REMARK    9  A    between atoms: C_27  and  C_29
REMARK                            x       y       z     vdW  Elec       q    Type
REMARK                         _______ _______ _______ _____ _____    ______ ____
ROOT
ATOM      1  C   UNL     1      -1.003  -8.722  -3.384  0.00  0.00    +0.100 C 
ATOM      2  C   UNL     1       0.192  -8.941  -4.339  0.00  0.00    +0.121 C 
ATOM      3  N   UNL     1      -0.256 -10.014  -5.258  0.00  0.00    -0.296 N 
ATOM      4  C   UNL     1      -1.681  -9.701  -5.523  0.00  0.00    +0.115 C 
ATOM      5  C   UNL     1      -2.230  -9.221  -4.165  0.00  0.00    -0.004 C 
ATOM      6  C   UNL     1      -2.892 -10.379  -3.425  0.00  0.00    -0.010 C 
ATOM      7  C   UNL     1      -4.142 -10.821  -4.192  0.00  0.00    -0.082 C 
ATOM      8  N   UNL     1      -5.072  -9.692  -4.308  0.00  0.00    +0.379 N 
ATOM      9  C   UNL     1      -4.461  -8.618  -5.100  0.00  0.00    -0.082 C 
ATOM     10  C   UNL     1      -3.225  -8.083  -4.372  0.00  0.00    -0.010 C 
ATOM     11  C   UNL     1       0.469 -11.041  -5.744  0.00  0.00    +0.248 C 
ATOM     12  O   UNL     1      -0.016 -11.790  -6.569  0.00  0.00    -0.270 OA
ATOM     13  H   UNL     1      -5.920 -10.001  -4.759  0.00  0.00    -0.086 HD
ATOM     14  H   UNL     1      -5.293  -9.344  -3.386  0.00  0.00    -0.086 HD
ENDROOT
BRANCH  11  15
ATOM     15  C   UNL     1       1.853 -11.256  -5.274  0.00  0.00    +0.057 A 
ATOM     16  C   UNL     1       2.671 -10.164  -4.976  0.00  0.00    +0.014 A 
ATOM     17  C   UNL     1       3.962 -10.372  -4.537  0.00  0.00    +0.002 A 
ATOM     18  C   UNL     1       4.449 -11.659  -4.391  0.00  0.00    +0.021 A 
ATOM     19  C   UNL     1       3.646 -12.747  -4.684  0.00  0.00    +0.060 A 
ATOM     20  C   UNL     1       2.347 -12.554  -5.119  0.00  0.00    +0.071 A 
ATOM     21 CL   UNL     1       1.337 -13.919  -5.479  0.00  0.00    -0.081 Cl
ATOM     22 CL   UNL     1       4.266 -14.357  -4.498  0.00  0.00    -0.082 Cl
ENDBRANCH  11  15
BRANCH   1  24
ATOM     23  N   UNL     1      -1.679  -6.883  -1.874  0.00  0.00    -0.315 N 
ATOM     24  C   UNL     1      -1.150  -7.259  -3.055  0.00  0.00    +0.218 C 
ATOM     25  O   UNL     1      -0.793  -6.419  -3.854  0.00  0.00    -0.275 OA
ATOM     26  H   UNL     1      -1.965  -7.555  -1.235  0.00  0.00    +0.149 HD
BRANCH  23  27
ATOM     27  C   UNL     1      -1.823  -5.461  -1.554  0.00  0.00    +0.109 C 
BRANCH  27  28
ATOM     28  C   UNL     1      -2.445  -5.310  -0.164  0.00  0.00    +0.054 C 
BRANCH  28  31
ATOM     29  C   UNL     1      -3.890  -1.830   0.128  0.00  0.00    +0.124 A 
ATOM     30  C   UNL     1      -3.752  -3.177  -0.174  0.00  0.00    +0.049 A 
ATOM     31  C   UNL     1      -2.592  -3.847   0.164  0.00  0.00    -0.039 A 
ATOM     32  C   UNL     1      -1.567  -3.177   0.804  0.00  0.00    +0.049 A 
ATOM     33  C   UNL     1      -1.700  -1.830   1.108  0.00  0.00    +0.124 A 
ATOM     34  C   UNL     1      -2.861  -1.154   0.764  0.00  0.00    +0.091 A 
BRANCH  29  36
ATOM     35  C   UNL     1      -5.103   0.215   0.131  0.00  0.00    +0.277 C 
ATOM     36  O   UNL     1      -5.032  -1.172  -0.205  0.00  0.00    -0.495 OA
ENDBRANCH  29  36
BRANCH  33  37
ATOM     37  O   UNL     1      -0.691  -1.172   1.738  0.00  0.00    -0.495 OA
ATOM     38  C   UNL     1      -0.897   0.214   2.019  0.00  0.00    +0.277 C 
ENDBRANCH  33  37
ENDBRANCH  28  31
ENDBRANCH  27  28
ENDBRANCH  23  27
ENDBRANCH   1  24
TORSDOF 7
