REMARK  Name = ZINC40097538
REMARK  7 active torsions:
REMARK  status: ('A' for Active; 'I' for Inactive)
REMARK    1  A    between atoms: C_1  and  N_2
REMARK    2  A    between atoms: N_2  and  C_3
REMARK    3  A    between atoms: N_2  and  C_4
REMARK    4  A    between atoms: C_4  and  C_6
REMARK    5  A    between atoms: C_4  and  C_19
REMARK    6  A    between atoms: C_6  and  N_7
REMARK    7  A    between atoms: N_10  and  C_11
REMARK                            x       y       z     vdW  Elec       q    Type
REMARK                         _______ _______ _______ _____ _____    ______ ____
ROOT
ATOM      1  N   UNL     1       0.299  -1.472  -0.009  0.00  0.00    -0.300 N 
ATOM      2  C   UNL     1       0.876  -2.677  -0.188  0.00  0.00    +0.304 C 
ATOM      3  O   UNL     1       0.856  -3.204  -1.283  0.00  0.00    -0.253 OA
ATOM      4  N   UNL     1       1.475  -3.297   0.848  0.00  0.00    -0.268 N 
ATOM      5  H   UNL     1       0.315  -1.051   0.865  0.00  0.00    +0.150 HD
ATOM      6  H   UNL     1       1.419  -2.917   1.739  0.00  0.00    +0.156 HD
ENDROOT
BRANCH   4   7
ATOM      7  C   UNL     1       2.178  -4.489   0.638  0.00  0.00    +0.055 A 
ATOM      8  C   UNL     1       2.607  -4.829  -0.638  0.00  0.00    +0.025 A 
ATOM      9  C   UNL     1       3.301  -6.005  -0.842  0.00  0.00    +0.003 A 
ATOM     10  C   UNL     1       3.569  -6.847   0.222  0.00  0.00    +0.021 A 
ATOM     11  C   UNL     1       3.143  -6.513   1.496  0.00  0.00    +0.061 A 
ATOM     12  C   UNL     1       2.453  -5.333   1.708  0.00  0.00    +0.080 A 
ATOM     13 CL   UNL     1       1.924  -4.910   3.306  0.00  0.00    -0.080 Cl
ATOM     14 CL   UNL     1       3.481  -7.572   2.829  0.00  0.00    -0.082 Cl
ENDBRANCH   4   7
BRANCH   1  15
ATOM     15  C   UNL     1      -0.352  -0.798  -1.135  0.00  0.00    +0.095 C 
BRANCH  15  16
ATOM     16  C   UNL     1      -1.032   0.480  -0.640  0.00  0.00    -0.020 C 
BRANCH  16  17
ATOM     17  C   UNL     1      -2.167   0.120   0.284  0.00  0.00    -0.052 A 
ATOM     18  C   UNL     1      -2.005   0.194   1.655  0.00  0.00    +0.009 A 
ATOM     19  C   UNL     1      -3.045  -0.137   2.458  0.00  0.00    +0.045 A 
ATOM     20  S   UNL     1      -4.305  -0.572   1.271  0.00  0.00    -0.105 S 
ATOM     21  C   UNL     1      -3.362  -0.277  -0.216  0.00  0.00    +0.047 A 
ENDBRANCH  16  17
BRANCH  16  23
ATOM     22  C   UNL     1      -2.247   2.437  -1.310  0.00  0.00    -0.096 C 
ATOM     23  N   UNL     1      -1.556   1.232  -1.788  0.00  0.00    +0.382 N 
ATOM     24  C   UNL     1      -0.446   1.621  -2.668  0.00  0.00    -0.096 C 
ATOM     25  H   UNL     1      -2.205   0.654  -2.301  0.00  0.00    -0.082 HD
ENDBRANCH  16  23
ENDBRANCH  15  16
ENDBRANCH   1  15
TORSDOF 5
