REMARK  Name = ZINC40688261
REMARK  5 active torsions:
REMARK  status: ('A' for Active; 'I' for Inactive)
REMARK    1  A    between atoms: C_1  and  C_2
REMARK    2  A    between atoms: C_2  and  C_3
REMARK    3  A    between atoms: C_8  and  N_9
REMARK    4  A    between atoms: C_11  and  N_26
REMARK    5  A    between atoms: C_12  and  N_16
REMARK                            x       y       z     vdW  Elec       q    Type
REMARK                         _______ _______ _______ _____ _____    ______ ____
ROOT
ATOM      1  N   UNL     1       2.841  -0.221  -0.126  0.00  0.00    -0.299 N 
ATOM      2  C   UNL     1       4.210  -0.458  -0.098  0.00  0.00    +0.126 A 
ATOM      3  C   UNL     1       4.945  -0.237   1.069  0.00  0.00    +0.104 A 
ATOM      4  C   UNL     1       6.317  -0.491   1.042  0.00  0.00    +0.151 A 
ATOM      5  N   UNL     1       6.870  -0.931  -0.086  0.00  0.00    -0.220 NA
ATOM      6  C   UNL     1       6.140  -1.126  -1.166  0.00  0.00    +0.200 A 
ATOM      7  N   UNL     1       4.841  -0.904  -1.182  0.00  0.00    -0.333 N 
ATOM      8  H   UNL     1       2.400   0.168   0.645  0.00  0.00    +0.154 HD
ATOM      9  H   UNL     1       4.339  -1.065  -1.996  0.00  0.00    +0.168 HD
ENDROOT
BRANCH   4  10
ATOM     10  N   UNL     1       7.095  -0.287   2.176  0.00  0.00    -0.283 N 
ATOM     11  C   UNL     1       7.231  -1.343   3.188  0.00  0.00    +0.113 C 
ATOM     12  C   UNL     1       7.073  -0.692   4.569  0.00  0.00    +0.024 C 
ATOM     13  C   UNL     1       8.212   0.306   4.777  0.00  0.00    +0.038 C 
ATOM     14  C   UNL     1       8.307   1.248   3.607  0.00  0.00    -0.026 A 
ATOM     15  C   UNL     1       7.766   0.926   2.370  0.00  0.00    +0.038 A 
ATOM     16  C   UNL     1       7.881   1.814   1.306  0.00  0.00    +0.024 A 
ATOM     17  C   UNL     1       8.536   3.017   1.478  0.00  0.00    +0.002 A 
ATOM     18  C   UNL     1       9.078   3.338   2.709  0.00  0.00    +0.000 A 
ATOM     19  C   UNL     1       8.957   2.459   3.773  0.00  0.00    +0.005 A 
ENDBRANCH   4  10
BRANCH   1  25
ATOM     20  C   UNL     1       1.808  -1.869  -1.556  0.00  0.00    -0.026 A 
ATOM     21  C   UNL     1       1.070  -2.183  -2.681  0.00  0.00    +0.005 A 
ATOM     22  C   UNL     1       0.626  -1.179  -3.521  0.00  0.00    +0.000 A 
ATOM     23  C   UNL     1       0.919   0.143  -3.238  0.00  0.00    +0.002 A 
ATOM     24  C   UNL     1       1.656   0.464  -2.116  0.00  0.00    +0.023 A 
ATOM     25  C   UNL     1       2.099  -0.542  -1.266  0.00  0.00    +0.036 A 
BRANCH  20  27
ATOM     26  C   UNL     1       1.293  -3.149   0.505  0.00  0.00    +0.009 C 
ATOM     27  C   UNL     1       2.291  -2.965  -0.641  0.00  0.00    +0.033 C 
ENDBRANCH  20  27
ENDBRANCH   1  25
BRANCH   3  28
ATOM     28  N   UNL     1       4.320   0.229   2.236  0.00  0.00    -0.353 N 
ATOM     29  H   UNL     1       3.355   0.327   2.264  0.00  0.00    +0.143 HD
ATOM     30  H   UNL     1       4.853   0.452   3.016  0.00  0.00    +0.143 HD
ENDBRANCH   3  28
TORSDOF 4
