REMARK  Name = ZINC19320470
REMARK  7 active torsions:
REMARK  status: ('A' for Active; 'I' for Inactive)
REMARK    1  A    between atoms: C_14  and  C_15
REMARK    2  A    between atoms: N_16  and  C_28
REMARK    3  A    between atoms: N_19  and  C_20
REMARK    4  A    between atoms: C_20  and  C_21
REMARK    5  A    between atoms: C_26  and  O_27
REMARK    6  A    between atoms: C_28  and  C_29
REMARK    7  A    between atoms: C_34  and  O_35
REMARK                            x       y       z     vdW  Elec       q    Type
REMARK                         _______ _______ _______ _____ _____    ______ ____
ROOT
ATOM      1  C   UNL     1       4.935   0.159   0.013  0.00  0.00    +0.035 C 
ATOM      2  N   UNL     1       6.141  -0.486  -0.567  0.00  0.00    +0.396 N 
ATOM      3  C   UNL     1       7.054   0.664  -0.806  0.00  0.00    -0.060 C 
ATOM      4  C   UNL     1       6.101   1.790  -1.260  0.00  0.00    +0.065 C 
ATOM      5  N   UNL     1       4.769   1.424  -0.734  0.00  0.00    -0.309 NA
ATOM      6  H   UNL     1       5.915  -0.949  -1.435  0.00  0.00    -0.078 HD
ENDROOT
BRANCH   1  20
ATOM      7  C   UNL     1       1.697  -2.303   3.118  0.00  0.00    +0.001 A 
ATOM      8  C   UNL     1       2.815  -1.487   3.295  0.00  0.00    +0.001 A 
ATOM      9  C   UNL     1       3.490  -0.963   2.241  0.00  0.00    +0.009 A 
ATOM     10  C   UNL     1       3.058  -1.245   0.927  0.00  0.00    -0.014 A 
ATOM     11  C   UNL     1       1.883  -2.103   0.740  0.00  0.00    -0.017 A 
ATOM     12  C   UNL     1       1.229  -2.614   1.882  0.00  0.00    +0.008 A 
ATOM     13  C   UNL     1       1.430  -2.401  -0.543  0.00  0.00    +0.017 A 
ATOM     14  C   UNL     1       2.100  -1.879  -1.648  0.00  0.00    -0.017 A 
ATOM     15  C   UNL     1       1.667  -2.161  -2.962  0.00  0.00    +0.008 A 
ATOM     16  C   UNL     1       2.343  -1.636  -4.016  0.00  0.00    +0.001 A 
ATOM     17  C   UNL     1       3.461  -0.820  -3.839  0.00  0.00    +0.001 A 
ATOM     18  C   UNL     1       3.929  -0.510  -2.603  0.00  0.00    +0.009 A 
ATOM     19  C   UNL     1       3.274  -1.022  -1.462  0.00  0.00    -0.014 A 
ATOM     20  C   UNL     1       3.728  -0.723  -0.178  0.00  0.00    -0.032 A 
ENDBRANCH   1  20
BRANCH   5  21
ATOM     21  C   UNL     1       4.237   2.483   0.134  0.00  0.00    +0.121 C 
BRANCH  21  22
ATOM     22  C   UNL     1       3.729   3.620  -0.714  0.00  0.00    +0.008 A 
ATOM     23  C   UNL     1       4.460   4.788  -0.815  0.00  0.00    +0.008 A 
ATOM     24  C   UNL     1       3.994   5.832  -1.593  0.00  0.00    +0.001 A 
ATOM     25  C   UNL     1       2.796   5.710  -2.272  0.00  0.00    +0.004 A 
ATOM     26  C   UNL     1       2.061   4.544  -2.175  0.00  0.00    +0.046 A 
ATOM     27  C   UNL     1       2.529   3.493  -1.399  0.00  0.00    +0.121 A 
BRANCH  27  28
ATOM     28  O   UNL     1       1.811   2.343  -1.307  0.00  0.00    -0.506 OA
ATOM     29  H   UNL     1       1.119   2.365  -0.632  0.00  0.00    +0.292 HD
ENDBRANCH  27  28
ENDBRANCH  21  22
ENDBRANCH   5  21
BRANCH   2  30
ATOM     30  C   UNL     1       6.735  -1.431   0.388  0.00  0.00    -0.037 C 
BRANCH  30  31
ATOM     31  C   UNL     1       7.860  -2.179  -0.280  0.00  0.00    -0.022 A 
ATOM     32  C   UNL     1       7.635  -3.435  -0.812  0.00  0.00    +0.005 A 
ATOM     33  C   UNL     1       8.667  -4.122  -1.424  0.00  0.00    +0.000 A 
ATOM     34  C   UNL     1       9.926  -3.555  -1.506  0.00  0.00    +0.004 A 
ATOM     35  C   UNL     1      10.155  -2.300  -0.976  0.00  0.00    +0.045 A 
ATOM     36  C   UNL     1       9.120  -1.607  -0.366  0.00  0.00    +0.118 A 
BRANCH  36  37
ATOM     37  O   UNL     1       9.342  -0.370   0.152  0.00  0.00    -0.507 OA
ATOM     38  H   UNL     1       9.624  -0.375   1.077  0.00  0.00    +0.292 HD
ENDBRANCH  36  37
ENDBRANCH  30  31
ENDBRANCH   2  30
TORSDOF 7
