REMARK  Name = ZINC52907749
REMARK  12 active torsions:
REMARK  status: ('A' for Active; 'I' for Inactive)
REMARK    1  A    between atoms: C_1  and  C_2
REMARK    2  A    between atoms: C_2  and  C_3
REMARK    3  A    between atoms: C_2  and  N_4
REMARK    4  A    between atoms: N_4  and  C_5
REMARK    5  A    between atoms: N_4  and  C_6
REMARK    6  A    between atoms: C_6  and  C_7
REMARK    7  A    between atoms: C_7  and  C_8
REMARK    8  A    between atoms: C_8  and  C_9
REMARK    9  A    between atoms: C_9  and  N_10
REMARK   10  A    between atoms: N_10  and  C_11
REMARK   11  A    between atoms: C_16  and  C_17
REMARK   12  A    between atoms: C_17  and  N_19
REMARK                            x       y       z     vdW  Elec       q    Type
REMARK                         _______ _______ _______ _____ _____    ______ ____
ROOT
ATOM      1  N   UNL     1      -4.167  -6.039   0.287  0.00  0.00    -0.343 N 
ATOM      2  H   UNL     1      -3.325  -6.513   0.213  0.00  0.00    +0.146 HD
ENDROOT
BRANCH   1   3
ATOM      3  C   UNL     1      -5.358  -6.748   0.386  0.00  0.00    +0.038 A 
ATOM      4  C   UNL     1      -6.554  -6.077   0.605  0.00  0.00    +0.024 A 
ATOM      5  C   UNL     1      -7.736  -6.784   0.704  0.00  0.00    +0.003 A 
ATOM      6  C   UNL     1      -7.741  -8.164   0.587  0.00  0.00    +0.021 A 
ATOM      7  C   UNL     1      -6.563  -8.849   0.370  0.00  0.00    +0.052 A 
ATOM      8  C   UNL     1      -5.358  -8.147   0.261  0.00  0.00    +0.042 A 
ATOM      9 CL   UNL     1      -6.578 -10.579   0.226  0.00  0.00    -0.083 Cl
BRANCH   8  10
ATOM     10  C   UNL     1      -4.098  -8.870   0.023  0.00  0.00    +0.080 C 
ATOM     11  S   UNL     1      -3.510  -9.062  -1.573  0.00  0.00    -0.035 S 
BRANCH  10  12
ATOM     12  N   UNL     1      -3.408  -9.380   1.062  0.00  0.00    -0.352 N 
ATOM     13  H   UNL     1      -3.776  -9.336   1.958  0.00  0.00    +0.143 HD
ATOM     14  H   UNL     1      -2.542  -9.792   0.913  0.00  0.00    +0.143 HD
ENDBRANCH  10  12
ENDBRANCH   8  10
ENDBRANCH   1   3
BRANCH   1  15
ATOM     15  C   UNL     1      -4.185  -4.574   0.292  0.00  0.00    +0.101 C 
BRANCH  15  16
ATOM     16  C   UNL     1      -2.754  -4.046   0.172  0.00  0.00    +0.017 C 
BRANCH  16  17
ATOM     17  C   UNL     1      -2.773  -2.516   0.177  0.00  0.00    -0.017 C 
BRANCH  17  18
ATOM     18  C   UNL     1      -1.342  -1.988   0.057  0.00  0.00    -0.079 C 
BRANCH  18  19
ATOM     19  N   UNL     1      -1.360  -0.519   0.062  0.00  0.00    +0.379 N 
ATOM     20  C   UNL     1      -2.056  -0.033  -1.137  0.00  0.00    -0.096 C 
ATOM     21  H   UNL     1      -1.841  -0.192   0.886  0.00  0.00    -0.082 HD
BRANCH  19  23
ATOM     22  C   UNL     1       0.001   1.517   0.073  0.00  0.00    -0.014 C 
ATOM     23  C   UNL     1       0.019  -0.013   0.067  0.00  0.00    -0.075 C 
ATOM     24  C   UNL     1       0.744  -0.519   1.316  0.00  0.00    -0.014 C 
ENDBRANCH  19  23
ENDBRANCH  18  19
ENDBRANCH  17  18
ENDBRANCH  16  17
ENDBRANCH  15  16
ENDBRANCH   1  15
TORSDOF 9
