REMARK  Name = ZINC42601682
REMARK  7 active torsions:
REMARK  status: ('A' for Active; 'I' for Inactive)
REMARK    1  A    between atoms: C_1  and  C_2
REMARK    2  A    between atoms: C_8  and  N_10
REMARK    3  A    between atoms: N_10  and  C_11
REMARK    4  A    between atoms: N_10  and  C_12
REMARK    5  A    between atoms: C_12  and  C_13
REMARK    6  A    between atoms: N_15  and  C_16
REMARK    7  A    between atoms: C_19  and  N_23
REMARK                            x       y       z     vdW  Elec       q    Type
REMARK                         _______ _______ _______ _____ _____    ______ ____
ROOT
ATOM      1  C   UNL     1       4.396  -0.560   2.483  0.00  0.00    +0.201 C 
ATOM      2  O   UNL     1       4.891   0.064   1.569  0.00  0.00    -0.278 OA
ATOM      3  N   UNL     1       5.164  -0.975   3.510  0.00  0.00    -0.286 N 
ATOM      4  H   UNL     1       4.758  -1.412   4.274  0.00  0.00    +0.155 HD
ENDROOT
BRANCH   3   5
ATOM      5  C   UNL     1       6.551  -0.773   3.473  0.00  0.00    +0.048 A 
ATOM      6  C   UNL     1       7.186  -0.536   2.262  0.00  0.00    +0.026 A 
ATOM      7  C   UNL     1       8.552  -0.337   2.225  0.00  0.00    +0.024 A 
ATOM      8  C   UNL     1       9.291  -0.374   3.401  0.00  0.00    +0.026 A 
ATOM      9  C   UNL     1       8.656  -0.611   4.613  0.00  0.00    +0.039 A 
ATOM     10  C   UNL     1       7.289  -0.804   4.650  0.00  0.00    +0.041 A 
ATOM     11 BR   UNL     1       6.423  -1.119   6.301  0.00  0.00    -0.048 Br
BRANCH   8  12
ATOM     12  N   UNL     1      10.675  -0.173   3.363  0.00  0.00    -0.358 N 
ATOM     13  H   UNL     1      11.118  -0.008   2.517  0.00  0.00    +0.142 HD
ATOM     14  H   UNL     1      11.191  -0.198   4.184  0.00  0.00    +0.142 HD
ENDBRANCH   8  12
ENDBRANCH   3   5
BRANCH   1  15
ATOM     15  C   UNL     1       2.921  -0.873   2.472  0.00  0.00    +0.019 C 
BRANCH  15  16
ATOM     16  N   UNL     1       2.313  -0.317   1.256  0.00  0.00    +0.386 N 
ATOM     17  C   UNL     1       2.399   1.149   1.291  0.00  0.00    -0.095 C 
ATOM     18  H   UNL     1       2.804  -0.663   0.445  0.00  0.00    -0.081 HD
BRANCH  16  25
ATOM     19  C   UNL     1       1.540  -2.691  -0.216  0.00  0.00    +0.006 C 
ATOM     20  C   UNL     1       0.816  -2.245   1.056  0.00  0.00    -0.028 C 
ATOM     21  C   UNL     1      -0.652  -2.668   0.982  0.00  0.00    +0.002 C 
ATOM     22  C   UNL     1      -1.376  -2.222   2.254  0.00  0.00    +0.000 C 
ATOM     23  C   UNL     1      -1.290  -0.700   2.383  0.00  0.00    -0.002 C 
ATOM     24  C   UNL     1       0.179  -0.277   2.457  0.00  0.00    -0.015 C 
ATOM     25  C   UNL     1       0.903  -0.723   1.185  0.00  0.00    -0.065 C 
ENDBRANCH  16  25
ENDBRANCH  15  16
ENDBRANCH   1  15
TORSDOF 5
