REMARK  Name = ZINC37943081
REMARK  5 active torsions:
REMARK  status: ('A' for Active; 'I' for Inactive)
REMARK    1  A    between atoms: C_3  and  C_8
REMARK    2  A    between atoms: C_8  and  C_10
REMARK    3  A    between atoms: C_8  and  N_13
REMARK    4  A    between atoms: N_13  and  C_14
REMARK    5  A    between atoms: C_14  and  C_15
REMARK                            x       y       z     vdW  Elec       q    Type
REMARK                         _______ _______ _______ _____ _____    ______ ____
ROOT
ATOM      1  C   UNL     1       3.672   2.183  -0.022  0.00  0.00    +0.047 C 
ENDROOT
BRANCH   1   4
ATOM      2  C   UNL     1      -0.017   1.378   0.010  0.00  0.00    +0.001 A 
ATOM      3  C   UNL     1       1.171   2.086   0.002  0.00  0.00    +0.002 A 
ATOM      4  C   UNL     1       2.378   1.411  -0.013  0.00  0.00    -0.052 A 
ATOM      5  C   UNL     1       2.397   0.029  -0.022  0.00  0.00    +0.017 A 
ATOM      6  C   UNL     1       1.210  -0.679  -0.014  0.00  0.00    +0.018 A 
ATOM      7  C   UNL     1       0.002  -0.004   0.002  0.00  0.00    +0.015 A 
ATOM      8 BR   UNL     1       1.236  -2.570  -0.025  0.00  0.00    -0.050 Br
ENDBRANCH   1   4
BRANCH   1   9
ATOM      9  C   UNL     1       4.216   2.236  -1.427  0.00  0.00    +0.201 C 
ATOM     10  O   UNL     1       5.306   1.766  -1.673  0.00  0.00    -0.277 OA
ATOM     11  N   UNL     1       3.490   2.806  -2.409  0.00  0.00    -0.330 N 
ATOM     12  H   UNL     1       2.618   3.182  -2.212  0.00  0.00    +0.145 HD
ATOM     13  H   UNL     1       3.840   2.840  -3.313  0.00  0.00    +0.145 HD
ENDBRANCH   1   9
BRANCH   1  14
ATOM     14  N   UNL     1       4.645   1.518   0.855  0.00  0.00    +0.391 N 
ATOM     15  H   UNL     1       4.247   1.409   1.776  0.00  0.00    -0.084 HD
ATOM     16  H   UNL     1       4.873   0.611   0.477  0.00  0.00    -0.084 HD
BRANCH  14  17
ATOM     17  C   UNL     1       5.864   2.333   0.941  0.00  0.00    -0.049 C 
BRANCH  17  18
ATOM     18  C   UNL     1       6.877   1.641   1.854  0.00  0.00    +0.101 C 
ATOM     19  C   UNL     1       8.113   2.546   2.047  0.00  0.00    +0.032 C 
ATOM     20  C   UNL     1       9.280   1.521   2.018  0.00  0.00    +0.030 C 
ATOM     21  C   UNL     1       8.737   0.486   1.000  0.00  0.00    +0.160 C 
ATOM     22  O   UNL     1       7.322   0.421   1.249  0.00  0.00    -0.378 OA
ENDBRANCH  17  18
ENDBRANCH  14  17
ENDBRANCH   1  14
TORSDOF 5
