REMARK  Name = ZINC42398568
REMARK  7 active torsions:
REMARK  status: ('A' for Active; 'I' for Inactive)
REMARK    1  A    between atoms: C_1  and  N_2
REMARK    2  A    between atoms: N_2  and  C_3
REMARK    3  A    between atoms: N_2  and  C_10
REMARK    4  A    between atoms: C_3  and  C_4
REMARK    5  A    between atoms: C_10  and  C_12
REMARK    6  A    between atoms: C_10  and  C_14
REMARK    7  A    between atoms: C_12  and  N_13
REMARK                            x       y       z     vdW  Elec       q    Type
REMARK                         _______ _______ _______ _____ _____    ______ ____
ROOT
ATOM      1  C   UNL     1       0.269  -0.924  -1.375  0.00  0.00    +0.071 C 
ENDROOT
BRANCH   1   2
ATOM      2  C   UNL     1      -0.484  -0.425  -2.581  0.00  0.00    -0.012 A 
ATOM      3  C   UNL     1      -1.273   0.706  -2.484  0.00  0.00    +0.006 A 
ATOM      4  C   UNL     1      -1.964   1.165  -3.590  0.00  0.00    +0.002 A 
ATOM      5  C   UNL     1      -1.865   0.494  -4.795  0.00  0.00    +0.021 A 
ATOM      6  C   UNL     1      -1.076  -0.637  -4.894  0.00  0.00    +0.060 A 
ATOM      7  C   UNL     1      -0.380  -1.094  -3.787  0.00  0.00    +0.064 A 
ATOM      8 CL   UNL     1       0.618  -2.509  -3.912  0.00  0.00    -0.082 Cl
ATOM      9 CL   UNL     1      -0.952  -1.481  -6.406  0.00  0.00    -0.082 Cl
ENDBRANCH   1   2
BRANCH   1  11
ATOM     10  C   UNL     1       0.255   1.039   0.043  0.00  0.00    +0.105 C 
ATOM     11  N   UNL     1      -0.288  -0.311  -0.162  0.00  0.00    -0.296 NA
BRANCH  11  12
ATOM     12  C   UNL     1      -0.050  -1.158   1.014  0.00  0.00    +0.127 C 
BRANCH  12  13
ATOM     13  C   UNL     1      -1.025  -0.793   2.103  0.00  0.00    +0.005 A 
ATOM     14  C   UNL     1      -2.258  -1.301   2.350  0.00  0.00    +0.027 A 
ATOM     15  C   UNL     1      -2.984  -0.808   3.418  0.00  0.00    +0.025 A 
ATOM     16  C   UNL     1      -2.441   0.168   4.187  0.00  0.00    +0.060 A 
ATOM     17  S   UNL     1      -0.854   0.414   3.407  0.00  0.00    -0.099 S 
ATOM     18 BR   UNL     1      -4.708  -1.484   3.801  0.00  0.00    -0.050 Br
ENDBRANCH  12  13
ENDBRANCH  11  12
ENDBRANCH   1  11
BRANCH   1  19
ATOM     19  C   UNL     1       1.746  -0.549  -1.503  0.00  0.00    -0.063 C 
BRANCH  19  20
ATOM     20  N   UNL     1       2.467  -0.976  -0.297  0.00  0.00    +0.379 N 
ATOM     21  H   UNL     1       2.205  -0.385   0.478  0.00  0.00    -0.090 HD
ATOM     22  H   UNL     1       2.230  -1.934  -0.085  0.00  0.00    -0.090 HD
ATOM     23  H   UNL     1       3.461  -0.903  -0.455  0.00  0.00    -0.090 HD
ENDBRANCH  19  20
ENDBRANCH   1  19
TORSDOF 6
