REMARK  Name = ZINC19770424
REMARK  9 active torsions:
REMARK  status: ('A' for Active; 'I' for Inactive)
REMARK    1  A    between atoms: C_1  and  C_2
REMARK    2  A    between atoms: C_3  and  C_22
REMARK    3  A    between atoms: N_4  and  C_21
REMARK    4  A    between atoms: C_5  and  C_7
REMARK    5  A    between atoms: C_7  and  N_8
REMARK    6  A    between atoms: C_9  and  C_11
REMARK    7  A    between atoms: C_13  and  C_18
REMARK    8  A    between atoms: C_18  and  C_19
REMARK    9  A    between atoms: C_18  and  C_20
REMARK                            x       y       z     vdW  Elec       q    Type
REMARK                         _______ _______ _______ _____ _____    ______ ____
ROOT
ATOM      1  N   UNL     1      -0.704   1.975   1.216  0.00  0.00    -0.303 N 
ATOM      2  C   UNL     1      -0.843   3.297   1.437  0.00  0.00    +0.263 C 
ATOM      3  O   UNL     1      -0.400   4.097   0.638  0.00  0.00    -0.269 OA
ATOM      4  H   UNL     1      -1.105   1.251   1.940  0.00  0.00    +0.150 HD
ENDROOT
BRANCH   2   5
ATOM      5  C   UNL     1      -1.538   3.776   2.659  0.00  0.00    +0.131 A 
ATOM      6  C   UNL     1      -1.683   5.142   2.902  0.00  0.00    +0.056 A 
ATOM      7  C   UNL     1      -2.344   5.542   4.055  0.00  0.00    +0.050 A 
ATOM      8  N   UNL     1      -2.804   4.624   4.886  0.00  0.00    -0.219 NA
ATOM      9  C   UNL     1      -2.647   3.332   4.631  0.00  0.00    +0.213 A 
ATOM     10  N   UNL     1      -2.027   2.909   3.541  0.00  0.00    -0.210 NA
ATOM     11  N   UNL     1      -3.144   2.402   5.528  0.00  0.00    -0.327 N 
ATOM     12  H   UNL     1      -3.022   1.327   5.330  0.00  0.00    +0.145 HD
ATOM     13  H   UNL     1      -3.662   2.739   6.438  0.00  0.00    +0.145 HD
BRANCH   7  14
ATOM     14  C   UNL     1      -2.529   7.006   4.358  0.00  0.00    +0.032 C 
ATOM     15  C   UNL     1      -1.281   7.544   5.060  0.00  0.00    +0.014 C 
ATOM     16  C   UNL     1      -2.751   7.774   3.053  0.00  0.00    +0.014 C 
ENDBRANCH   7  14
ENDBRANCH   2   5
BRANCH   1  17
ATOM     17  C   UNL     1      -0.018   1.503   0.010  0.00  0.00    +0.177 C 
BRANCH  17  22
ATOM     18  C   UNL     1      -1.348  -3.259  -0.804  0.00  0.00    +0.065 C 
ATOM     19  C   UNL     1      -0.564  -2.057  -0.345  0.00  0.00    +0.033 A 
ATOM     20  C   UNL     1       0.609  -2.083   0.318  0.00  0.00    +0.036 A 
ATOM     21  N   UNL     1       0.971  -0.781   0.533  0.00  0.00    -0.335 N 
ATOM     22  C   UNL     1       0.002  -0.004   0.002  0.00  0.00    +0.105 A 
ATOM     23  N   UNL     1      -0.911  -0.774  -0.524  0.00  0.00    -0.346 N 
ATOM     24  C   UNL     1       2.182  -0.317   1.214  0.00  0.00    +0.150 C 
ATOM     25  C   UNL     1       1.377  -3.310   0.735  0.00  0.00    +0.065 C 
ATOM     26  H   UNL     1      -1.845  -0.525  -1.049  0.00  0.00    +0.167 HD
ENDBRANCH  17  22
ENDBRANCH   1  17
TORSDOF 4
