REMARK  Name = ZINC60353885
REMARK  13 active torsions:
REMARK  status: ('A' for Active; 'I' for Inactive)
REMARK    1  A    between atoms: C_1  and  C_2
REMARK    2  A    between atoms: C_2  and  C_3
REMARK    3  A    between atoms: C_3  and  C_4
REMARK    4  A    between atoms: C_4  and  N_5
REMARK    5  A    between atoms: N_5  and  C_6
REMARK    6  A    between atoms: C_9  and  S_26
REMARK    7  A    between atoms: C_11  and  N_12
REMARK    8  A    between atoms: N_12  and  S_13
REMARK    9  A    between atoms: S_13  and  C_16
REMARK   10  A    between atoms: C_19  and  C_22
REMARK   11  A    between atoms: C_22  and  C_23
REMARK   12  A    between atoms: C_23  and  C_24
REMARK   13  A    between atoms: S_26  and  N_29
REMARK                            x       y       z     vdW  Elec       q    Type
REMARK                         _______ _______ _______ _____ _____    ______ ____
ROOT
ATOM      1  C   UNL     1      -3.011  -3.758   0.275  0.00  0.00    +0.050 A 
ATOM      2  C   UNL     1      -1.889  -4.557   0.434  0.00  0.00    +0.027 A 
ATOM      3  C   UNL     1      -2.023  -5.932   0.500  0.00  0.00    +0.030 A 
ATOM      4  C   UNL     1      -3.274  -6.514   0.410  0.00  0.00    +0.107 A 
ATOM      5  C   UNL     1      -4.398  -5.725   0.252  0.00  0.00    +0.054 A 
ATOM      6  C   UNL     1      -4.274  -4.345   0.189  0.00  0.00    +0.071 A 
ENDROOT
BRANCH   4   7
ATOM      7  S   UNL     1      -3.436  -8.266   0.495  0.00  0.00    +0.056 S 
ATOM      8  O   UNL     1      -4.652  -8.594  -0.161  0.00  0.00    -0.153 OA
ATOM      9  O   UNL     1      -2.184  -8.810   0.097  0.00  0.00    -0.153 OA
BRANCH   7  10
ATOM     10  N   UNL     1      -3.637  -8.662   2.091  0.00  0.00    -0.204 NA
ATOM     11  H   UNL     1      -3.647  -7.966   2.766  0.00  0.00    +0.144 HD
ATOM     12  H   UNL     1      -3.745  -9.591   2.350  0.00  0.00    +0.144 HD
ENDBRANCH   7  10
ENDBRANCH   4   7
BRANCH   1  13
ATOM     13  N   UNL     1      -2.878  -2.366   0.208  0.00  0.00    -0.342 N 
ATOM     14  H   UNL     1      -3.664  -1.808   0.101  0.00  0.00    +0.146 HD
BRANCH  13  15
ATOM     15  C   UNL     1      -1.551  -1.752   0.298  0.00  0.00    +0.101 C 
BRANCH  15  16
ATOM     16  C   UNL     1      -1.685  -0.231   0.198  0.00  0.00    +0.018 C 
BRANCH  16  18
ATOM     17  C   UNL     1      -0.433   1.931   0.193  0.00  0.00    +0.004 C 
ATOM     18  C   UNL     1      -0.299   0.410   0.293  0.00  0.00    -0.002 C 
ENDBRANCH  16  18
ENDBRANCH  15  16
ENDBRANCH  13  15
ENDBRANCH   1  13
BRANCH   6  19
ATOM     19  N   UNL     1      -5.411  -3.544   0.034  0.00  0.00    -0.214 N 
ATOM     20  H   UNL     1      -5.365  -2.733  -0.496  0.00  0.00    +0.174 HD
BRANCH  19  21
ATOM     21  S   UNL     1      -6.836  -3.980   0.757  0.00  0.00    +0.072 S 
ATOM     22  O   UNL     1      -7.750  -2.916   0.529  0.00  0.00    -0.150 OA
ATOM     23  O   UNL     1      -7.105  -5.315   0.352  0.00  0.00    -0.150 OA
BRANCH  21  24
ATOM     24  C   UNL     1      -6.545  -4.030   2.494  0.00  0.00    +0.109 A 
ATOM     25  C   UNL     1      -6.115  -5.201   3.090  0.00  0.00    +0.029 A 
ATOM     26  C   UNL     1      -5.887  -5.240   4.452  0.00  0.00    +0.005 A 
ATOM     27  C   UNL     1      -6.088  -4.108   5.220  0.00  0.00    -0.047 A 
ATOM     28  C   UNL     1      -6.516  -2.937   4.624  0.00  0.00    +0.005 A 
ATOM     29  C   UNL     1      -6.740  -2.896   3.261  0.00  0.00    +0.029 A 
BRANCH  27  30
ATOM     30  C   UNL     1      -5.840  -4.151   6.705  0.00  0.00    +0.036 C 
BRANCH  30  31
ATOM     31  C   UNL     1      -4.384  -3.775   6.991  0.00  0.00    +0.020 C 
BRANCH  31  32
ATOM     32  C   UNL     1      -4.132  -3.819   8.499  0.00  0.00    +0.109 C 
ATOM     33 CL   UNL     1      -2.417  -3.376   8.835  0.00  0.00    -0.125 Cl
ENDBRANCH  31  32
ENDBRANCH  30  31
ENDBRANCH  27  30
ENDBRANCH  21  24
ENDBRANCH  19  21
ENDBRANCH   6  19
TORSDOF 12
