REMARK  Name = ZINC66243261
REMARK  9 active torsions:
REMARK  status: ('A' for Active; 'I' for Inactive)
REMARK    1  A    between atoms: C_1  and  O_2
REMARK    2  A    between atoms: O_2  and  C_3
REMARK    3  A    between atoms: C_6  and  C_9
REMARK    4  A    between atoms: C_9  and  C_10
REMARK    5  A    between atoms: C_10  and  N_11
REMARK    6  A    between atoms: N_14  and  C_15
REMARK    7  A    between atoms: C_15  and  C_16
REMARK    8  A    between atoms: C_16  and  C_17
REMARK    9  A    between atoms: C_17  and  N_18
REMARK                            x       y       z     vdW  Elec       q    Type
REMARK                         _______ _______ _______ _____ _____    ______ ____
ROOT
ATOM      1  N   UNL     1      -6.739  -3.548  -1.396  0.00  0.00    -0.357 N 
ATOM      2  C   UNL     1      -7.356  -3.867  -2.582  0.00  0.00    +0.169 C 
ATOM      3  N   UNL     1      -6.787  -3.562  -3.715  0.00  0.00    -0.371 N 
ATOM      4  N   UNL     1      -8.572  -4.508  -2.574  0.00  0.00    -0.358 N 
ATOM      5  H   UNL     1      -7.162  -3.775  -0.553  0.00  0.00    +0.162 HD
ATOM      6  H   UNL     1      -7.223  -3.787  -4.552  0.00  0.00    +0.159 HD
ATOM      7  H   UNL     1      -8.995  -4.735  -1.731  0.00  0.00    +0.162 HD
ATOM      8  H   UNL     1      -5.929  -3.110  -3.721  0.00  0.00    +0.159 HD
ENDROOT
BRANCH   1   9
ATOM      9  C   UNL     1      -5.443  -2.865  -1.405  0.00  0.00    +0.120 C 
BRANCH   9  10
ATOM     10  C   UNL     1      -4.981  -2.629   0.035  0.00  0.00    +0.056 C 
BRANCH  10  14
ATOM     11  C   UNL     1      -1.200  -0.637   0.010  0.00  0.00    +0.120 A 
ATOM     12  C   UNL     1      -2.375   0.101   0.019  0.00  0.00    +0.046 A 
ATOM     13  C   UNL     1      -3.596  -0.545   0.027  0.00  0.00    +0.007 A 
ATOM     14  C   UNL     1      -3.648  -1.927   0.026  0.00  0.00    -0.045 A 
ATOM     15  C   UNL     1      -2.479  -2.665   0.017  0.00  0.00    +0.007 A 
ATOM     16  C   UNL     1      -1.255  -2.024   0.003  0.00  0.00    +0.046 A 
BRANCH  11  18
ATOM     17  C   UNL     1      -0.017   1.425   0.010  0.00  0.00    +0.277 C 
ATOM     18  O   UNL     1       0.002  -0.004   0.002  0.00  0.00    -0.495 OA
ENDBRANCH  11  18
ENDBRANCH  10  14
ENDBRANCH   9  10
ENDBRANCH   1   9
BRANCH   4  19
ATOM     19  C   UNL     1      -9.229  -4.848  -3.838  0.00  0.00    +0.117 C 
BRANCH  19  20
ATOM     20  C   UNL     1     -10.558  -5.549  -3.550  0.00  0.00    +0.040 C 
BRANCH  20  21
ATOM     21  C   UNL     1     -11.245  -5.904  -4.870  0.00  0.00    +0.120 C 
BRANCH  21  22
ATOM     22  N   UNL     1     -12.517  -6.576  -4.594  0.00  0.00    -0.224 N 
ATOM     23  C   UNL     1     -12.655  -7.912  -4.451  0.00  0.00    +0.246 C 
ATOM     24  O   UNL     1     -11.785  -8.753  -4.523  0.00  0.00    -0.273 OA
ATOM     25  C   UNL     1     -14.122  -8.133  -4.181  0.00  0.00    +0.113 C 
ATOM     26  C   UNL     1     -14.336  -8.809  -2.821  0.00  0.00    +0.035 C 
ATOM     27  C   UNL     1     -15.560  -9.734  -3.051  0.00  0.00    +0.003 C 
ATOM     28  C   UNL     1     -15.335 -10.251  -4.494  0.00  0.00    +0.003 C 
ATOM     29  C   UNL     1     -14.752  -9.034  -5.246  0.00  0.00    +0.035 C 
ATOM     30  N   UNL     1     -14.705  -6.790  -4.203  0.00  0.00    -0.285 N 
ATOM     31  C   UNL     1     -13.687  -5.941  -4.447  0.00  0.00    +0.309 C 
ATOM     32  O   UNL     1     -13.817  -4.735  -4.528  0.00  0.00    -0.252 OA
ATOM     33  H   UNL     1     -15.637  -6.558  -4.066  0.00  0.00    +0.151 HD
ENDBRANCH  21  22
ENDBRANCH  20  21
ENDBRANCH  19  20
ENDBRANCH   4  19
TORSDOF 8
