REMARK  Name = ZINC58687801
REMARK  6 active torsions:
REMARK  status: ('A' for Active; 'I' for Inactive)
REMARK    1  A    between atoms: C_1  and  C_2
REMARK    2  A    between atoms: C_7  and  C_8
REMARK    3  A    between atoms: C_8  and  C_10
REMARK    4  A    between atoms: C_8  and  N_24
REMARK    5  A    between atoms: C_10  and  C_11
REMARK    6  A    between atoms: N_13  and  C_14
REMARK                            x       y       z     vdW  Elec       q    Type
REMARK                         _______ _______ _______ _____ _____    ______ ____
ROOT
ATOM      1  C   UNL     1       0.123  -0.007   2.542  0.00  0.00    +0.114 C 
ENDROOT
BRANCH   1   8
ATOM      2  C   UNL     1       2.598  -0.635   1.190  0.00  0.00    +0.044 C 
ATOM      3  C   UNL     1       1.305  -1.248   0.718  0.00  0.00    -0.045 A 
ATOM      4  C   UNL     1       1.304  -2.115  -0.359  0.00  0.00    +0.004 A 
ATOM      5  C   UNL     1       0.118  -2.678  -0.792  0.00  0.00    +0.000 A 
ATOM      6  C   UNL     1      -1.067  -2.373  -0.148  0.00  0.00    +0.000 A 
ATOM      7  C   UNL     1      -1.066  -1.507   0.929  0.00  0.00    +0.006 A 
ATOM      8  C   UNL     1       0.121  -0.948   1.365  0.00  0.00    -0.024 A 
ENDBRANCH   1   8
BRANCH   1   9
ATOM      9  N   UNL     1       0.679  -0.691   3.713  0.00  0.00    -0.292 N 
ATOM     10  C   UNL     1       0.122  -1.838   4.151  0.00  0.00    +0.298 C 
ATOM     11  O   UNL     1      -0.781  -2.354   3.521  0.00  0.00    -0.253 OA
ATOM     12  N   UNL     1       0.566  -2.411   5.287  0.00  0.00    -0.313 N 
ATOM     13  H   UNL     1       1.448  -0.319   4.172  0.00  0.00    +0.151 HD
ATOM     14  H   UNL     1       1.286  -1.999   5.789  0.00  0.00    +0.146 HD
ATOM     15  H   UNL     1       0.165  -3.236   5.602  0.00  0.00    +0.146 HD
ENDBRANCH   1   9
BRANCH   1  16
ATOM     16  C   UNL     1      -1.310   0.436   2.844  0.00  0.00    +0.123 C 
BRANCH  16  17
ATOM     17  C   UNL     1      -1.296   1.470   3.940  0.00  0.00    +0.219 C 
ATOM     18  O   UNL     1      -0.243   1.817   4.432  0.00  0.00    -0.275 OA
ATOM     19  N   UNL     1      -2.453   2.007   4.374  0.00  0.00    -0.285 N 
ATOM     20  H   UNL     1      -3.299   1.675   4.036  0.00  0.00    +0.155 HD
BRANCH  19  21
ATOM     21  C   UNL     1      -2.434   3.046   5.312  0.00  0.00    +0.037 A 
ATOM     22  C   UNL     1      -1.309   3.848   5.429  0.00  0.00    +0.023 A 
ATOM     23  C   UNL     1      -1.292   4.871   6.356  0.00  0.00    +0.002 A 
ATOM     24  C   UNL     1      -2.392   5.087   7.161  0.00  0.00    +0.004 A 
ATOM     25  C   UNL     1      -3.521   4.285   7.049  0.00  0.00    -0.042 A 
ATOM     26  C   UNL     1      -3.548   3.271   6.120  0.00  0.00    -0.023 A 
ATOM     27  C   UNL     1      -4.746   2.378   5.929  0.00  0.00    +0.037 C 
ATOM     28  C   UNL     1      -5.677   2.461   7.136  0.00  0.00    +0.005 C 
ATOM     29  C   UNL     1      -5.963   3.940   7.425  0.00  0.00    +0.005 C 
ATOM     30  C   UNL     1      -4.680   4.575   7.967  0.00  0.00    +0.035 C 
ENDBRANCH  19  21
ENDBRANCH  16  17
ENDBRANCH   1  16
TORSDOF 5
