REMARK  Name = ZINC05640796
REMARK  9 active torsions:
REMARK  status: ('A' for Active; 'I' for Inactive)
REMARK    1  A    between atoms: C_14  and  C_15
REMARK    2  A    between atoms: C_16  and  C_17
REMARK    3  A    between atoms: C_19  and  N_26
REMARK    4  A    between atoms: N_26  and  C_27
REMARK    5  A    between atoms: N_26  and  C_30
REMARK    6  A    between atoms: C_27  and  C_28
REMARK    7  A    between atoms: C_28  and  O_29
REMARK    8  A    between atoms: C_30  and  C_31
REMARK    9  A    between atoms: C_31  and  O_32
REMARK                            x       y       z     vdW  Elec       q    Type
REMARK                         _______ _______ _______ _____ _____    ______ ____
ROOT
ATOM      1  C   UNL     1      -1.077   3.037  -0.865  0.00  0.00    +0.041 A 
ATOM      2  C   UNL     1      -2.279   3.699  -1.165  0.00  0.00    +0.049 A 
ATOM      3  C   UNL     1      -2.243   5.000  -1.627  0.00  0.00    +0.041 A 
ATOM      4  C   UNL     1      -0.977   5.619  -1.781  0.00  0.00    +0.019 A 
ATOM      5  C   UNL     1      -0.866   6.937  -2.244  0.00  0.00    +0.012 A 
ATOM      6  C   UNL     1       0.367   7.503  -2.380  0.00  0.00    +0.001 A 
ATOM      7  C   UNL     1       1.519   6.788  -2.064  0.00  0.00    +0.002 A 
ATOM      8  C   UNL     1       1.447   5.506  -1.612  0.00  0.00    +0.026 A 
ATOM      9  C   UNL     1       0.192   4.889  -1.458  0.00  0.00    +0.049 A 
ATOM     10  N   UNL     1       0.163   3.594  -0.992  0.00  0.00    -0.355 N 
ATOM     11  H   UNL     1       1.019   3.080  -0.754  0.00  0.00    +0.166 HD
ENDROOT
BRANCH   1  13
ATOM     12  C   UNL     1       0.012   1.039   0.025  0.00  0.00    +0.011 C 
ATOM     13  C   UNL     1      -1.123   1.652  -0.374  0.00  0.00    +0.026 C 
BRANCH  12  27
ATOM     14  C   UNL     1       4.498   0.957  -2.409  0.00  0.00    +0.001 A 
ATOM     15  C   UNL     1       3.313   0.230  -2.505  0.00  0.00    +0.001 A 
ATOM     16  C   UNL     1       2.251   0.487  -1.695  0.00  0.00    +0.009 A 
ATOM     17  C   UNL     1       2.343   1.505  -0.730  0.00  0.00    -0.010 A 
ATOM     18  C   UNL     1       3.586   2.273  -0.630  0.00  0.00    -0.017 A 
ATOM     19  C   UNL     1       4.650   1.956  -1.501  0.00  0.00    +0.008 A 
ATOM     20  C   UNL     1       3.709   3.293   0.314  0.00  0.00    +0.017 A 
ATOM     21  C   UNL     1       2.643   3.589   1.165  0.00  0.00    -0.017 A 
ATOM     22  C   UNL     1       2.745   4.616   2.128  0.00  0.00    +0.008 A 
ATOM     23  C   UNL     1       1.689   4.879   2.942  0.00  0.00    +0.001 A 
ATOM     24  C   UNL     1       0.500   4.158   2.852  0.00  0.00    +0.001 A 
ATOM     25  C   UNL     1       0.339   3.156   1.946  0.00  0.00    +0.009 A 
ATOM     26  C   UNL     1       1.392   2.833   1.074  0.00  0.00    -0.010 A 
ATOM     27  C   UNL     1       1.259   1.800   0.123  0.00  0.00    -0.010 A 
ENDBRANCH  12  27
ENDBRANCH   1  13
BRANCH   3  28
ATOM     28  N   UNL     1      -3.413   5.681  -1.933  0.00  0.00    -0.325 N 
BRANCH  28  29
ATOM     29  C   UNL     1      -4.164   4.989  -2.989  0.00  0.00    +0.133 C 
BRANCH  29  30
ATOM     30  C   UNL     1      -5.306   5.885  -3.473  0.00  0.00    +0.174 C 
BRANCH  30  31
ATOM     31  O   UNL     1      -4.766   7.052  -4.095  0.00  0.00    -0.393 OA
ATOM     32  H   UNL     1      -5.434   7.667  -4.427  0.00  0.00    +0.209 HD
ENDBRANCH  30  31
ENDBRANCH  29  30
ENDBRANCH  28  29
BRANCH  28  33
ATOM     33  C   UNL     1      -4.241   5.868  -0.734  0.00  0.00    +0.133 C 
BRANCH  33  34
ATOM     34  C   UNL     1      -3.568   6.877   0.198  0.00  0.00    +0.174 C 
BRANCH  34  35
ATOM     35  O   UNL     1      -3.525   8.157  -0.436  0.00  0.00    -0.393 OA
ATOM     36  H   UNL     1      -3.110   8.848   0.099  0.00  0.00    +0.209 HD
ENDBRANCH  34  35
ENDBRANCH  33  34
ENDBRANCH  28  33
ENDBRANCH   3  28
TORSDOF 9
