REMARK  Name = ZINC63531087
REMARK  11 active torsions:
REMARK  status: ('A' for Active; 'I' for Inactive)
REMARK    1  A    between atoms: C_1  and  C_2
REMARK    2  A    between atoms: C_2  and  C_3
REMARK    3  A    between atoms: C_2  and  O_4
REMARK    4  A    between atoms: O_4  and  C_5
REMARK    5  A    between atoms: C_8  and  C_11
REMARK    6  A    between atoms: C_11  and  N_12
REMARK    7  A    between atoms: C_13  and  C_15
REMARK    8  A    between atoms: C_17  and  S_27
REMARK    9  A    between atoms: C_21  and  O_25
REMARK   10  A    between atoms: O_25  and  C_26
REMARK   11  A    between atoms: S_27  and  C_28
REMARK                            x       y       z     vdW  Elec       q    Type
REMARK                         _______ _______ _______ _____ _____    ______ ____
ROOT
ATOM      1  C   UNL     1       7.910  -3.558  -0.312  0.00  0.00    +0.204 C 
ATOM      2  C   UNL     1       8.079  -3.933   1.143  0.00  0.00    +0.030 C 
ATOM      3  C   UNL     1       9.432  -4.200   1.309  0.00  0.00    +0.010 A 
ATOM      4  C   UNL     1      10.194  -4.596   2.433  0.00  0.00    +0.014 A 
ATOM      5  C   UNL     1      11.530  -4.790   2.307  0.00  0.00    +0.046 A 
ATOM      6  C   UNL     1      12.184  -4.608   1.081  0.00  0.00    +0.122 A 
ATOM      7  C   UNL     1      11.509  -4.227  -0.041  0.00  0.00    +0.071 A 
ATOM      8  C   UNL     1      10.113  -4.007   0.019  0.00  0.00    +0.048 A 
ATOM      9  N   UNL     1       9.246  -3.640  -0.911  0.00  0.00    -0.369 N 
ATOM     10  H   UNL     1       9.459  -3.456  -1.839  0.00  0.00    +0.161 HD
ENDROOT
BRANCH   1  12
ATOM     11  N   UNL     1       6.058  -1.919  -0.275  0.00  0.00    -0.309 N 
ATOM     12  C   UNL     1       7.376  -2.153  -0.427  0.00  0.00    +0.241 C 
ATOM     13  O   UNL     1       8.133  -1.234  -0.655  0.00  0.00    -0.273 OA
ATOM     14  H   UNL     1       5.452  -2.655  -0.093  0.00  0.00    +0.149 HD
BRANCH  11  15
ATOM     15  C   UNL     1       5.538  -0.554  -0.387  0.00  0.00    +0.139 C 
BRANCH  15  19
ATOM     16  C   UNL     1       1.306  -0.587   0.204  0.00  0.00    +0.121 A 
ATOM     17  C   UNL     1       2.157  -0.423   1.287  0.00  0.00    +0.046 A 
ATOM     18  C   UNL     1       3.525  -0.413   1.093  0.00  0.00    +0.009 A 
ATOM     19  C   UNL     1       4.046  -0.566  -0.179  0.00  0.00    -0.030 A 
ATOM     20  C   UNL     1       3.199  -0.729  -1.260  0.00  0.00    +0.009 A 
ATOM     21  C   UNL     1       1.831  -0.746  -1.071  0.00  0.00    +0.046 A 
BRANCH  16  22
ATOM     22  O   UNL     1      -0.040  -0.597   0.392  0.00  0.00    -0.489 OA
BRANCH  22  24
ATOM     23  C   UNL     1      -0.593   1.002   2.118  0.00  0.00    +0.051 C 
ATOM     24  C   UNL     1      -0.508  -0.478   1.737  0.00  0.00    +0.167 C 
ATOM     25  C   UNL     1      -1.895  -1.114   1.852  0.00  0.00    +0.051 C 
ENDBRANCH  22  24
ENDBRANCH  16  22
ENDBRANCH  15  19
ENDBRANCH  11  15
ENDBRANCH   1  12
BRANCH   6  26
ATOM     26  O   UNL     1      13.522  -4.815   1.008  0.00  0.00    -0.495 OA
ATOM     27  C   UNL     1      14.184  -5.212   2.212  0.00  0.00    +0.277 C 
ENDBRANCH   6  26
BRANCH   2  28
ATOM     28  S   UNL     1       6.894  -4.010   2.303  0.00  0.00    -0.091 S 
BRANCH  28  29
ATOM     29  C   UNL     1       5.921  -5.400   1.827  0.00  0.00    +0.013 A 
ATOM     30  C   UNL     1       6.347  -6.227   0.795  0.00  0.00    +0.015 A 
ATOM     31  C   UNL     1       5.582  -7.316   0.424  0.00  0.00    +0.001 A 
ATOM     32  C   UNL     1       4.393  -7.582   1.079  0.00  0.00    +0.000 A 
ATOM     33  C   UNL     1       3.966  -6.761   2.106  0.00  0.00    +0.001 A 
ATOM     34  C   UNL     1       4.729  -5.674   2.486  0.00  0.00    +0.015 A 
ENDBRANCH  28  29
ENDBRANCH   2  28
TORSDOF 8
