REMARK  Name = ZINC63514386
REMARK  8 active torsions:
REMARK  status: ('A' for Active; 'I' for Inactive)
REMARK    1  A    between atoms: C_1  and  C_2
REMARK    2  A    between atoms: C_2  and  C_3
REMARK    3  A    between atoms: C_3  and  C_5
REMARK    4  A    between atoms: C_3  and  N_19
REMARK    5  A    between atoms: N_7  and  C_8
REMARK    6  A    between atoms: C_8  and  C_9
REMARK    7  A    between atoms: C_9  and  C_10
REMARK    8  A    between atoms: C_27  and  C_30
REMARK                            x       y       z     vdW  Elec       q    Type
REMARK                         _______ _______ _______ _____ _____    ______ ____
ROOT
ATOM      1  C   UNL     1      -1.433  -0.534   0.013  0.00  0.00    +0.179 C 
ENDROOT
BRANCH   1   2
ATOM      2  N   UNL     1      -2.105  -0.148  -1.230  0.00  0.00    -0.218 N 
ATOM      3  C   UNL     1      -3.216   0.628  -1.157  0.00  0.00    +0.277 C 
ATOM      4  O   UNL     1      -3.580   1.147  -0.118  0.00  0.00    -0.267 OA
ATOM      5  C   UNL     1      -3.949   0.799  -2.419  0.00  0.00    +0.111 A 
ATOM      6  C   UNL     1      -4.950   1.645  -2.781  0.00  0.00    +0.079 A 
ATOM      7  C   UNL     1      -5.274   1.365  -4.118  0.00  0.00    +0.153 A 
ATOM      8  C   UNL     1      -4.441   0.331  -4.548  0.00  0.00    +0.089 A 
ATOM      9  N   UNL     1      -3.632  -0.013  -3.510  0.00  0.00    -0.316 N 
ATOM     10  C   UNL     1      -2.576  -1.023  -3.404  0.00  0.00    +0.170 C 
ATOM     11  N   UNL     1      -1.590  -0.577  -2.409  0.00  0.00    -0.215 NA
ATOM     12  C   UNL     1      -3.185  -2.357  -2.969  0.00  0.00    +0.050 C 
ATOM     13  C   UNL     1      -4.797   0.077  -5.895  0.00  0.00    +0.067 A 
ATOM     14  C   UNL     1      -5.785   0.929  -6.215  0.00  0.00    +0.198 A 
ATOM     15  O   UNL     1      -6.072   1.700  -5.153  0.00  0.00    -0.461 OA
ATOM     16  H   UNL     1      -0.961   0.109  -2.799  0.00  0.00    +0.147 HD
ENDBRANCH   1   2
BRANCH   1  17
ATOM     17  C   UNL     1      -1.414  -2.036   0.129  0.00  0.00    +0.235 C 
ATOM     18  O   UNL     1      -1.912  -2.718  -0.742  0.00  0.00    -0.274 OA
ATOM     19  N   UNL     1      -0.842  -2.622   1.199  0.00  0.00    -0.313 N 
ATOM     20  H   UNL     1      -0.444  -2.077   1.895  0.00  0.00    +0.149 HD
BRANCH  19  21
ATOM     21  C   UNL     1      -0.823  -4.083   1.312  0.00  0.00    +0.108 C 
BRANCH  21  22
ATOM     22  C   UNL     1      -0.121  -4.485   2.610  0.00  0.00    +0.052 C 
BRANCH  22  23
ATOM     23  C   UNL     1      -0.101  -5.987   2.726  0.00  0.00    -0.040 C 
ATOM     24  C   UNL     1       0.900  -6.818   2.357  0.00  0.00    -0.001 A 
ATOM     25  C   UNL     1       2.220  -6.581   1.760  0.00  0.00    +0.010 A 
ATOM     26  C   UNL     1       3.021  -7.639   1.497  0.00  0.00    +0.001 A 
ATOM     27  C   UNL     1       2.623  -8.953   1.779  0.00  0.00    +0.002 A 
ATOM     28  C   UNL     1       1.426  -9.250   2.328  0.00  0.00    +0.026 A 
ATOM     29  C   UNL     1       0.504  -8.215   2.646  0.00  0.00    +0.043 A 
ATOM     30  N   UNL     1      -0.696  -8.246   3.173  0.00  0.00    -0.380 N 
ATOM     31  C   UNL     1      -1.195  -6.871   3.284  0.00  0.00    +0.144 C 
ATOM     32  H   UNL     1      -1.173  -9.045   3.448  0.00  0.00    +0.160 HD
ENDBRANCH  22  23
ENDBRANCH  21  22
ENDBRANCH  19  21
ENDBRANCH   1  17
BRANCH   1  34
ATOM     33  C   UNL     1      -0.019   1.526   0.010  0.00  0.00    +0.006 C 
ATOM     34  C   UNL     1       0.002  -0.004   0.002  0.00  0.00    +0.030 C 
ENDBRANCH   1  34
TORSDOF 6
