REMARK  Name = ZINC15523975
REMARK  8 active torsions:
REMARK  status: ('A' for Active; 'I' for Inactive)
REMARK    1  A    between atoms: C_1  and  C_2
REMARK    2  A    between atoms: C_5  and  O_36
REMARK    3  A    between atoms: C_6  and  N_8
REMARK    4  A    between atoms: C_9  and  C_11
REMARK    5  A    between atoms: C_11  and  C_13
REMARK    6  A    between atoms: C_11  and  N_19
REMARK    7  A    between atoms: C_29  and  C_32
REMARK    8  A    between atoms: O_36  and  C_37
REMARK                            x       y       z     vdW  Elec       q    Type
REMARK                         _______ _______ _______ _____ _____    ______ ____
ROOT
ATOM      1  C   UNL     1       0.287  -2.900   4.866  0.00  0.00    +0.050 C 
ENDROOT
BRANCH   1   2
ATOM      2  N   UNL     1       0.254  -1.958   5.993  0.00  0.00    +0.391 N 
ATOM      3  C   UNL     1      -0.897  -1.074   5.821  0.00  0.00    -0.076 C 
ATOM      4  C   UNL     1      -0.596   0.266   6.456  0.00  0.00    +0.000 C 
ATOM      5  C   UNL     1      -1.123   0.277   7.902  0.00  0.00    +0.104 C 
ATOM      6  N   UNL     1      -0.881  -1.019   8.566  0.00  0.00    -0.317 N 
ATOM      7  C   UNL     1       0.360  -1.750   8.410  0.00  0.00    +0.088 C 
ATOM      8  C   UNL     1       0.260  -2.701   7.195  0.00  0.00    -0.058 C 
ATOM      9  C   UNL     1      -1.879  -1.558   9.370  0.00  0.00    +0.121 A 
ATOM     10  C   UNL     1      -3.146  -0.984   9.373  0.00  0.00    +0.044 A 
ATOM     11  C   UNL     1      -4.130  -1.530  10.177  0.00  0.00    +0.017 A 
ATOM     12  C   UNL     1      -3.812  -2.635  10.955  0.00  0.00    +0.073 A 
ATOM     13  C   UNL     1      -2.534  -3.154  10.903  0.00  0.00    +0.125 A 
ATOM     14  N   UNL     1      -1.617  -2.615  10.122  0.00  0.00    -0.240 NA
ATOM     15  H   UNL     1       1.091  -1.397   5.961  0.00  0.00    -0.080 HD
BRANCH  12  16
ATOM     16  C   UNL     1      -4.853  -3.263  11.846  0.00  0.00    +0.419 C 
ATOM     17  F   UNL     1      -5.538  -4.255  11.137  0.00  0.00    -0.166 F 
ATOM     18  F   UNL     1      -4.228  -3.834  12.961  0.00  0.00    -0.166 F 
ATOM     19  F   UNL     1      -5.757  -2.283  12.270  0.00  0.00    -0.166 F 
ENDBRANCH  12  16
ENDBRANCH   1   2
BRANCH   1  20
ATOM     20  C   UNL     1       1.458  -3.835   5.027  0.00  0.00    -0.052 A 
ATOM     21  C   UNL     1       2.668  -3.353   5.491  0.00  0.00    +0.002 A 
ATOM     22  C   UNL     1       3.742  -4.210   5.638  0.00  0.00    +0.000 A 
ATOM     23  C   UNL     1       3.607  -5.549   5.322  0.00  0.00    +0.000 A 
ATOM     24  C   UNL     1       2.397  -6.031   4.858  0.00  0.00    +0.000 A 
ATOM     25  C   UNL     1       1.321  -5.174   4.715  0.00  0.00    +0.002 A 
ENDBRANCH   1  20
BRANCH   1  27
ATOM     26  N   UNL     1       0.259  -2.765   2.396  0.00  0.00    -0.284 N 
ATOM     27  C   UNL     1       0.428  -2.135   3.575  0.00  0.00    +0.208 C 
ATOM     28  O   UNL     1       0.694  -0.952   3.598  0.00  0.00    -0.277 OA
ATOM     29  H   UNL     1      -0.028  -3.691   2.378  0.00  0.00    +0.155 HD
BRANCH  26  35
ATOM     30  C   UNL     1       2.512   0.871  -0.029  0.00  0.00    +0.044 C 
ATOM     31  C   UNL     1       1.584  -0.317  -0.009  0.00  0.00    -0.048 A 
ATOM     32  C   UNL     1       0.968  -0.731  -1.175  0.00  0.00    +0.007 A 
ATOM     33  C   UNL     1       0.116  -1.819  -1.163  0.00  0.00    +0.048 A 
ATOM     34  C   UNL     1      -0.124  -2.498   0.021  0.00  0.00    +0.141 A 
ATOM     35  C   UNL     1       0.497  -2.082   1.196  0.00  0.00    +0.076 A 
ATOM     36  C   UNL     1       1.356  -0.992   1.175  0.00  0.00    +0.030 A 
BRANCH  34  37
ATOM     37  O   UNL     1      -0.963  -3.568   0.035  0.00  0.00    -0.493 OA
ATOM     38  C   UNL     1      -1.564  -3.937  -1.208  0.00  0.00    +0.277 C 
ENDBRANCH  34  37
ENDBRANCH  26  35
ENDBRANCH   1  27
TORSDOF 6
