REMARK  Name = ZINC63572833
REMARK  7 active torsions:
REMARK  status: ('A' for Active; 'I' for Inactive)
REMARK    1  A    between atoms: C_1  and  C_2
REMARK    2  A    between atoms: C_2  and  O_3
REMARK    3  A    between atoms: O_3  and  C_4
REMARK    4  A    between atoms: C_4  and  C_6
REMARK    5  A    between atoms: C_10  and  N_12
REMARK    6  A    between atoms: C_28  and  C_30
REMARK    7  A    between atoms: C_33  and  C_36
REMARK                            x       y       z     vdW  Elec       q    Type
REMARK                         _______ _______ _______ _____ _____    ______ ____
ROOT
ATOM      1  N   UNL     1      -5.008  -5.280  -0.301  0.00  0.00    -0.269 N 
ATOM      2  C   UNL     1      -6.097  -6.018  -0.007  0.00  0.00    +0.307 C 
ATOM      3  O   UNL     1      -7.165  -5.472   0.193  0.00  0.00    -0.252 OA
ATOM      4  N   UNL     1      -6.003  -7.360   0.066  0.00  0.00    -0.276 N 
ATOM      5  C   UNL     1      -4.687  -8.001  -0.029  0.00  0.00    +0.114 C 
ATOM      6  C   UNL     1      -4.437  -8.848   1.232  0.00  0.00    +0.052 C 
ATOM      7  C   UNL     1      -5.703  -9.629   1.487  0.00  0.00    -0.035 C 
ATOM      8  C   UNL     1      -5.910 -10.925   1.683  0.00  0.00    +0.001 A 
ATOM      9  C   UNL     1      -4.978 -12.054   1.832  0.00  0.00    +0.030 A 
ATOM     10  C   UNL     1      -5.543 -13.280   2.004  0.00  0.00    +0.042 A 
ATOM     11  C   UNL     1      -6.926 -13.491   2.041  0.00  0.00    +0.022 A 
ATOM     12  C   UNL     1      -7.855 -12.509   1.920  0.00  0.00    +0.027 A 
ATOM     13  C   UNL     1      -7.382 -11.176   1.744  0.00  0.00    +0.043 A 
ATOM     14  N   UNL     1      -8.039 -10.060   1.627  0.00  0.00    -0.375 N 
ATOM     15  C   UNL     1      -7.073  -8.964   1.540  0.00  0.00    +0.131 C 
ATOM     16  C   UNL     1      -7.221  -8.167   0.246  0.00  0.00    +0.134 C 
ATOM     17 CL   UNL     1      -4.495 -14.652   2.186  0.00  0.00    -0.084 Cl
ATOM     18  H   UNL     1      -4.176  -5.718  -0.540  0.00  0.00    +0.156 HD
ATOM     19  H   UNL     1      -9.004  -9.969   1.601  0.00  0.00    +0.160 HD
ENDROOT
BRANCH  16  20
ATOM     20  C   UNL     1      -7.382  -9.113  -0.916  0.00  0.00    -0.025 A 
ATOM     21  C   UNL     1      -8.416  -8.932  -1.816  0.00  0.00    +0.006 A 
ATOM     22  C   UNL     1      -8.564  -9.800  -2.881  0.00  0.00    +0.004 A 
ATOM     23  C   UNL     1      -7.679 -10.848  -3.047  0.00  0.00    -0.050 A 
ATOM     24  C   UNL     1      -6.644 -11.029  -2.148  0.00  0.00    +0.004 A 
ATOM     25  C   UNL     1      -6.494 -10.158  -1.085  0.00  0.00    +0.006 A 
ATOM     26  C   UNL     1      -7.841 -11.795  -4.208  0.00  0.00    +0.044 C 
ENDBRANCH  16  20
BRANCH   1  31
ATOM     27  C   UNL     1      -4.039  -1.752   0.154  0.00  0.00    +0.061 A 
ATOM     28  C   UNL     1      -5.233  -1.111  -0.185  0.00  0.00    +0.015 A 
ATOM     29  C   UNL     1      -6.333  -1.856  -0.558  0.00  0.00    +0.003 A 
ATOM     30  C   UNL     1      -6.260  -3.236  -0.596  0.00  0.00    +0.023 A 
ATOM     31  C   UNL     1      -5.077  -3.883  -0.260  0.00  0.00    +0.036 A 
ATOM     32  C   UNL     1      -3.964  -3.145   0.110  0.00  0.00    +0.038 A 
BRANCH  27  33
ATOM     33  C   UNL     1      -2.859  -0.958   0.552  0.00  0.00    +0.339 C 
ATOM     34  O   UNL     1      -1.820  -1.517   0.842  0.00  0.00    -0.245 OA
BRANCH  33  35
ATOM     35  O   UNL     1      -2.935   0.386   0.594  0.00  0.00    -0.461 OA
BRANCH  35  37
ATOM     36  C   UNL     1      -2.032   2.595   0.976  0.00  0.00    +0.048 C 
ATOM     37  C   UNL     1      -1.755   1.090   0.988  0.00  0.00    +0.229 C 
ENDBRANCH  35  37
ENDBRANCH  33  35
ENDBRANCH  27  33
ENDBRANCH   1  31
TORSDOF 5
