REMARK  Name = ZINC20685676
REMARK  11 active torsions:
REMARK  status: ('A' for Active; 'I' for Inactive)
REMARK    1  A    between atoms: C_1  and  C_2
REMARK    2  A    between atoms: C_2  and  N_3
REMARK    3  A    between atoms: C_14  and  C_16
REMARK    4  A    between atoms: C_27  and  C_32
REMARK    5  A    between atoms: N_34  and  C_35
REMARK    6  A    between atoms: C_35  and  C_36
REMARK    7  A    between atoms: C_36  and  N_37
REMARK    8  A    between atoms: N_37  and  C_38
REMARK    9  A    between atoms: N_37  and  C_40
REMARK   10  A    between atoms: C_38  and  C_39
REMARK   11  A    between atoms: C_40  and  C_41
REMARK                            x       y       z     vdW  Elec       q    Type
REMARK                         _______ _______ _______ _____ _____    ______ ____
ROOT
ATOM      1  C   UNL     1      -1.744   1.076  -0.130  0.00  0.00    +0.105 C 
ATOM      2  C   UNL     1      -1.784   0.780  -1.618  0.00  0.00    +0.029 C 
ATOM      3  C   UNL     1      -1.490   1.944  -2.573  0.00  0.00    +0.033 C 
ATOM      4  C   UNL     1      -0.889   1.211  -3.775  0.00  0.00    -0.030 C 
ATOM      5  C   UNL     1      -0.342   0.058  -3.378  0.00  0.00    -0.023 C 
ATOM      6  C   UNL     1      -0.498  -0.058  -1.906  0.00  0.00    +0.049 C 
ATOM      7  C   UNL     1      -0.650  -1.368  -1.236  0.00  0.00    -0.019 A 
ATOM      8  C   UNL     1      -0.142  -2.528  -1.766  0.00  0.00    +0.019 A 
ATOM      9  C   UNL     1      -0.282  -3.736  -1.078  0.00  0.00    +0.037 A 
ATOM     10  C   UNL     1      -0.944  -3.758   0.153  0.00  0.00    +0.015 A 
ATOM     11  C   UNL     1      -1.459  -2.597   0.678  0.00  0.00    +0.024 A 
ATOM     12  C   UNL     1      -1.327  -1.391  -0.007  0.00  0.00    +0.031 A 
ATOM     13  N   UNL     1      -1.875  -0.233   0.545  0.00  0.00    -0.336 N 
ATOM     14  H   UNL     1      -2.413  -0.308   1.501  0.00  0.00    +0.147 HD
ENDROOT
BRANCH   1  26
ATOM     15  N   UNL     1       3.069   3.722   1.186  0.00  0.00    -0.340 N 
ATOM     16  C   UNL     1       2.712   5.045   0.995  0.00  0.00    +0.050 A 
ATOM     17  C   UNL     1       3.420   6.235   1.135  0.00  0.00    +0.026 A 
ATOM     18  C   UNL     1       2.803   7.439   0.873  0.00  0.00    +0.002 A 
ATOM     19  C   UNL     1       1.478   7.479   0.466  0.00  0.00    +0.001 A 
ATOM     20  C   UNL     1       0.761   6.310   0.321  0.00  0.00    +0.010 A 
ATOM     21  C   UNL     1       1.372   5.086   0.583  0.00  0.00    +0.008 A 
ATOM     22  C   UNL     1       0.908   3.688   0.529  0.00  0.00    +0.008 A 
ATOM     23  C   UNL     1       1.998   2.892   0.911  0.00  0.00    +0.050 A 
ATOM     24  C   UNL     1       1.850   1.509   0.953  0.00  0.00    +0.027 A 
ATOM     25  C   UNL     1       0.642   0.934   0.620  0.00  0.00    +0.007 A 
ATOM     26  C   UNL     1      -0.432   1.722   0.237  0.00  0.00    -0.026 A 
ATOM     27  C   UNL     1      -0.307   3.094   0.196  0.00  0.00    +0.016 A 
BRANCH  15  29
ATOM     28  C   UNL     1       5.274   3.022   0.391  0.00  0.00    +0.027 C 
ATOM     29  C   UNL     1       4.393   3.266   1.618  0.00  0.00    +0.119 C 
ENDBRANCH  15  29
ENDBRANCH   1  26
BRANCH   9  30
ATOM     30  C   UNL     1       0.264  -4.982  -1.648  0.00  0.00    +0.244 C 
ATOM     31  O   UNL     1       0.840  -4.959  -2.719  0.00  0.00    -0.270 OA
ATOM     32  N   UNL     1       0.127  -6.145  -0.982  0.00  0.00    -0.313 N 
ATOM     33  H   UNL     1      -0.394  -6.166  -0.013  0.00  0.00    +0.149 HD
BRANCH  32  34
ATOM     34  C   UNL     1       0.669  -7.383  -1.548  0.00  0.00    +0.086 C 
BRANCH  34  35
ATOM     35  C   UNL     1       0.379  -8.548  -0.600  0.00  0.00    -0.060 C 
BRANCH  35  36
ATOM     36  N   UNL     1       0.924  -9.788  -1.167  0.00  0.00    +0.380 N 
ATOM     37  H   UNL     1       1.979  -9.609  -1.423  0.00  0.00    -0.082 HD
BRANCH  36  38
ATOM     38  C   UNL     1       0.877 -10.881  -0.187  0.00  0.00    -0.082 C 
ATOM     39  C   UNL     1       2.001 -10.698   0.835  0.00  0.00    -0.017 C 
ENDBRANCH  36  38
BRANCH  36  40
ATOM     40  C   UNL     1       0.217 -10.157  -2.401  0.00  0.00    -0.082 C 
ATOM     41  C   UNL     1       1.036 -11.199  -3.166  0.00  0.00    -0.017 C 
ENDBRANCH  36  40
ENDBRANCH  35  36
ENDBRANCH  34  35
ENDBRANCH  32  34
ENDBRANCH   9  30
TORSDOF 8
