REMARK  Name = ZINC63197119
REMARK  6 active torsions:
REMARK  status: ('A' for Active; 'I' for Inactive)
REMARK    1  A    between atoms: C_4  and  C_31
REMARK    2  A    between atoms: C_5  and  C_7
REMARK    3  A    between atoms: N_9  and  C_10
REMARK    4  A    between atoms: C_17  and  S_20
REMARK    5  A    between atoms: S_20  and  C_21
REMARK    6  A    between atoms: C_21  and  C_22
REMARK                            x       y       z     vdW  Elec       q    Type
REMARK                         _______ _______ _______ _____ _____    ______ ____
ROOT
ATOM      1  C   UNL     1       0.095  -4.223   0.074  0.00  0.00    +0.035 A 
ATOM      2  C   UNL     1       1.319  -4.874   0.154  0.00  0.00    +0.025 A 
ATOM      3  C   UNL     1       1.388  -6.242   0.263  0.00  0.00    +0.026 A 
ATOM      4  C   UNL     1       0.225  -7.032   0.296  0.00  0.00    +0.042 A 
ATOM      5  C   UNL     1      -0.994  -6.350   0.214  0.00  0.00    +0.033 A 
ATOM      6  C   UNL     1      -1.071  -4.980   0.110  0.00  0.00    +0.040 A 
ATOM      7  S   UNL     1      -2.240  -7.617   0.282  0.00  0.00    -0.090 S 
ATOM      8  C   UNL     1      -1.127  -9.072   0.423  0.00  0.00    +0.193 C 
ATOM      9  N   UNL     1       0.192  -8.424   0.405  0.00  0.00    -0.323 N 
ATOM     10  H   UNL     1       1.008  -8.943   0.465  0.00  0.00    +0.148 HD
ENDROOT
BRANCH   1  13
ATOM     11  C   UNL     1       1.064  -2.151  -0.584  0.00  0.00    +0.249 C 
ATOM     12  O   UNL     1       1.995  -2.756  -1.080  0.00  0.00    -0.270 OA
ATOM     13  N   UNL     1       0.036  -2.828  -0.036  0.00  0.00    -0.281 N 
ATOM     14  H   UNL     1      -0.746  -2.350   0.281  0.00  0.00    +0.155 HD
BRANCH  11  19
ATOM     15  C   UNL     1       1.099   1.409   0.620  0.00  0.00    +0.001 A 
ATOM     16  C   UNL     1       1.053   2.108  -0.574  0.00  0.00    +0.001 A 
ATOM     17  C   UNL     1       1.010   1.432  -1.779  0.00  0.00    +0.016 A 
ATOM     18  C   UNL     1       1.014   0.039  -1.796  0.00  0.00    +0.075 A 
ATOM     19  C   UNL     1       1.061  -0.671  -0.581  0.00  0.00    +0.051 A 
ATOM     20  C   UNL     1       1.103   0.027   0.622  0.00  0.00    +0.014 A 
BRANCH  18  21
ATOM     21  C   UNL     1       0.968  -0.688  -3.081  0.00  0.00    +0.387 C 
ATOM     22  O   UNL     1       0.837  -0.071  -4.128  0.00  0.00    -0.241 OA
ATOM     23  O   UNL     1       1.060  -1.907  -3.097  0.00  0.00    -0.241 OA
ENDBRANCH  18  21
ENDBRANCH  11  19
ENDBRANCH   1  13
BRANCH   8  24
ATOM     24  S   UNL     1      -1.327 -10.186  -0.994  0.00  0.00    -0.124 S 
BRANCH  24  25
ATOM     25  C   UNL     1      -0.941  -9.146  -2.429  0.00  0.00    +0.118 C 
BRANCH  25  26
ATOM     26  C   UNL     1      -1.073  -9.973  -3.709  0.00  0.00    +0.184 C 
ATOM     27  N   UNL     1      -2.422 -10.545  -3.803  0.00  0.00    -0.363 N 
ATOM     28  C   UNL     1      -2.298 -11.840  -3.819  0.00  0.00    +0.060 A 
ATOM     29  C   UNL     1      -3.272 -12.937  -3.899  0.00  0.00    +0.027 A 
ATOM     30  C   UNL     1      -2.839 -14.213  -3.896  0.00  0.00    +0.002 A 
ATOM     31  C   UNL     1      -1.476 -14.551  -3.818  0.00  0.00    +0.002 A 
ATOM     32  C   UNL     1      -0.501 -13.624  -3.740  0.00  0.00    +0.027 A 
ATOM     33  C   UNL     1      -0.855 -12.198  -3.737  0.00  0.00    +0.060 A 
ATOM     34  N   UNL     1      -0.144 -11.110  -3.673  0.00  0.00    -0.363 N 
ATOM     35  H   UNL     1      -3.254 -10.048  -3.844  0.00  0.00    +0.162 HD
ATOM     36  H   UNL     1       0.823 -11.059  -3.613  0.00  0.00    +0.162 HD
ENDBRANCH  25  26
ENDBRANCH  24  25
ENDBRANCH   8  24
TORSDOF 6
