REMARK  Name = ZINC02127493
REMARK  6 active torsions:
REMARK  status: ('A' for Active; 'I' for Inactive)
REMARK    1  A    between atoms: C_1  and  C_2
REMARK    2  A    between atoms: C_7  and  C_8
REMARK    3  A    between atoms: C_17  and  C_19
REMARK    4  A    between atoms: C_19  and  C_20
REMARK    5  A    between atoms: N_25  and  C_28
REMARK    6  A    between atoms: C_28  and  C_29
REMARK                            x       y       z     vdW  Elec       q    Type
REMARK                         _______ _______ _______ _____ _____    ______ ____
ROOT
ATOM      1  C   UNL     1       1.710   7.017   0.026  0.00  0.00    +0.044 C 
ATOM      2  C   UNL     1       0.862   5.772   0.027  0.00  0.00    -0.046 A 
ATOM      3  C   UNL     1      -0.517   5.879   0.041  0.00  0.00    +0.004 A 
ATOM      4  C   UNL     1      -1.296   4.735   0.041  0.00  0.00    +0.005 A 
ATOM      5  C   UNL     1      -0.699   3.495   0.028  0.00  0.00    -0.027 A 
ATOM      6  C   UNL     1       0.687   3.375   0.014  0.00  0.00    +0.039 A 
ATOM      7  C   UNL     1       1.464   4.531   0.013  0.00  0.00    -0.026 A 
ATOM      8  C   UNL     1       2.967   4.426  -0.002  0.00  0.00    +0.046 C 
ATOM      9  N   UNL     1       1.055   2.028   0.003  0.00  0.00    -0.286 N 
ATOM     10  C   UNL     1      -0.014   1.209   0.009  0.00  0.00    +0.211 C 
ATOM     11  O   UNL     1       0.002  -0.004   0.002  0.00  0.00    -0.277 OA
ATOM     12  C   UNL     1      -1.233   2.090   0.018  0.00  0.00    +0.050 C 
ATOM     13  C   UNL     1      -2.114   1.818   1.244  0.00  0.00    +0.088 C 
ATOM     14  C   UNL     1      -3.568   2.007   0.729  0.00  0.00    +0.073 C 
ATOM     15  C   UNL     1      -3.416   2.383  -0.760  0.00  0.00    -0.049 C 
ATOM     16  C   UNL     1      -4.175   0.627   0.836  0.00  0.00    +0.224 C 
ATOM     17  O   UNL     1      -5.310   0.334   0.527  0.00  0.00    -0.275 OA
ATOM     18  N   UNL     1      -3.263  -0.223   1.324  0.00  0.00    -0.237 N 
ATOM     19  C   UNL     1      -2.074   0.330   1.588  0.00  0.00    +0.225 C 
ATOM     20  O   UNL     1      -1.113  -0.257   2.036  0.00  0.00    -0.275 OA
ATOM     21  H   UNL     1       1.974   1.718  -0.008  0.00  0.00    +0.155 HD
ATOM     22  N   UNL     1      -2.098   1.859  -1.125  0.00  0.00    +0.394 N 
ATOM     23  H   UNL     1      -2.159   0.854  -1.327  0.00  0.00    -0.083 HD
ATOM     24  H   UNL     1      -1.735   2.351  -1.950  0.00  0.00    -0.083 HD
ENDROOT
BRANCH  15  25
ATOM     25  C   UNL     1      -4.524   1.732  -1.590  0.00  0.00    +0.080 C 
BRANCH  25  26
ATOM     26  C   UNL     1      -4.385   2.149  -3.031  0.00  0.00    +0.209 C 
ATOM     27  O   UNL     1      -3.487   2.894  -3.362  0.00  0.00    -0.276 OA
ATOM     28  N   UNL     1      -5.258   1.695  -3.952  0.00  0.00    -0.329 N 
ATOM     29  H   UNL     1      -5.976   1.099  -3.687  0.00  0.00    +0.145 HD
ATOM     30  H   UNL     1      -5.168   1.964  -4.880  0.00  0.00    +0.145 HD
ENDBRANCH  25  26
ENDBRANCH  15  25
BRANCH  18  31
ATOM     31  C   UNL     1      -3.545  -1.642   1.551  0.00  0.00    +0.151 C 
BRANCH  31  32
ATOM     32  C   UNL     1      -3.212  -2.426   0.308  0.00  0.00    -0.030 A 
ATOM     33  C   UNL     1      -4.178  -2.632  -0.659  0.00  0.00    +0.005 A 
ATOM     34  C   UNL     1      -3.870  -3.346  -1.802  0.00  0.00    +0.000 A 
ATOM     35  C   UNL     1      -2.600  -3.864  -1.973  0.00  0.00    +0.000 A 
ATOM     36  C   UNL     1      -1.635  -3.662  -1.003  0.00  0.00    +0.000 A 
ATOM     37  C   UNL     1      -1.941  -2.943   0.137  0.00  0.00    +0.005 A 
ENDBRANCH  31  32
ENDBRANCH  18  31
TORSDOF 4
