REMARK  Name = ZINC65382669
REMARK  6 active torsions:
REMARK  status: ('A' for Active; 'I' for Inactive)
REMARK    1  A    between atoms: C_4  and  C_7
REMARK    2  A    between atoms: C_9  and  C_25
REMARK    3  A    between atoms: N_11  and  C_14
REMARK    4  A    between atoms: C_14  and  C_15
REMARK    5  A    between atoms: C_18  and  S_21
REMARK    6  A    between atoms: S_21  and  N_24
REMARK                            x       y       z     vdW  Elec       q    Type
REMARK                         _______ _______ _______ _____ _____    ______ ____
ROOT
ATOM      1  C   UNL     1       3.693  -0.671   0.182  0.00  0.00    +0.110 C 
ATOM      2  C   UNL     1       3.947  -1.318   1.560  0.00  0.00    +0.144 C 
ATOM      3  N   UNL     1       4.596  -2.616   1.279  0.00  0.00    -0.274 NA
ATOM      4  C   UNL     1       4.740  -2.716  -0.190  0.00  0.00    +0.170 C 
ATOM      5  N   UNL     1       3.687  -1.829  -0.752  0.00  0.00    -0.295 NA
ATOM      6  H   UNL     1       2.789  -2.289  -0.751  0.00  0.00    +0.124 HD
ENDROOT
BRANCH   2   7
ATOM      7  C   UNL     1       4.859  -0.446   2.385  0.00  0.00    +0.104 A 
ATOM      8  N   UNL     1       6.045   0.003   2.005  0.00  0.00    -0.349 N 
ATOM      9  C   UNL     1       6.555   0.748   3.009  0.00  0.00    +0.101 A 
ATOM     10  C   UNL     1       5.654   0.743   4.011  0.00  0.00    +0.101 A 
ATOM     11  N   UNL     1       4.603   0.000   3.604  0.00  0.00    -0.349 N 
ATOM     12  H   UNL     1       3.800  -0.178   4.117  0.00  0.00    +0.166 HD
ATOM     13  H   UNL     1       6.473  -0.172   1.153  0.00  0.00    +0.166 HD
ENDBRANCH   2   7
BRANCH   1  17
ATOM     14  C   UNL     1      -0.084   1.324   0.128  0.00  0.00    +0.000 A 
ATOM     15  C   UNL     1       1.082   2.055   0.265  0.00  0.00    +0.000 A 
ATOM     16  C   UNL     1       2.304   1.409   0.283  0.00  0.00    +0.005 A 
ATOM     17  C   UNL     1       2.360   0.033   0.164  0.00  0.00    -0.029 A 
ATOM     18  C   UNL     1       1.195  -0.698   0.028  0.00  0.00    +0.005 A 
ATOM     19  C   UNL     1      -0.027  -0.052   0.009  0.00  0.00    +0.000 A 
ENDBRANCH   1  17
BRANCH   3  20
ATOM     20  C   UNL     1       5.904  -2.706   1.943  0.00  0.00    +0.121 C 
BRANCH  20  21
ATOM     21  C   UNL     1       6.369  -4.139   1.944  0.00  0.00    -0.033 A 
ATOM     22  C   UNL     1       6.033  -4.975   2.992  0.00  0.00    +0.007 A 
ATOM     23  C   UNL     1       6.460  -6.290   2.993  0.00  0.00    +0.029 A 
ATOM     24  C   UNL     1       7.223  -6.769   1.945  0.00  0.00    +0.105 A 
ATOM     25  C   UNL     1       7.559  -5.933   0.896  0.00  0.00    +0.029 A 
ATOM     26  C   UNL     1       7.129  -4.620   0.893  0.00  0.00    +0.007 A 
BRANCH  24  27
ATOM     27  S   UNL     1       7.769  -8.444   1.946  0.00  0.00    +0.056 S 
ATOM     28  O   UNL     1       8.925  -8.496   1.122  0.00  0.00    -0.153 OA
ATOM     29  O   UNL     1       7.781  -8.866   3.303  0.00  0.00    -0.153 OA
BRANCH  27  30
ATOM     30  N   UNL     1       6.603  -9.339   1.183  0.00  0.00    -0.204 NA
ATOM     31  H   UNL     1       6.849 -10.141   0.696  0.00  0.00    +0.144 HD
ATOM     32  H   UNL     1       5.675  -9.062   1.223  0.00  0.00    +0.144 HD
ENDBRANCH  27  30
ENDBRANCH  24  27
ENDBRANCH  20  21
ENDBRANCH   3  20
TORSDOF 6
