REMARK  Name = ZINC43597206
REMARK  6 active torsions:
REMARK  status: ('A' for Active; 'I' for Inactive)
REMARK    1  A    between atoms: C_1  and  C_2
REMARK    2  A    between atoms: C_2  and  C_4
REMARK    3  A    between atoms: C_2  and  N_11
REMARK    4  A    between atoms: C_4  and  N_5
REMARK    5  A    between atoms: N_11  and  C_12
REMARK    6  A    between atoms: C_15  and  N_19
REMARK                            x       y       z     vdW  Elec       q    Type
REMARK                         _______ _______ _______ _____ _____    ______ ____
ROOT
ATOM      1  N   UNL     1       0.715  -0.404  -1.122  0.00  0.00    -0.342 N 
ATOM      2  H   UNL     1       0.231  -0.489  -1.958  0.00  0.00    +0.146 HD
ENDROOT
BRANCH   1   3
ATOM      3  C   UNL     1       2.094  -0.643  -1.083  0.00  0.00    +0.042 A 
ATOM      4  C   UNL     1       2.785  -0.528   0.115  0.00  0.00    +0.026 A 
ATOM      5  C   UNL     1       4.146  -0.762   0.153  0.00  0.00    +0.024 A 
ATOM      6  C   UNL     1       4.823  -1.115  -1.007  0.00  0.00    +0.026 A 
ATOM      7  C   UNL     1       4.132  -1.231  -2.206  0.00  0.00    +0.039 A 
ATOM      8  C   UNL     1       2.770  -1.001  -2.243  0.00  0.00    +0.040 A 
ATOM      9 BR   UNL     1       1.827  -1.167  -3.874  0.00  0.00    -0.048 Br
BRANCH   6  10
ATOM     10  N   UNL     1       6.202  -1.353  -0.968  0.00  0.00    -0.358 N 
ATOM     11  H   UNL     1       6.684  -1.272  -0.130  0.00  0.00    +0.142 HD
ATOM     12  H   UNL     1       6.675  -1.599  -1.778  0.00  0.00    +0.142 HD
ENDBRANCH   6  10
ENDBRANCH   1   3
BRANCH   1  14
ATOM     13  C   UNL     1       0.119   1.484   0.314  0.00  0.00    +0.026 C 
ATOM     14  C   UNL     1       0.002  -0.027   0.101  0.00  0.00    +0.051 C 
BRANCH  14  15
ATOM     15  C   UNL     1      -1.473  -0.410  -0.029  0.00  0.00    -0.057 C 
BRANCH  15  16
ATOM     16  N   UNL     1      -1.582  -1.843  -0.336  0.00  0.00    +0.381 N 
ATOM     17  C   UNL     1      -2.984  -2.179  -0.609  0.00  0.00    -0.079 C 
ATOM     18  C   UNL     1      -3.091  -3.652  -1.008  0.00  0.00    -0.019 C 
ATOM     19  C   UNL     1      -2.571  -4.524   0.138  0.00  0.00    -0.004 C 
ATOM     20  C   UNL     1      -1.131  -4.115   0.465  0.00  0.00    -0.019 C 
ATOM     21  C   UNL     1      -1.097  -2.624   0.809  0.00  0.00    -0.079 C 
ATOM     22  H   UNL     1      -1.022  -2.055  -1.148  0.00  0.00    -0.082 HD
ENDBRANCH  15  16
ENDBRANCH  14  15
ENDBRANCH   1  14
TORSDOF 5
