REMARK  Name = ZINC39657194
REMARK  7 active torsions:
REMARK  status: ('A' for Active; 'I' for Inactive)
REMARK    1  A    between atoms: C_1  and  C_2
REMARK    2  A    between atoms: C_7  and  C_8
REMARK    3  A    between atoms: C_8  and  C_9
REMARK    4  A    between atoms: C_13  and  C_22
REMARK    5  A    between atoms: N_24  and  C_25
REMARK    6  A    between atoms: C_25  and  C_27
REMARK    7  A    between atoms: C_25  and  C_28
REMARK                            x       y       z     vdW  Elec       q    Type
REMARK                         _______ _______ _______ _____ _____    ______ ____
ROOT
ATOM      1  C   UNL     1      -1.088   0.277   2.995  0.00  0.00    +0.220 C 
ATOM      2  O   UNL     1      -1.940  -0.130   2.234  0.00  0.00    -0.275 OA
ATOM      3  N   UNL     1      -1.443   0.979   4.089  0.00  0.00    -0.300 N 
ATOM      4  C   UNL     1      -0.554   1.560   5.123  0.00  0.00    +0.121 C 
ATOM      5  C   UNL     1      -1.190   2.928   5.460  0.00  0.00    +0.100 C 
ATOM      6  C   UNL     1      -2.670   2.779   5.071  0.00  0.00    -0.004 C 
ATOM      7  C   UNL     1      -2.810   1.350   4.527  0.00  0.00    +0.115 C 
ATOM      8  C   UNL     1      -3.035   3.788   3.986  0.00  0.00    -0.010 C 
ATOM      9  C   UNL     1      -4.525   3.659   3.657  0.00  0.00    -0.082 C 
ATOM     10  N   UNL     1      -5.318   3.904   4.867  0.00  0.00    +0.379 N 
ATOM     11  C   UNL     1      -5.029   2.874   5.873  0.00  0.00    -0.082 C 
ATOM     12  C   UNL     1      -3.560   2.969   6.295  0.00  0.00    -0.010 C 
ATOM     13  H   UNL     1      -5.087   4.812   5.242  0.00  0.00    -0.086 HD
ATOM     14  H   UNL     1      -6.300   3.879   4.635  0.00  0.00    -0.086 HD
ENDROOT
BRANCH   5  15
ATOM     15  C   UNL     1      -0.540   4.022   4.653  0.00  0.00    +0.219 C 
ATOM     16  O   UNL     1      -0.094   3.779   3.551  0.00  0.00    -0.275 OA
ATOM     17  N   UNL     1      -0.454   5.270   5.155  0.00  0.00    -0.308 N 
ATOM     18  H   UNL     1      -0.810   5.463   6.036  0.00  0.00    +0.149 HD
BRANCH  17  19
ATOM     19  C   UNL     1       0.178   6.333   4.370  0.00  0.00    +0.100 C 
ATOM     20  C   UNL     1      -0.852   6.945   3.418  0.00  0.00    +0.033 C 
BRANCH  19  21
ATOM     21  C   UNL     1       0.701   7.399   5.298  0.00  0.00    -0.027 A 
ATOM     22  C   UNL     1      -0.038   7.776   6.404  0.00  0.00    +0.006 A 
ATOM     23  C   UNL     1       0.441   8.754   7.255  0.00  0.00    +0.015 A 
ATOM     24  C   UNL     1       1.660   9.355   7.001  0.00  0.00    +0.018 A 
ATOM     25  C   UNL     1       2.399   8.978   5.894  0.00  0.00    +0.015 A 
ATOM     26  C   UNL     1       1.922   7.997   5.046  0.00  0.00    +0.006 A 
ATOM     27 BR   UNL     1       2.315  10.694   8.165  0.00  0.00    -0.050 Br
ENDBRANCH  19  21
ENDBRANCH  17  19
ENDBRANCH   5  15
BRANCH   1  28
ATOM     28  C   UNL     1       0.367  -0.001   2.717  0.00  0.00    +0.131 C 
BRANCH  28  35
ATOM     29  C   UNL     1       0.424   1.355   0.166  0.00  0.00    +0.044 C 
ATOM     30  C   UNL     1       0.519  -0.148   0.223  0.00  0.00    -0.047 A 
ATOM     31  C   UNL     1       0.640  -0.878  -0.945  0.00  0.00    +0.003 A 
ATOM     32  C   UNL     1       0.726  -2.256  -0.893  0.00  0.00    +0.000 A 
ATOM     33  C   UNL     1       0.694  -2.905   0.327  0.00  0.00    +0.000 A 
ATOM     34  C   UNL     1       0.574  -2.176   1.495  0.00  0.00    +0.004 A 
ATOM     35  C   UNL     1       0.491  -0.797   1.443  0.00  0.00    -0.036 A 
ENDBRANCH  28  35
ENDBRANCH   1  28
TORSDOF 5
