REMARK  Name = ZINC08789705
REMARK  11 active torsions:
REMARK  status: ('A' for Active; 'I' for Inactive)
REMARK    1  A    between atoms: C_1  and  N_64
REMARK    2  A    between atoms: C_9  and  O_35
REMARK    3  A    between atoms: C_14  and  O_33
REMARK    4  A    between atoms: C_23  and  O_32
REMARK    5  A    between atoms: C_24  and  S_28
REMARK    6  A    between atoms: C_26  and  O_27
REMARK    7  A    between atoms: S_28  and  C_29
REMARK    8  A    between atoms: C_29  and  C_30
REMARK    9  A    between atoms: C_30  and  O_31
REMARK   10  A    between atoms: O_33  and  C_34
REMARK   11  A    between atoms: O_35  and  C_36
REMARK                            x       y       z     vdW  Elec       q    Type
REMARK                         _______ _______ _______ _____ _____    ______ ____
ROOT
ATOM      1  C   UNL     1      -2.243  -0.139  -0.129  0.00  0.00    -0.096 C 
ATOM      2  C   UNL     1      -0.176   0.144  -1.363  0.00  0.00    -0.078 C 
ATOM      3  C   UNL     1       1.273  -0.335  -1.480  0.00  0.00    -0.002 C 
ATOM      4  C   UNL     1       2.030  -0.082  -0.203  0.00  0.00    +0.050 C 
ATOM      5  C   UNL     1       2.179   1.366   0.155  0.00  0.00    +0.012 A 
ATOM      6  C   UNL     1       1.180   2.144   0.711  0.00  0.00    -0.041 A 
ATOM      7  C   UNL     1       1.518   3.467   0.923  0.00  0.00    +0.007 A 
ATOM      8  C   UNL     1       2.809   3.905   0.672  0.00  0.00    +0.050 A 
ATOM      9  C   UNL     1       3.838   3.066   0.249  0.00  0.00    +0.162 A 
ATOM     10  C   UNL     1       3.507   1.721   0.029  0.00  0.00    +0.167 A 
ATOM     11  O   UNL     1       4.283   0.623  -0.180  0.00  0.00    -0.480 OA
ATOM     12  C   UNL     1       3.481  -0.570  -0.246  0.00  0.00    +0.225 C 
ATOM     13  C   UNL     1       3.727  -1.457   0.993  0.00  0.00    +0.153 C 
ATOM     14  C   UNL     1       3.355  -0.606   2.208  0.00  0.00    +0.013 C 
ATOM     15  C   UNL     1       2.090  -0.178   2.233  0.00  0.00    -0.017 C 
ATOM     16  C   UNL     1       1.270  -0.624   1.027  0.00  0.00    +0.019 C 
ATOM     17  C   UNL     1      -0.111  -0.021   1.040  0.00  0.00    -0.049 C 
ATOM     18  C   UNL     1      -0.135   1.511   1.017  0.00  0.00    +0.021 C 
ATOM     19  C   UNL     1       1.359  -2.118   0.966  0.00  0.00    +0.013 A 
ATOM     20  C   UNL     1       2.689  -2.567   0.941  0.00  0.00    +0.041 A 
ATOM     21  C   UNL     1       2.970  -3.902   0.880  0.00  0.00    +0.137 A 
ATOM     22  C   UNL     1       1.912  -4.818   0.844  0.00  0.00    +0.053 A 
ATOM     23  C   UNL     1       0.598  -4.371   0.870  0.00  0.00    +0.064 A 
ATOM     24  C   UNL     1       0.321  -3.007   0.932  0.00  0.00    +0.122 A 
ATOM     25  N   UNL     1      -0.798  -0.488  -0.187  0.00  0.00    +0.381 N 
ATOM     26  H   UNL     1      -0.702  -1.507  -0.260  0.00  0.00    -0.082 HD
ENDROOT
BRANCH  24  27
ATOM     27  O   UNL     1      -0.965  -2.567   0.957  0.00  0.00    -0.506 OA
ATOM     28  H   UNL     1      -1.341  -2.401   0.082  0.00  0.00    +0.292 HD
ENDBRANCH  24  27
BRANCH  21  29
ATOM     29  O   UNL     1       4.260  -4.336   0.854  0.00  0.00    -0.505 OA
ATOM     30  H   UNL     1       4.628  -4.421  -0.036  0.00  0.00    +0.292 HD
ENDBRANCH  21  29
BRANCH  13  31
ATOM     31  O   UNL     1       5.063  -1.960   1.048  0.00  0.00    -0.364 OA
ATOM     32  C   UNL     1       6.058  -0.949   1.219  0.00  0.00    +0.195 C 
ENDBRANCH  13  31
BRANCH   9  33
ATOM     33  O   UNL     1       5.102   3.529   0.058  0.00  0.00    -0.491 OA
ATOM     34  C   UNL     1       5.330   4.917   0.311  0.00  0.00    +0.277 C 
ENDBRANCH   9  33
BRANCH  22  35
ATOM     35  S   UNL     1       2.249  -6.546   0.765  0.00  0.00    -0.119 S 
BRANCH  35  36
ATOM     36  C   UNL     1       0.605  -7.313   0.740  0.00  0.00    +0.102 C 
BRANCH  36  37
ATOM     37  C   UNL     1       0.754  -8.835   0.671  0.00  0.00    +0.167 C 
BRANCH  37  38
ATOM     38  O   UNL     1      -0.541  -9.439   0.651  0.00  0.00    -0.394 OA
ATOM     39  H   UNL     1      -0.523 -10.405   0.608  0.00  0.00    +0.209 HD
ENDBRANCH  37  38
ENDBRANCH  36  37
ENDBRANCH  35  36
ENDBRANCH  22  35
TORSDOF 8
