REMARK  Name = ZINC39946345
REMARK  7 active torsions:
REMARK  status: ('A' for Active; 'I' for Inactive)
REMARK    1  A    between atoms: C_1  and  C_2
REMARK    2  A    between atoms: C_5  and  N_8
REMARK    3  A    between atoms: C_16  and  S_17
REMARK    4  A    between atoms: S_17  and  C_18
REMARK    5  A    between atoms: C_18  and  C_20
REMARK    6  A    between atoms: C_18  and  C_26
REMARK    7  A    between atoms: C_26  and  C_28
REMARK                            x       y       z     vdW  Elec       q    Type
REMARK                         _______ _______ _______ _____ _____    ______ ____
ROOT
ATOM      1  C   UNL     1       3.469  -5.901  -1.634  0.00  0.00    +0.155 C 
ENDROOT
BRANCH   1   2
ATOM      2  C   UNL     1       2.713  -6.652  -2.700  0.00  0.00    -0.027 A 
ATOM      3  C   UNL     1       2.472  -6.059  -3.925  0.00  0.00    +0.005 A 
ATOM      4  C   UNL     1       1.780  -6.748  -4.903  0.00  0.00    +0.000 A 
ATOM      5  C   UNL     1       1.329  -8.031  -4.656  0.00  0.00    +0.000 A 
ATOM      6  C   UNL     1       1.571  -8.625  -3.432  0.00  0.00    +0.000 A 
ATOM      7  C   UNL     1       2.267  -7.938  -2.455  0.00  0.00    +0.005 A 
ENDBRANCH   1   2
BRANCH   1   8
ATOM      8  C   UNL     1       4.840  -5.544  -2.147  0.00  0.00    +0.179 C 
ATOM      9  O   UNL     1       5.036  -4.454  -2.646  0.00  0.00    -0.291 OA
BRANCH   8  10
ATOM     10  C   UNL     1       5.895  -6.475  -2.048  0.00  0.00    +0.025 C 
ATOM     11  C   UNL     1       7.204  -6.303  -2.462  0.00  0.00    +0.006 A 
ATOM     12  C   UNL     1       7.885  -5.227  -3.078  0.00  0.00    +0.010 A 
ATOM     13  C   UNL     1       9.198  -5.335  -3.380  0.00  0.00    +0.001 A 
ATOM     14  C   UNL     1       9.941  -6.494  -3.106  0.00  0.00    +0.002 A 
ATOM     15  C   UNL     1       9.386  -7.578  -2.521  0.00  0.00    +0.026 A 
ATOM     16  C   UNL     1       7.960  -7.543  -2.158  0.00  0.00    +0.043 A 
ATOM     17  N   UNL     1       7.184  -8.425  -1.597  0.00  0.00    -0.380 N 
ATOM     18  C   UNL     1       5.834  -7.868  -1.461  0.00  0.00    +0.152 C 
ATOM     19  H   UNL     1       7.456  -9.311  -1.310  0.00  0.00    +0.160 HD
ENDBRANCH   8  10
ENDBRANCH   1   8
BRANCH   1  20
ATOM     20  S   UNL     1       2.567  -4.386  -1.209  0.00  0.00    -0.071 S 
BRANCH  20  29
ATOM     21  N   UNL     1       0.059  -4.172  -0.021  0.00  0.00    -0.287 N 
ATOM     22  C   UNL     1      -0.942  -5.011   0.447  0.00  0.00    +0.074 A 
ATOM     23  C   UNL     1      -2.183  -4.796   1.026  0.00  0.00    +0.028 A 
ATOM     24  C   UNL     1      -2.965  -5.873   1.392  0.00  0.00    +0.002 A 
ATOM     25  C   UNL     1      -2.518  -7.169   1.184  0.00  0.00    +0.002 A 
ATOM     26  C   UNL     1      -1.288  -7.400   0.611  0.00  0.00    +0.030 A 
ATOM     27  C   UNL     1      -0.484  -6.322   0.234  0.00  0.00    +0.091 A 
ATOM     28  N   UNL     1       0.745  -6.229  -0.340  0.00  0.00    -0.221 NA
ATOM     29  C   UNL     1       1.065  -4.968  -0.497  0.00  0.00    +0.175 A 
BRANCH  21  34
ATOM     30  C   UNL     1      -0.018   1.503   0.010  0.00  0.00    +0.044 C 
ATOM     31  C   UNL     1       0.002  -0.004   0.002  0.00  0.00    -0.050 A 
ATOM     32  C   UNL     1       0.006  -0.688  -1.200  0.00  0.00    +0.005 A 
ATOM     33  C   UNL     1       0.025  -2.068  -1.211  0.00  0.00    +0.026 A 
ATOM     34  C   UNL     1       0.040  -2.771  -0.013  0.00  0.00    +0.049 A 
ATOM     35  C   UNL     1       0.037  -2.082   1.192  0.00  0.00    +0.026 A 
ATOM     36  C   UNL     1       0.023  -0.700   1.196  0.00  0.00    +0.005 A 
ENDBRANCH  21  34
ENDBRANCH  20  29
ENDBRANCH   1  20
TORSDOF 6
