REMARK  Name = ZINC40553025
REMARK  3 active torsions:
REMARK  status: ('A' for Active; 'I' for Inactive)
REMARK    1  A    between atoms: C_2  and  N_9
REMARK    2  A    between atoms: N_12  and  C_13
REMARK    3  A    between atoms: C_13  and  C_18
REMARK                            x       y       z     vdW  Elec       q    Type
REMARK                         _______ _______ _______ _____ _____    ______ ____
ROOT
ATOM      1  N   UNL     1       1.160   3.488   0.009  0.00  0.00    -0.269 N 
ATOM      2  C   UNL     1       2.315   4.175   0.104  0.00  0.00    +0.305 C 
ATOM      3  O   UNL     1       3.377   3.584   0.091  0.00  0.00    -0.252 OA
ATOM      4  N   UNL     1       2.293   5.519   0.212  0.00  0.00    -0.283 N 
ATOM      5  H   UNL     1       0.317   3.963  -0.058  0.00  0.00    +0.156 HD
ATOM      6  H   UNL     1       1.446   5.991   0.222  0.00  0.00    +0.151 HD
ENDROOT
BRANCH   1   8
ATOM      7  C   UNL     1       0.236   1.383  -0.730  0.00  0.00    +0.061 A 
ATOM      8  C   UNL     1       1.176   2.089   0.009  0.00  0.00    +0.040 A 
ATOM      9  C   UNL     1       2.132   1.405   0.747  0.00  0.00    +0.061 A 
ATOM     10  C   UNL     1       2.147   0.021   0.745  0.00  0.00    +0.128 A 
ATOM     11  C   UNL     1       1.209  -0.681   0.007  0.00  0.00    +0.076 A 
ATOM     12  C   UNL     1       0.255  -0.000  -0.730  0.00  0.00    +0.128 A 
ATOM     13  F   UNL     1      -0.660  -0.688  -1.449  0.00  0.00    -0.205 F 
ATOM     14  F   UNL     1       3.077  -0.645   1.463  0.00  0.00    -0.205 F 
ENDBRANCH   1   8
BRANCH   4  15
ATOM     15  C   UNL     1       3.550   6.266   0.315  0.00  0.00    +0.137 C 
ATOM     16  C   UNL     1       4.283   5.915   1.633  0.00  0.00    +0.037 C 
ATOM     17  C   UNL     1       3.549   6.793   2.677  0.00  0.00    +0.003 C 
ATOM     18  C   UNL     1       3.270   8.114   1.930  0.00  0.00    +0.003 C 
ATOM     19  C   UNL     1       3.270   7.779   0.428  0.00  0.00    +0.037 C 
BRANCH  15  20
ATOM     20  C   UNL     1       4.430   5.980  -0.874  0.00  0.00    +0.379 C 
ATOM     21  O   UNL     1       4.045   5.225  -1.751  0.00  0.00    -0.244 OA
ATOM     22  O   UNL     1       5.528   6.504  -0.960  0.00  0.00    -0.244 OA
ENDBRANCH  15  20
ENDBRANCH   4  15
TORSDOF 3
