REMARK  Name = ZINC40572586
REMARK  6 active torsions:
REMARK  status: ('A' for Active; 'I' for Inactive)
REMARK    1  A    between atoms: C_1  and  C_2
REMARK    2  A    between atoms: C_2  and  C_3
REMARK    3  A    between atoms: C_2  and  C_6
REMARK    4  A    between atoms: C_2  and  N_9
REMARK    5  A    between atoms: N_12  and  C_13
REMARK    6  A    between atoms: C_13  and  C_14
REMARK                            x       y       z     vdW  Elec       q    Type
REMARK                         _______ _______ _______ _____ _____    ______ ____
ROOT
ATOM      1  N   UNL     1      -1.372  -0.511   0.012  0.00  0.00    -0.284 N 
ATOM      2  C   UNL     1      -2.216  -0.192  -0.989  0.00  0.00    +0.300 C 
ATOM      3  O   UNL     1      -1.837   0.518  -1.901  0.00  0.00    -0.253 OA
ATOM      4  N   UNL     1      -3.481  -0.658  -0.979  0.00  0.00    -0.299 N 
ATOM      5  H   UNL     1      -1.675  -1.077   0.740  0.00  0.00    +0.151 HD
ATOM      6  H   UNL     1      -3.783  -1.224  -0.252  0.00  0.00    +0.150 HD
ENDROOT
BRANCH   1   8
ATOM      7  C   UNL     1      -0.019   1.526   0.010  0.00  0.00    +0.044 C 
ATOM      8  C   UNL     1       0.002  -0.004   0.002  0.00  0.00    +0.137 C 
BRANCH   8   9
ATOM      9  C   UNL     1       0.742  -0.511   1.242  0.00  0.00    +0.023 C 
ATOM     10  C   UNL     1       1.222   0.532   2.253  0.00  0.00    +0.006 C 
ATOM     11  C   UNL     1       2.233  -0.186   1.357  0.00  0.00    +0.006 C 
ENDBRANCH   8   9
BRANCH   8  12
ATOM     12  C   UNL     1       0.707  -0.490  -1.238  0.00  0.00    +0.379 C 
ATOM     13  O   UNL     1       1.869  -0.179  -1.440  0.00  0.00    -0.244 OA
ATOM     14  O   UNL     1       0.117  -1.195  -2.039  0.00  0.00    -0.244 OA
ENDBRANCH   8  12
ENDBRANCH   1   8
BRANCH   4  15
ATOM     15  C   UNL     1      -4.398  -0.310  -2.067  0.00  0.00    +0.109 C 
BRANCH  15  16
ATOM     16  C   UNL     1      -5.758  -0.964  -1.816  0.00  0.00    +0.006 C 
ATOM     17  C   UNL     1      -5.641  -2.496  -1.947  0.00  0.00    +0.005 C 
ATOM     18  C   UNL     1      -6.971  -2.923  -2.616  0.00  0.00    +0.000 C 
ATOM     19  C   UNL     1      -7.229  -1.778  -3.626  0.00  0.00    +0.000 C 
ATOM     20  C   UNL     1      -6.768  -0.507  -2.884  0.00  0.00    +0.005 C 
ENDBRANCH  15  16
ENDBRANCH   4  15
TORSDOF 5
