REMARK  Name = ZINC63515184
REMARK  8 active torsions:
REMARK  status: ('A' for Active; 'I' for Inactive)
REMARK    1  A    between atoms: C_1  and  C_2
REMARK    2  A    between atoms: C_7  and  S_12
REMARK    3  A    between atoms: S_12  and  C_13
REMARK    4  A    between atoms: C_13  and  C_14
REMARK    5  A    between atoms: N_16  and  C_17
REMARK    6  A    between atoms: C_22  and  N_23
REMARK    7  A    between atoms: C_24  and  C_26
REMARK    8  A    between atoms: C_29  and  C_32
REMARK                            x       y       z     vdW  Elec       q    Type
REMARK                         _______ _______ _______ _____ _____    ______ ____
ROOT
ATOM      1  C   UNL     1      -6.449  -5.026   1.811  0.00  0.00    +0.055 A 
ATOM      2  C   UNL     1      -6.402  -6.235   2.489  0.00  0.00    +0.025 A 
ATOM      3  C   UNL     1      -7.570  -6.921   2.761  0.00  0.00    +0.002 A 
ATOM      4  C   UNL     1      -8.789  -6.406   2.359  0.00  0.00    +0.002 A 
ATOM      5  C   UNL     1      -8.846  -5.202   1.683  0.00  0.00    +0.025 A 
ATOM      6  C   UNL     1      -7.679  -4.504   1.411  0.00  0.00    +0.055 A 
ENDROOT
BRANCH   1   9
ATOM      7  C   UNL     1      -4.177  -4.517   2.306  0.00  0.00    +0.227 C 
ATOM      8  O   UNL     1      -4.249  -5.212   3.297  0.00  0.00    -0.275 OA
ATOM      9  N   UNL     1      -5.266  -4.329   1.535  0.00  0.00    -0.283 N 
ATOM     10  H   UNL     1      -5.231  -3.710   0.789  0.00  0.00    +0.155 HD
BRANCH   7  11
ATOM     11  C   UNL     1      -2.870  -3.864   1.937  0.00  0.00    +0.169 C 
BRANCH  11  12
ATOM     12  S   UNL     1      -1.606  -4.306   3.160  0.00  0.00    -0.106 S 
BRANCH  12  19
ATOM     13  C   UNL     1      -0.169   1.041  -1.451  0.00  0.00    +0.044 C 
ATOM     14  C   UNL     1      -0.057  -0.294  -0.761  0.00  0.00    -0.048 A 
ATOM     15  C   UNL     1       0.290  -1.422  -1.526  0.00  0.00    +0.005 A 
ATOM     16  C   UNL     1       0.412  -2.653  -0.991  0.00  0.00    +0.028 A 
ATOM     17  C   UNL     1       0.176  -2.845   0.447  0.00  0.00    +0.061 A 
ATOM     18  N   UNL     1       0.220  -3.893   1.219  0.00  0.00    -0.355 N 
ATOM     19  C   UNL     1      -0.115  -3.452   2.579  0.00  0.00    +0.236 C 
ATOM     20  N   UNL     1      -0.360  -2.007   2.497  0.00  0.00    -0.355 N 
ATOM     21  C   UNL     1      -0.191  -1.651   1.256  0.00  0.00    +0.061 A 
ATOM     22  C   UNL     1      -0.289  -0.358   0.565  0.00  0.00    +0.030 A 
ATOM     23  H   UNL     1       0.434  -4.798   0.946  0.00  0.00    +0.162 HD
ATOM     24  H   UNL     1      -0.604  -1.423   3.233  0.00  0.00    +0.162 HD
ENDBRANCH  12  19
ENDBRANCH  11  12
ENDBRANCH   7  11
ENDBRANCH   1   9
BRANCH   6  25
ATOM     25  N   UNL     1      -7.735  -3.281   0.731  0.00  0.00    -0.280 N 
ATOM     26  C   UNL     1      -8.775  -3.009  -0.081  0.00  0.00    +0.248 C 
ATOM     27  O   UNL     1      -9.613  -3.861  -0.303  0.00  0.00    -0.270 OA
ATOM     28  H   UNL     1      -7.024  -2.631   0.845  0.00  0.00    +0.155 HD
BRANCH  26  29
ATOM     29  C   UNL     1      -8.897  -1.673  -0.703  0.00  0.00    +0.037 A 
ATOM     30  C   UNL     1      -7.934  -0.694  -0.455  0.00  0.00    +0.013 A 
ATOM     31  C   UNL     1      -8.054   0.551  -1.038  0.00  0.00    +0.013 A 
ATOM     32  C   UNL     1      -9.127   0.829  -1.866  0.00  0.00    +0.055 A 
ATOM     33  C   UNL     1     -10.085  -0.137  -2.116  0.00  0.00    +0.013 A 
ATOM     34  C   UNL     1      -9.974  -1.387  -1.544  0.00  0.00    +0.013 A 
BRANCH  32  35
ATOM     35  C   UNL     1      -9.252   2.191  -2.499  0.00  0.00    +0.417 C 
ATOM     36  F   UNL     1      -8.596   2.193  -3.735  0.00  0.00    -0.166 F 
ATOM     37  F   UNL     1     -10.604   2.495  -2.688  0.00  0.00    -0.166 F 
ATOM     38  F   UNL     1      -8.671   3.150  -1.662  0.00  0.00    -0.166 F 
ENDBRANCH  32  35
ENDBRANCH  26  29
ENDBRANCH   6  25
TORSDOF 7
