REMARK  Name = ZINC59331647
REMARK  11 active torsions:
REMARK  status: ('A' for Active; 'I' for Inactive)
REMARK    1  A    between atoms: C_1  and  C_2
REMARK    2  A    between atoms: C_6  and  C_10
REMARK    3  A    between atoms: C_7  and  O_8
REMARK    4  A    between atoms: O_8  and  C_9
REMARK    5  A    between atoms: N_12  and  C_13
REMARK    6  A    between atoms: C_13  and  N_15
REMARK    7  A    between atoms: N_15  and  C_16
REMARK    8  A    between atoms: C_18  and  N_24
REMARK    9  A    between atoms: C_21  and  O_22
REMARK   10  A    between atoms: O_22  and  C_23
REMARK   11  A    between atoms: C_25  and  C_27
REMARK                            x       y       z     vdW  Elec       q    Type
REMARK                         _______ _______ _______ _____ _____    ______ ____
ROOT
ATOM      1  N   UNL     1      -0.245  -6.292   3.601  0.00  0.00    -0.294 N 
ATOM      2  H   UNL     1      -0.869  -6.640   2.945  0.00  0.00    +0.154 HD
ENDROOT
BRANCH   1   3
ATOM      3  C   UNL     1       0.034  -7.026   4.761  0.00  0.00    +0.077 A 
ATOM      4  C   UNL     1       0.022  -6.400   5.998  0.00  0.00    +0.050 A 
ATOM      5  C   UNL     1       0.299  -7.130   7.146  0.00  0.00    +0.036 A 
ATOM      6  C   UNL     1       0.589  -8.485   7.054  0.00  0.00    +0.027 A 
ATOM      7  C   UNL     1       0.601  -9.109   5.821  0.00  0.00    +0.049 A 
ATOM      8  C   UNL     1       0.319  -8.386   4.674  0.00  0.00    +0.141 A 
BRANCH   5   9
ATOM      9  N   UNL     1       0.288  -6.499   8.396  0.00  0.00    -0.279 N 
ATOM     10  C   UNL     1      -0.111  -7.179   9.489  0.00  0.00    +0.284 C 
ATOM     11  O   UNL     1      -0.545  -8.310   9.378  0.00  0.00    -0.266 OA
ATOM     12  H   UNL     1       0.567  -5.574   8.475  0.00  0.00    +0.155 HD
BRANCH  10  13
ATOM     13  C   UNL     1      -0.022  -6.555  10.813  0.00  0.00    +0.189 A 
ATOM     14  C   UNL     1      -0.384  -7.130  11.997  0.00  0.00    +0.054 A 
ATOM     15  C   UNL     1      -0.131  -6.182  13.001  0.00  0.00    +0.042 A 
ATOM     16  C   UNL     1       0.369  -5.083  12.393  0.00  0.00    +0.196 A 
ATOM     17  O   UNL     1       0.438  -5.314  11.075  0.00  0.00    -0.458 OA
ENDBRANCH  10  13
ENDBRANCH   5   9
BRANCH   8  18
ATOM     18  O   UNL     1       0.325  -9.004   3.462  0.00  0.00    -0.493 OA
ATOM     19  C   UNL     1       0.625 -10.401   3.447  0.00  0.00    +0.277 C 
ENDBRANCH   8  18
ENDBRANCH   1   3
BRANCH   1  20
ATOM     20  C   UNL     1       0.354  -5.101   3.396  0.00  0.00    +0.141 C 
ATOM     21  S   UNL     1       1.357  -4.428   4.608  0.00  0.00    -0.018 S 
BRANCH  20  24
ATOM     22  C   UNL     1       0.760  -3.251   2.032  0.00  0.00    +0.253 C 
ATOM     23  O   UNL     1       1.473  -2.773   2.893  0.00  0.00    -0.270 OA
ATOM     24  N   UNL     1       0.162  -4.441   2.237  0.00  0.00    -0.263 N 
ATOM     25  H   UNL     1      -0.407  -4.823   1.550  0.00  0.00    +0.157 HD
BRANCH  22  31
ATOM     26  C   UNL     1       1.629   0.713  -0.888  0.00  0.00    +0.047 C 
ATOM     27  C   UNL     1       0.965  -0.619  -0.649  0.00  0.00    -0.007 A 
ATOM     28  C   UNL     1       0.154  -1.170  -1.622  0.00  0.00    +0.022 A 
ATOM     29  C   UNL     1      -0.461  -2.394  -1.412  0.00  0.00    +0.019 A 
ATOM     30  C   UNL     1      -0.269  -3.075  -0.229  0.00  0.00    +0.032 A 
ATOM     31  C   UNL     1       0.550  -2.529   0.763  0.00  0.00    +0.080 A 
ATOM     32  C   UNL     1       1.174  -1.292   0.544  0.00  0.00    +0.135 A 
ATOM     33 BR   UNL     1      -1.569  -3.133  -2.754  0.00  0.00    -0.050 Br
BRANCH  32  34
ATOM     34  O   UNL     1       1.974  -0.755   1.499  0.00  0.00    -0.494 OA
ATOM     35  C   UNL     1       1.352   0.094   2.465  0.00  0.00    +0.277 C 
ENDBRANCH  32  34
ENDBRANCH  22  31
ENDBRANCH  20  24
ENDBRANCH   1  20
TORSDOF 8
