REMARK  Name = ZINC52426226
REMARK  10 active torsions:
REMARK  status: ('A' for Active; 'I' for Inactive)
REMARK    1  A    between atoms: C_1  and  C_2
REMARK    2  A    between atoms: C_2  and  C_3
REMARK    3  A    between atoms: C_2  and  C_4
REMARK    4  A    between atoms: C_2  and  N_39
REMARK    5  A    between atoms: N_6  and  C_7
REMARK    6  A    between atoms: C_7  and  C_9
REMARK    7  A    between atoms: C_7  and  C_19
REMARK    8  A    between atoms: C_9  and  C_10
REMARK    9  A    between atoms: C_33  and  O_38
REMARK   10  A    between atoms: C_35  and  O_37
REMARK                            x       y       z     vdW  Elec       q    Type
REMARK                         _______ _______ _______ _____ _____    ______ ____
ROOT
ATOM      1  C   UNL     1      -3.465  -1.164  -1.134  0.00  0.00    +0.163 C 
ENDROOT
BRANCH   1   2
ATOM      2  C   UNL     1      -3.485  -2.550  -0.541  0.00  0.00    +0.236 C 
ATOM      3  O   UNL     1      -2.564  -2.925   0.155  0.00  0.00    -0.274 OA
ATOM      4  N   UNL     1      -4.525  -3.372  -0.783  0.00  0.00    -0.300 N 
ATOM      5  C   UNL     1      -5.643  -2.933  -1.629  0.00  0.00    +0.109 C 
ATOM      6  C   UNL     1      -6.951  -3.121  -0.852  0.00  0.00    +0.033 C 
ATOM      7  C   UNL     1      -7.046  -4.563  -0.363  0.00  0.00    +0.028 C 
ATOM      8  C   UNL     1      -5.876  -4.896   0.559  0.00  0.00    +0.033 C 
ATOM      9  C   UNL     1      -4.558  -4.725  -0.211  0.00  0.00    +0.109 C 
ATOM     10  C   UNL     1      -8.358  -4.790   0.351  0.00  0.00    -0.033 A 
ATOM     11  C   UNL     1      -9.022  -4.012   1.285  0.00  0.00    +0.004 A 
ATOM     12  C   UNL     1     -10.230  -4.431   1.807  0.00  0.00    +0.000 A 
ATOM     13  C   UNL     1     -10.780  -5.630   1.396  0.00  0.00    +0.000 A 
ATOM     14  C   UNL     1     -10.120  -6.407   0.465  0.00  0.00    +0.006 A 
ATOM     15  C   UNL     1      -8.909  -5.990  -0.060  0.00  0.00    -0.013 A 
ATOM     16  C   UNL     1      -8.001  -6.649  -1.076  0.00  0.00    +0.174 C 
ATOM     17  C   UNL     1      -7.058  -5.527  -1.564  0.00  0.00    +0.158 C 
BRANCH  17  18
ATOM     18  O   UNL     1      -7.590  -4.885  -2.725  0.00  0.00    -0.388 OA
ATOM     19  H   UNL     1      -7.619  -5.450  -3.508  0.00  0.00    +0.210 HD
ENDBRANCH  17  18
BRANCH  16  20
ATOM     20  O   UNL     1      -7.249  -7.699  -0.464  0.00  0.00    -0.385 OA
ATOM     21  H   UNL     1      -7.793  -8.411  -0.101  0.00  0.00    +0.210 HD
ENDBRANCH  16  20
ENDBRANCH   1   2
BRANCH   1  24
ATOM     22  C   UNL     1      -1.412  -0.526   0.013  0.00  0.00    +0.202 C 
ATOM     23  O   UNL     1      -1.939  -0.827   1.062  0.00  0.00    -0.277 OA
ATOM     24  N   UNL     1      -2.090  -0.657  -1.144  0.00  0.00    -0.305 N 
ATOM     25  H   UNL     1      -1.669  -0.416  -1.984  0.00  0.00    +0.149 HD
BRANCH  22  27
ATOM     26  C   UNL     1      -0.019   1.526   0.010  0.00  0.00    -0.001 C 
ATOM     27  C   UNL     1       0.002  -0.004   0.002  0.00  0.00    +0.001 C 
ATOM     28  C   UNL     1       0.742  -0.511   1.242  0.00  0.00    -0.001 C 
BRANCH  27  29
ATOM     29  N   UNL     1       0.690  -0.478  -1.207  0.00  0.00    +0.387 N 
ATOM     30  H   UNL     1       1.636  -0.129  -1.214  0.00  0.00    -0.089 HD
ATOM     31  H   UNL     1       0.703  -1.487  -1.212  0.00  0.00    -0.089 HD
ATOM     32  H   UNL     1       0.202  -0.144  -2.024  0.00  0.00    -0.089 HD
ENDBRANCH  27  29
ENDBRANCH  22  27
ENDBRANCH   1  24
BRANCH   1  33
ATOM     33  C   UNL     1      -4.344  -0.237  -0.293  0.00  0.00    +0.065 C 
BRANCH  33  34
ATOM     34  C   UNL     1      -4.423   1.115  -0.954  0.00  0.00    -0.039 C 
ATOM     35  C   UNL     1      -5.391   1.557  -1.789  0.00  0.00    -0.001 A 
ATOM     36  C   UNL     1      -6.612   0.934  -2.313  0.00  0.00    +0.010 A 
ATOM     37  C   UNL     1      -7.402   1.643  -3.152  0.00  0.00    +0.001 A 
ATOM     38  C   UNL     1      -7.083   2.954  -3.533  0.00  0.00    +0.002 A 
ATOM     39  C   UNL     1      -5.979   3.593  -3.092  0.00  0.00    +0.026 A 
ATOM     40  C   UNL     1      -5.077   2.943  -2.205  0.00  0.00    +0.043 A 
ATOM     41  N   UNL     1      -3.959   3.342  -1.649  0.00  0.00    -0.380 N 
ATOM     42  C   UNL     1      -3.440   2.256  -0.811  0.00  0.00    +0.144 C 
ATOM     43  H   UNL     1      -3.547   4.212  -1.769  0.00  0.00    +0.160 HD
ENDBRANCH  33  34
ENDBRANCH   1  33
TORSDOF 8
