REMARK  Name = ZINC31194576
REMARK  16 active torsions:
REMARK  status: ('A' for Active; 'I' for Inactive)
REMARK    1  A    between atoms: C_1  and  C_2
REMARK    2  A    between atoms: C_2  and  N_3
REMARK    3  A    between atoms: N_3  and  C_4
REMARK    4  A    between atoms: N_3  and  C_6
REMARK    5  A    between atoms: C_4  and  C_5
REMARK    6  A    between atoms: C_6  and  C_8
REMARK    7  A    between atoms: C_6  and  C_28
REMARK    8  A    between atoms: C_8  and  N_9
REMARK    9  A    between atoms: N_12  and  N_13
REMARK   10  A    between atoms: C_14  and  C_16
REMARK   11  A    between atoms: C_19  and  O_24
REMARK   12  A    between atoms: C_20  and  O_22
REMARK   13  A    between atoms: O_22  and  C_23
REMARK   14  A    between atoms: O_24  and  C_25
REMARK   15  A    between atoms: C_25  and  C_26
REMARK   16  A    between atoms: C_25  and  C_27
REMARK                            x       y       z     vdW  Elec       q    Type
REMARK                         _______ _______ _______ _____ _____    ______ ____
ROOT
ATOM      1  N   UNL     1       2.288   0.150  -2.016  0.00  0.00    -0.299 N 
ATOM      2  C   UNL     1       2.932   0.009  -3.191  0.00  0.00    +0.316 C 
ATOM      3  O   UNL     1       4.060  -0.445  -3.215  0.00  0.00    -0.251 OA
ATOM      4  N   UNL     1       2.327   0.371  -4.339  0.00  0.00    -0.218 N 
ATOM      5  H   UNL     1       1.388   0.512  -1.996  0.00  0.00    +0.150 HD
ATOM      6  H   UNL     1       2.791   0.269  -5.185  0.00  0.00    +0.174 HD
ENDROOT
BRANCH   4   7
ATOM      7  N   UNL     1       1.028   0.894  -4.312  0.00  0.00    -0.229 N 
ATOM      8  C   UNL     1       0.422   1.256  -5.460  0.00  0.00    +0.260 C 
ATOM      9  O   UNL     1       1.004   1.129  -6.520  0.00  0.00    -0.269 OA
ATOM     10  H   UNL     1       0.564   0.996  -3.466  0.00  0.00    +0.173 HD
BRANCH   8  11
ATOM     11  C   UNL     1      -0.947   1.807  -5.431  0.00  0.00    +0.042 A 
ATOM     12  C   UNL     1      -1.614   1.960  -4.213  0.00  0.00    +0.017 A 
ATOM     13  C   UNL     1      -2.892   2.474  -4.187  0.00  0.00    +0.050 A 
ATOM     14  C   UNL     1      -3.519   2.843  -5.370  0.00  0.00    +0.162 A 
ATOM     15  C   UNL     1      -2.859   2.694  -6.588  0.00  0.00    +0.162 A 
ATOM     16  C   UNL     1      -1.576   2.183  -6.620  0.00  0.00    +0.062 A 
BRANCH  15  17
ATOM     17  O   UNL     1      -3.476   3.055  -7.745  0.00  0.00    -0.491 OA
ATOM     18  C   UNL     1      -2.740   2.875  -8.957  0.00  0.00    +0.277 C 
ENDBRANCH  15  17
BRANCH  14  19
ATOM     19  O   UNL     1      -4.779   3.349  -5.339  0.00  0.00    -0.486 OA
BRANCH  19  20
ATOM     20  C   UNL     1      -5.401   3.463  -4.058  0.00  0.00    +0.167 C 
ATOM     21  C   UNL     1      -4.998   4.790  -3.412  0.00  0.00    +0.051 C 
ATOM     22  C   UNL     1      -6.922   3.418  -4.223  0.00  0.00    +0.051 C 
ENDBRANCH  19  20
ENDBRANCH  14  19
ENDBRANCH   8  11
ENDBRANCH   4   7
BRANCH   1  23
ATOM     23  C   UNL     1       2.946  -0.243  -0.767  0.00  0.00    +0.095 C 
BRANCH  23  24
ATOM     24  C   UNL     1       2.078   0.175   0.421  0.00  0.00    -0.020 C 
BRANCH  24  25
ATOM     25  C   UNL     1       2.369  -0.721   1.597  0.00  0.00    -0.052 A 
ATOM     26  C   UNL     1       1.487  -1.724   1.950  0.00  0.00    +0.009 A 
ATOM     27  C   UNL     1       1.779  -2.513   3.013  0.00  0.00    +0.045 A 
ATOM     28  S   UNL     1       3.343  -1.841   3.552  0.00  0.00    -0.105 S 
ATOM     29  C   UNL     1       3.504  -0.558   2.320  0.00  0.00    +0.047 A 
ENDBRANCH  24  25
BRANCH  24  30
ATOM     30  N   UNL     1       2.378   1.568   0.780  0.00  0.00    +0.385 N 
ATOM     31  H   UNL     1       3.316   1.626   1.147  0.00  0.00    -0.081 HD
BRANCH  30  33
ATOM     32  C   UNL     1       2.614   3.861  -0.048  0.00  0.00    -0.017 C 
ATOM     33  C   UNL     1       2.267   2.416  -0.414  0.00  0.00    -0.081 C 
ENDBRANCH  30  33
BRANCH  30  34
ATOM     34  C   UNL     1       1.424   2.028   1.798  0.00  0.00    -0.081 C 
ATOM     35  C   UNL     1       1.683   1.287   3.111  0.00  0.00    -0.017 C 
ENDBRANCH  30  34
ENDBRANCH  24  30
ENDBRANCH  23  24
ENDBRANCH   1  23
TORSDOF 11
