REMARK  Name = ZINC39685866
REMARK  11 active torsions:
REMARK  status: ('A' for Active; 'I' for Inactive)
REMARK    1  A    between atoms: C_1  and  C_2
REMARK    2  A    between atoms: C_2  and  C_3
REMARK    3  A    between atoms: C_2  and  C_4
REMARK    4  A    between atoms: C_4  and  C_6
REMARK    5  A    between atoms: C_4  and  N_13
REMARK    6  A    between atoms: N_8  and  C_9
REMARK    7  A    between atoms: C_9  and  C_10
REMARK    8  A    between atoms: C_9  and  C_11
REMARK    9  A    between atoms: C_9  and  C_12
REMARK   10  A    between atoms: C_14  and  C_16
REMARK   11  A    between atoms: C_27  and  C_29
REMARK                            x       y       z     vdW  Elec       q    Type
REMARK                         _______ _______ _______ _____ _____    ______ ____
ROOT
ATOM      1  C   UNL     1       0.026  -4.005   1.605  0.00  0.00    +0.100 C 
ATOM      2  C   UNL     1      -1.240  -4.527   0.889  0.00  0.00    +0.121 C 
ATOM      3  N   UNL     1      -1.810  -5.529   1.820  0.00  0.00    -0.296 N 
ATOM      4  C   UNL     1      -1.615  -4.935   3.165  0.00  0.00    +0.115 C 
ATOM      5  C   UNL     1      -0.225  -4.274   3.098  0.00  0.00    -0.004 C 
ATOM      6  C   UNL     1      -0.226  -2.963   3.878  0.00  0.00    -0.010 C 
ATOM      7  C   UNL     1      -0.419  -3.261   5.368  0.00  0.00    -0.082 C 
ATOM      8  N   UNL     1       0.665  -4.132   5.838  0.00  0.00    +0.379 N 
ATOM      9  C   UNL     1       0.602  -5.426   5.148  0.00  0.00    -0.082 C 
ATOM     10  C   UNL     1       0.838  -5.220   3.650  0.00  0.00    -0.010 C 
ATOM     11  C   UNL     1      -2.376  -6.713   1.514  0.00  0.00    +0.248 C 
ATOM     12  O   UNL     1      -2.864  -7.399   2.392  0.00  0.00    -0.270 OA
ATOM     13  H   UNL     1       1.553  -3.694   5.648  0.00  0.00    -0.086 HD
ATOM     14  H   UNL     1       0.570  -4.278   6.832  0.00  0.00    -0.086 HD
ENDROOT
BRANCH  11  15
ATOM     15  C   UNL     1      -2.405  -7.174   0.120  0.00  0.00    +0.052 A 
ATOM     16  C   UNL     1      -2.606  -6.303  -0.902  0.00  0.00    +0.059 A 
ATOM     17  S   UNL     1      -2.565  -7.234  -2.296  0.00  0.00    -0.096 S 
ATOM     18  C   UNL     1      -2.277  -8.835  -1.596  0.00  0.00    +0.020 A 
ATOM     19  C   UNL     1      -2.211  -8.588  -0.211  0.00  0.00    +0.001 A 
ATOM     20  C   UNL     1      -1.980  -9.692   0.631  0.00  0.00    +0.010 A 
ATOM     21  C   UNL     1      -1.824 -10.949   0.102  0.00  0.00    +0.001 A 
ATOM     22  C   UNL     1      -1.888 -11.166  -1.266  0.00  0.00    +0.001 A 
ATOM     23  C   UNL     1      -2.124 -10.103  -2.116  0.00  0.00    +0.015 A 
ENDBRANCH  11  15
BRANCH   1  25
ATOM     24  N   UNL     1      -0.840  -1.688   1.555  0.00  0.00    -0.303 N 
ATOM     25  C   UNL     1       0.196  -2.527   1.359  0.00  0.00    +0.219 C 
ATOM     26  O   UNL     1       1.265  -2.094   0.985  0.00  0.00    -0.275 OA
ATOM     27  H   UNL     1      -1.672  -2.023   1.926  0.00  0.00    +0.149 HD
BRANCH  24  28
ATOM     28  C   UNL     1      -0.710  -0.270   1.210  0.00  0.00    +0.161 C 
BRANCH  28  29
ATOM     29  C   UNL     1      -1.675   0.539   2.038  0.00  0.00    +0.234 C 
ATOM     30  O   UNL     1      -2.543  -0.018   2.675  0.00  0.00    -0.274 OA
ATOM     31  N   UNL     1      -1.573   1.883   2.069  0.00  0.00    -0.309 N 
ATOM     32  H   UNL     1      -0.839   2.324   1.615  0.00  0.00    +0.149 HD
BRANCH  31  33
ATOM     33  C   UNL     1      -2.572   2.676   2.790  0.00  0.00    +0.026 C 
ATOM     34  C   UNL     1      -2.577   2.271   4.265  0.00  0.00    +0.031 C 
ATOM     35  C   UNL     1      -2.226   4.162   2.670  0.00  0.00    +0.031 C 
ATOM     36  C   UNL     1      -3.955   2.424   2.187  0.00  0.00    +0.031 C 
ENDBRANCH  31  33
ENDBRANCH  28  29
BRANCH  28  38
ATOM     37  C   UNL     1       0.049  -0.768  -1.118  0.00  0.00    +0.009 C 
ATOM     38  C   UNL     1      -1.025  -0.076  -0.275  0.00  0.00    +0.012 C 
ATOM     39  C   UNL     1      -2.392  -0.686  -0.590  0.00  0.00    +0.009 C 
ENDBRANCH  28  38
ENDBRANCH  24  28
ENDBRANCH   1  25
TORSDOF 6
