REMARK  Name = ZINC10431491
REMARK  11 active torsions:
REMARK  status: ('A' for Active; 'I' for Inactive)
REMARK    1  A    between atoms: C_1  and  C_2
REMARK    2  A    between atoms: C_2  and  N_3
REMARK    3  A    between atoms: N_3  and  C_4
REMARK    4  A    between atoms: N_3  and  C_21
REMARK    5  A    between atoms: C_4  and  C_5
REMARK    6  A    between atoms: N_7  and  C_8
REMARK    7  A    between atoms: C_8  and  C_10
REMARK    8  A    between atoms: C_8  and  C_11
REMARK    9  A    between atoms: C_22  and  N_37
REMARK   10  A    between atoms: N_23  and  C_30
REMARK   11  A    between atoms: C_30  and  C_31
REMARK                            x       y       z     vdW  Elec       q    Type
REMARK                         _______ _______ _______ _____ _____    ______ ____
ROOT
ATOM      1  N   UNL     1       2.350   3.766   0.021  0.00  0.00    -0.315 N 
ENDROOT
BRANCH   1   2
ATOM      2  C   UNL     1       1.043   3.246  -0.122  0.00  0.00    +0.134 A 
ATOM      3  C   UNL     1      -0.044   4.076  -0.066  0.00  0.00    +0.127 A 
ATOM      4  N   UNL     1      -1.306   3.545  -0.209  0.00  0.00    -0.276 N 
ATOM      5  C   UNL     1      -1.471   2.224  -0.408  0.00  0.00    +0.331 A 
ATOM      6  O   UNL     1      -2.593   1.774  -0.538  0.00  0.00    -0.246 OA
ATOM      7  N   UNL     1      -0.414   1.394  -0.460  0.00  0.00    -0.273 N 
ATOM      8  H   UNL     1      -0.560   0.415  -0.600  0.00  0.00    +0.173 HD
ATOM      9  C   UNL     1       0.840   1.869  -0.325  0.00  0.00    +0.277 A 
ATOM     10  O   UNL     1       1.793   1.110  -0.378  0.00  0.00    -0.266 OA
BRANCH   3  11
ATOM     11  N   UNL     1       0.123   5.427   0.131  0.00  0.00    -0.343 N 
ATOM     12  H   UNL     1       1.014   5.796   0.232  0.00  0.00    +0.144 HD
ATOM     13  H   UNL     1      -0.651   6.011   0.170  0.00  0.00    +0.144 HD
ENDBRANCH   3  11
BRANCH   4  14
ATOM     14  C   UNL     1      -2.477   4.424  -0.151  0.00  0.00    +0.163 C 
BRANCH  14  15
ATOM     15  C   UNL     1      -2.801   4.921  -1.536  0.00  0.00    -0.028 A 
ATOM     16  C   UNL     1      -2.237   6.096  -1.999  0.00  0.00    +0.005 A 
ATOM     17  C   UNL     1      -2.531   6.549  -3.271  0.00  0.00    +0.000 A 
ATOM     18  C   UNL     1      -3.397   5.834  -4.077  0.00  0.00    +0.000 A 
ATOM     19  C   UNL     1      -3.965   4.662  -3.613  0.00  0.00    +0.000 A 
ATOM     20  C   UNL     1      -3.667   4.206  -2.342  0.00  0.00    +0.005 A 
ENDBRANCH  14  15
ENDBRANCH   4  14
ENDBRANCH   1   2
BRANCH   1  22
ATOM     21  C   UNL     1       2.424   3.933   2.463  0.00  0.00    +0.024 C 
ATOM     22  C   UNL     1       2.998   3.235   1.228  0.00  0.00    +0.102 C 
ENDBRANCH   1  22
BRANCH   1  23
ATOM     23  C   UNL     1       3.159   3.492  -1.174  0.00  0.00    +0.201 C 
BRANCH  23  24
ATOM     24  C   UNL     1       4.375   4.382  -1.172  0.00  0.00    +0.231 C 
ATOM     25  O   UNL     1       4.495   5.244  -0.327  0.00  0.00    -0.274 OA
ATOM     26  N   UNL     1       5.330   4.221  -2.109  0.00  0.00    -0.307 N 
ATOM     27  H   UNL     1       5.235   3.532  -2.785  0.00  0.00    +0.149 HD
BRANCH  26  28
ATOM     28  C   UNL     1       6.512   5.086  -2.107  0.00  0.00    +0.100 C 
ATOM     29  C   UNL     1       6.198   6.381  -2.860  0.00  0.00    +0.033 C 
BRANCH  28  30
ATOM     30  C   UNL     1       7.656   4.376  -2.784  0.00  0.00    -0.027 A 
ATOM     31  C   UNL     1       7.428   3.619  -3.919  0.00  0.00    +0.006 A 
ATOM     32  C   UNL     1       8.480   2.970  -4.532  0.00  0.00    +0.004 A 
ATOM     33  C   UNL     1       9.767   3.071  -4.019  0.00  0.00    -0.044 A 
ATOM     34  C   UNL     1       9.994   3.829  -2.892  0.00  0.00    -0.044 A 
ATOM     35  C   UNL     1       8.934   4.484  -2.278  0.00  0.00    +0.009 A 
ATOM     36  C   UNL     1      11.364   3.991  -2.287  0.00  0.00    +0.035 C 
ATOM     37  C   UNL     1      12.306   2.899  -2.791  0.00  0.00    +0.005 C 
ATOM     38  C   UNL     1      12.234   2.868  -4.322  0.00  0.00    +0.005 C 
ATOM     39  C   UNL     1      10.866   2.325  -4.729  0.00  0.00    +0.035 C 
ENDBRANCH  28  30
ENDBRANCH  26  28
ENDBRANCH  23  24
ENDBRANCH   1  23
TORSDOF 9
