REMARK  Name = ZINC35190469
REMARK  12 active torsions:
REMARK  status: ('A' for Active; 'I' for Inactive)
REMARK    1  A    between atoms: C_1  and  C_2
REMARK    2  A    between atoms: C_2  and  C_3
REMARK    3  A    between atoms: C_3  and  C_4
REMARK    4  A    between atoms: C_5  and  C_32
REMARK    5  A    between atoms: C_6  and  C_11
REMARK    6  A    between atoms: C_8  and  C_10
REMARK    7  A    between atoms: C_17  and  C_20
REMARK    8  A    between atoms: N_23  and  C_24
REMARK    9  A    between atoms: C_27  and  C_30
REMARK   10  A    between atoms: C_32  and  O_34
REMARK   11  A    between atoms: O_34  and  C_35
REMARK   12  A    between atoms: C_35  and  C_36
REMARK                            x       y       z     vdW  Elec       q    Type
REMARK                         _______ _______ _______ _____ _____    ______ ____
ROOT
ATOM      1  C   UNL     1      -1.654  -4.858  -0.561  0.00  0.00    +0.266 C 
ATOM      2  O   UNL     1      -2.592  -4.291  -1.084  0.00  0.00    -0.268 OA
ATOM      3  N   UNL     1      -1.591  -6.204  -0.570  0.00  0.00    -0.293 N 
ATOM      4  C   UNL     1      -0.474  -6.905   0.080  0.00  0.00    +0.127 C 
ATOM      5  C   UNL     1       0.188  -7.831  -0.947  0.00  0.00    +0.128 C 
ATOM      6  N   UNL     1      -0.859  -8.625  -1.606  0.00  0.00    -0.280 N 
ATOM      7  C   UNL     1      -1.975  -7.925  -2.256  0.00  0.00    +0.092 C 
ATOM      8  C   UNL     1      -2.640  -6.998  -1.224  0.00  0.00    +0.130 C 
ATOM      9  C   UNL     1      -1.449  -7.100  -3.433  0.00  0.00    +0.030 C 
ATOM     10  C   UNL     1      -0.795  -9.971  -1.615  0.00  0.00    +0.307 C 
ATOM     11  O   UNL     1      -1.612 -10.614  -2.246  0.00  0.00    -0.252 OA
ATOM     12  N   UNL     1       0.173 -10.605  -0.925  0.00  0.00    -0.269 N 
ATOM     13  H   UNL     1       0.856 -10.092  -0.465  0.00  0.00    +0.156 HD
ENDROOT
BRANCH   1  16
ATOM     14  C   UNL     1       0.678  -2.033   0.373  0.00  0.00    +0.060 A 
ATOM     15  C   UNL     1      -0.352  -2.727  -0.275  0.00  0.00    +0.111 A 
ATOM     16  C   UNL     1      -0.576  -4.068   0.089  0.00  0.00    +0.143 A 
ATOM     17  N   UNL     1       0.194  -4.614   1.023  0.00  0.00    -0.227 NA
ATOM     18  C   UNL     1       1.150  -3.918   1.603  0.00  0.00    +0.127 A 
ATOM     19  N   UNL     1       1.395  -2.660   1.287  0.00  0.00    -0.236 NA
ATOM     20  C   UNL     1       1.997  -4.582   2.658  0.00  0.00    +0.088 C 
BRANCH  15  21
ATOM     21  C   UNL     1      -1.179  -2.070  -1.309  0.00  0.00    +0.343 C 
ATOM     22  O   UNL     1      -0.842  -2.114  -2.475  0.00  0.00    -0.245 OA
BRANCH  21  23
ATOM     23  O   UNL     1      -2.308  -1.423  -0.958  0.00  0.00    -0.461 OA
BRANCH  23  24
ATOM     24  C   UNL     1      -3.058  -0.811  -2.009  0.00  0.00    +0.229 C 
ATOM     25  C   UNL     1      -4.296  -0.130  -1.421  0.00  0.00    +0.048 C 
ENDBRANCH  23  24
ENDBRANCH  21  23
ENDBRANCH  15  21
BRANCH  14  26
ATOM     26  C   UNL     1       0.967  -0.595   0.027  0.00  0.00    +0.056 C 
BRANCH  26  28
ATOM     27  C   UNL     1       2.282   0.920  -1.462  0.00  0.00    +0.004 C 
ATOM     28  C   UNL     1       1.989  -0.540  -1.111  0.00  0.00    +0.003 C 
ENDBRANCH  26  28
ENDBRANCH  14  26
ENDBRANCH   1  16
BRANCH  12  29
ATOM     29  C   UNL     1       0.194 -11.999  -0.871  0.00  0.00    +0.035 A 
ATOM     30  C   UNL     1       0.418 -12.735  -2.029  0.00  0.00    +0.024 A 
ATOM     31  C   UNL     1       0.439 -14.111  -1.980  0.00  0.00    +0.020 A 
ATOM     32  C   UNL     1       0.234 -14.768  -0.763  0.00  0.00    +0.052 A 
ATOM     33  C   UNL     1       0.009 -14.025   0.399  0.00  0.00    +0.020 A 
ATOM     34  C   UNL     1      -0.005 -12.649   0.343  0.00  0.00    +0.024 A 
BRANCH  32  35
ATOM     35  C   UNL     1       0.255 -16.199  -0.708  0.00  0.00    +0.099 C 
ATOM     36  N   UNL     1       0.271 -17.334  -0.664  0.00  0.00    -0.191 NA
ENDBRANCH  32  35
ENDBRANCH  12  29
TORSDOF 8
