REMARK  Name = ZINC43261890
REMARK  8 active torsions:
REMARK  status: ('A' for Active; 'I' for Inactive)
REMARK    1  A    between atoms: C_1  and  C_2
REMARK    2  A    between atoms: C_2  and  C_4
REMARK    3  A    between atoms: C_2  and  N_22
REMARK    4  A    between atoms: C_4  and  C_6
REMARK    5  A    between atoms: C_4  and  N_12
REMARK    6  A    between atoms: N_12  and  C_13
REMARK    7  A    between atoms: N_12  and  C_14
REMARK    8  A    between atoms: C_14  and  C_15
REMARK                            x       y       z     vdW  Elec       q    Type
REMARK                         _______ _______ _______ _____ _____    ______ ____
ROOT
ATOM      1  C   UNL     1       0.638  -0.609   1.219  0.00  0.00    +0.079 C 
ENDROOT
BRANCH   1   2
ATOM      2  C   UNL     1       0.850  -2.101   1.211  0.00  0.00    +0.006 A 
ATOM      3  C   UNL     1       1.947  -2.805   0.841  0.00  0.00    +0.014 A 
ATOM      4  C   UNL     1       1.915  -4.185   0.917  0.00  0.00    +0.023 A 
ATOM      5  C   UNL     1       0.787  -4.793   1.361  0.00  0.00    +0.055 A 
ATOM      6  S   UNL     1      -0.277  -3.399   1.694  0.00  0.00    -0.085 S 
ATOM      7 BR   UNL     1       0.434  -6.638   1.576  0.00  0.00    -0.043 Br
ENDBRANCH   1   2
BRANCH   1   9
ATOM      8  C   UNL     1       0.605  -0.608  -1.279  0.00  0.00    -0.012 C 
ATOM      9  C   UNL     1      -0.162  -0.201  -0.019  0.00  0.00    -0.056 C 
BRANCH   9  10
ATOM     10  N   UNL     1      -1.468  -0.873  -0.002  0.00  0.00    +0.381 N 
ATOM     11  H   UNL     1      -1.974  -0.605   0.828  0.00  0.00    -0.090 HD
ATOM     12  H   UNL     1      -1.996  -0.604  -0.819  0.00  0.00    -0.090 HD
ATOM     13  H   UNL     1      -1.332  -1.873  -0.004  0.00  0.00    -0.090 HD
ENDBRANCH   9  10
ENDBRANCH   1   9
BRANCH   1  14
ATOM     14  N   UNL     1      -0.103  -0.226   2.429  0.00  0.00    -0.291 NA
ATOM     15  C   UNL     1       0.542  -0.765   3.633  0.00  0.00    +0.106 C 
BRANCH  14  16
ATOM     16  C   UNL     1      -0.247   1.233   2.517  0.00  0.00    +0.180 C 
BRANCH  16  17
ATOM     17  C   UNL     1      -1.322   1.572   3.518  0.00  0.00    +0.230 C 
ATOM     18  O   UNL     1      -1.910   0.685   4.100  0.00  0.00    -0.274 OA
ATOM     19  N   UNL     1      -1.630   2.860   3.767  0.00  0.00    -0.300 N 
ATOM     20  C   UNL     1      -1.004   4.029   3.131  0.00  0.00    +0.108 C 
ATOM     21  C   UNL     1      -1.655   5.287   3.743  0.00  0.00    +0.020 C 
ATOM     22  C   UNL     1      -2.210   4.768   5.095  0.00  0.00    +0.020 C 
ATOM     23  C   UNL     1      -2.655   3.331   4.716  0.00  0.00    +0.108 C 
ENDBRANCH  16  17
ENDBRANCH  14  16
ENDBRANCH   1  14
TORSDOF 6
