REMARK  Name = ZINC40367939
REMARK  15 active torsions:
REMARK  status: ('A' for Active; 'I' for Inactive)
REMARK    1  A    between atoms: C_1  and  C_2
REMARK    2  A    between atoms: C_2  and  C_4
REMARK    3  A    between atoms: C_2  and  N_19
REMARK    4  A    between atoms: N_14  and  C_15
REMARK    5  A    between atoms: C_15  and  C_16
REMARK    6  A    between atoms: C_16  and  O_17
REMARK    7  A    between atoms: O_17  and  C_18
REMARK    8  A    between atoms: N_19  and  C_20
REMARK    9  A    between atoms: C_20  and  C_21
REMARK   10  A    between atoms: C_21  and  C_22
REMARK   11  A    between atoms: C_22  and  C_23
REMARK   12  A    between atoms: C_23  and  C_24
REMARK   13  A    between atoms: C_24  and  C_25
REMARK   14  A    between atoms: C_25  and  N_26
REMARK   15  A    between atoms: C_27  and  C_29
REMARK                            x       y       z     vdW  Elec       q    Type
REMARK                         _______ _______ _______ _____ _____    ______ ____
ROOT
ATOM      1  N   UNL     1      -1.400  -0.613  -1.053  0.00  0.00    -0.288 N 
ATOM      2  C   UNL     1      -1.939   0.241  -1.945  0.00  0.00    +0.247 C 
ATOM      3  O   UNL     1      -3.101   0.582  -1.834  0.00  0.00    -0.270 OA
ENDROOT
BRANCH   2   4
ATOM      4  C   UNL     1      -1.119   0.763  -3.058  0.00  0.00    +0.038 A 
ATOM      5  C   UNL     1       0.267   0.864  -2.921  0.00  0.00    +0.013 A 
ATOM      6  C   UNL     1       1.027   1.351  -3.963  0.00  0.00    +0.002 A 
ATOM      7  C   UNL     1       0.420   1.741  -5.144  0.00  0.00    +0.020 A 
ATOM      8  C   UNL     1      -0.953   1.644  -5.288  0.00  0.00    +0.042 A 
ATOM      9  C   UNL     1      -1.725   1.152  -4.253  0.00  0.00    +0.033 A 
ATOM     10 CL   UNL     1      -1.706   2.135  -6.773  0.00  0.00    -0.084 Cl
ENDBRANCH   2   4
BRANCH   1  12
ATOM     11  C   UNL     1       0.280   1.056  -0.444  0.00  0.00    +0.036 C 
ATOM     12  C   UNL     1      -0.013  -0.435  -0.615  0.00  0.00    +0.139 C 
BRANCH  12  13
ATOM     13  C   UNL     1       0.918  -1.016  -1.647  0.00  0.00    +0.133 A 
ATOM     14  N   UNL     1       0.432  -1.328  -2.810  0.00  0.00    -0.232 NA
ATOM     15  C   UNL     1       1.210  -1.855  -3.788  0.00  0.00    +0.078 A 
ATOM     16  C   UNL     1       0.687  -2.190  -5.039  0.00  0.00    +0.028 A 
ATOM     17  C   UNL     1       1.513  -2.722  -6.003  0.00  0.00    +0.002 A 
ATOM     18  C   UNL     1       2.862  -2.930  -5.748  0.00  0.00    +0.001 A 
ATOM     19  C   UNL     1       3.401  -2.607  -4.522  0.00  0.00    +0.015 A 
ATOM     20  C   UNL     1       2.582  -2.067  -3.533  0.00  0.00    +0.065 A 
ATOM     21  C   UNL     1       3.102  -1.703  -2.206  0.00  0.00    +0.262 A 
ATOM     22  O   UNL     1       4.274  -1.861  -1.921  0.00  0.00    -0.267 OA
ATOM     23  N   UNL     1       2.226  -1.181  -1.316  0.00  0.00    -0.292 N 
BRANCH  23  24
ATOM     24  C   UNL     1       2.690  -0.794   0.018  0.00  0.00    +0.154 C 
BRANCH  24  25
ATOM     25  C   UNL     1       2.649  -2.011   0.945  0.00  0.00    +0.181 C 
BRANCH  25  26
ATOM     26  O   UNL     1       3.584  -2.990   0.487  0.00  0.00    -0.381 OA
ATOM     27  C   UNL     1       3.625  -4.173   1.288  0.00  0.00    +0.194 C 
ENDBRANCH  25  26
ENDBRANCH  24  25
ENDBRANCH  23  24
ENDBRANCH  12  13
ENDBRANCH   1  12
BRANCH   1  28
ATOM     28  C   UNL     1      -2.200  -1.720  -0.522  0.00  0.00    +0.109 C 
BRANCH  28  29
ATOM     29  C   UNL     1      -2.928  -1.261   0.743  0.00  0.00    +0.019 C 
BRANCH  29  30
ATOM     30  C   UNL     1      -3.763  -2.416   1.298  0.00  0.00    +0.001 C 
BRANCH  30  31
ATOM     31  C   UNL     1      -4.491  -1.957   2.563  0.00  0.00    -0.002 C 
BRANCH  31  32
ATOM     32  C   UNL     1      -5.327  -3.113   3.119  0.00  0.00    -0.020 C 
BRANCH  32  33
ATOM     33  C   UNL     1      -6.055  -2.654   4.383  0.00  0.00    -0.086 C 
BRANCH  33  34
ATOM     34  N   UNL     1      -6.857  -3.763   4.916  0.00  0.00    +0.378 N 
ATOM     35  H   UNL     1      -7.337  -3.461   5.751  0.00  0.00    -0.090 HD
ATOM     36  H   UNL     1      -7.533  -4.052   4.225  0.00  0.00    -0.090 HD
ATOM     37  H   UNL     1      -6.252  -4.539   5.139  0.00  0.00    -0.090 HD
ENDBRANCH  33  34
ENDBRANCH  32  33
ENDBRANCH  31  32
ENDBRANCH  30  31
ENDBRANCH  29  30
ENDBRANCH  28  29
ENDBRANCH   1  28
TORSDOF 13
