REMARK  Name = ZINC12523072
REMARK  10 active torsions:
REMARK  status: ('A' for Active; 'I' for Inactive)
REMARK    1  A    between atoms: C_1  and  C_2
REMARK    2  A    between atoms: C_2  and  C_3
REMARK    3  A    between atoms: C_8  and  N_9
REMARK    4  A    between atoms: C_12  and  C_17
REMARK    5  A    between atoms: C_17  and  S_18
REMARK    6  A    between atoms: S_18  and  C_19
REMARK    7  A    between atoms: C_19  and  C_20
REMARK    8  A    between atoms: N_22  and  C_23
REMARK    9  A    between atoms: C_24  and  C_31
REMARK   10  A    between atoms: C_26  and  C_30
REMARK                            x       y       z     vdW  Elec       q    Type
REMARK                         _______ _______ _______ _____ _____    ______ ____
ROOT
ATOM      1  N   UNL     1       3.075   0.288   0.349  0.00  0.00    -0.283 N 
ATOM      2  C   UNL     1       2.422  -0.917   0.525  0.00  0.00    +0.224 A 
ATOM      3  N   UNL     1       1.097  -0.979   0.414  0.00  0.00    -0.198 NA
ATOM      4  C   UNL     1       0.471  -2.131   0.582  0.00  0.00    +0.146 A 
ATOM      5  N   UNL     1       1.158  -3.225   0.861  0.00  0.00    -0.199 NA
ATOM      6  C   UNL     1       2.483  -3.171   0.974  0.00  0.00    +0.217 A 
ATOM      7  N   UNL     1       3.115  -2.014   0.805  0.00  0.00    -0.181 NA
ATOM      8  N   UNL     1       3.199  -4.314   1.266  0.00  0.00    -0.327 N 
ATOM      9  H   UNL     1       2.579   1.071   0.062  0.00  0.00    +0.155 HD
ATOM     10  H   UNL     1       2.736  -5.157   1.390  0.00  0.00    +0.145 HD
ATOM     11  H   UNL     1       4.164  -4.273   1.348  0.00  0.00    +0.145 HD
ENDROOT
BRANCH   1  17
ATOM     12  C   UNL     1       5.199   1.367  -0.040  0.00  0.00    -0.026 A 
ATOM     13  C   UNL     1       6.558   1.454   0.195  0.00  0.00    +0.005 A 
ATOM     14  C   UNL     1       7.172   0.558   1.050  0.00  0.00    +0.000 A 
ATOM     15  C   UNL     1       6.428  -0.428   1.673  0.00  0.00    +0.002 A 
ATOM     16  C   UNL     1       5.069  -0.517   1.447  0.00  0.00    +0.023 A 
ATOM     17  C   UNL     1       4.450   0.378   0.584  0.00  0.00    +0.037 A 
BRANCH  12  19
ATOM     18  C   UNL     1       3.946   3.503  -0.163  0.00  0.00    +0.009 C 
ATOM     19  C   UNL     1       4.531   2.344  -0.973  0.00  0.00    +0.033 C 
ENDBRANCH  12  19
ENDBRANCH   1  17
BRANCH   4  20
ATOM     20  C   UNL     1      -1.029  -2.197   0.455  0.00  0.00    +0.145 C 
BRANCH  20  21
ATOM     21  S   UNL     1      -1.475  -2.551  -1.267  0.00  0.00    -0.144 S 
BRANCH  21  22
ATOM     22  C   UNL     1      -3.289  -2.597  -1.250  0.00  0.00    +0.165 C 
BRANCH  22  23
ATOM     23  C   UNL     1      -3.797  -2.887  -2.638  0.00  0.00    +0.227 C 
ATOM     24  O   UNL     1      -3.013  -3.048  -3.550  0.00  0.00    -0.275 OA
ATOM     25  N   UNL     1      -5.123  -2.969  -2.867  0.00  0.00    -0.283 N 
ATOM     26  H   UNL     1      -5.751  -2.761  -2.158  0.00  0.00    +0.155 HD
BRANCH  25  27
ATOM     27  C   UNL     1      -5.593  -3.353  -4.129  0.00  0.00    +0.055 A 
ATOM     28  C   UNL     1      -6.516  -4.383  -4.243  0.00  0.00    -0.028 A 
ATOM     29  C   UNL     1      -6.979  -4.760  -5.489  0.00  0.00    +0.008 A 
ATOM     30  C   UNL     1      -6.523  -4.112  -6.622  0.00  0.00    -0.049 A 
ATOM     31  C   UNL     1      -5.603  -3.085  -6.513  0.00  0.00    +0.025 A 
ATOM     32  C   UNL     1      -5.141  -2.700  -5.269  0.00  0.00    +0.063 A 
ATOM     33 CL   UNL     1      -3.991  -1.406  -5.131  0.00  0.00    -0.082 Cl
ATOM     34  C   UNL     1      -7.029  -4.526  -7.980  0.00  0.00    +0.044 C 
ATOM     35  C   UNL     1      -7.013  -5.091  -3.009  0.00  0.00    +0.046 C 
ENDBRANCH  25  27
ENDBRANCH  22  23
ENDBRANCH  21  22
ENDBRANCH  20  21
ENDBRANCH   4  20
TORSDOF 7
