REMARK  Name = ZINC28731452
REMARK  14 active torsions:
REMARK  status: ('A' for Active; 'I' for Inactive)
REMARK    1  A    between atoms: C_1  and  C_2
REMARK    2  A    between atoms: C_2  and  C_3
REMARK    3  A    between atoms: C_3  and  C_4
REMARK    4  A    between atoms: C_7  and  C_10
REMARK    5  A    between atoms: C_10  and  C_12
REMARK    6  A    between atoms: C_10  and  N_15
REMARK    7  A    between atoms: C_12  and  C_13
REMARK    8  A    between atoms: C_12  and  C_14
REMARK    9  A    between atoms: N_15  and  C_16
REMARK   10  A    between atoms: C_16  and  C_17
REMARK   11  A    between atoms: N_19  and  N_20
REMARK   12  A    between atoms: C_23  and  C_27
REMARK   13  A    between atoms: C_23  and  C_28
REMARK   14  A    between atoms: C_28  and  C_29
REMARK                            x       y       z     vdW  Elec       q    Type
REMARK                         _______ _______ _______ _____ _____    ______ ____
ROOT
ATOM      1  N   UNL     1      -2.957   4.397   4.660  0.00  0.00    +0.389 N 
ATOM      2  H   UNL     1      -2.032   4.907   4.967  0.00  0.00    -0.084 HD
ATOM      3  H   UNL     1      -3.213   4.691   3.631  0.00  0.00    -0.084 HD
ENDROOT
BRANCH   1   4
ATOM      4  C   UNL     1      -2.757   2.943   4.719  0.00  0.00    -0.038 C 
BRANCH   4   8
ATOM      5  C   UNL     1      -1.095   1.584   1.026  0.00  0.00    -0.047 A 
ATOM      6  C   UNL     1      -0.658   2.770   1.585  0.00  0.00    +0.004 A 
ATOM      7  C   UNL     1      -1.199   3.212   2.778  0.00  0.00    +0.002 A 
ATOM      8  C   UNL     1      -2.170   2.464   3.416  0.00  0.00    -0.061 A 
ATOM      9  C   UNL     1      -2.604   1.275   2.859  0.00  0.00    +0.002 A 
ATOM     10  C   UNL     1      -2.066   0.835   1.664  0.00  0.00    +0.004 A 
BRANCH   5  11
ATOM     11  C   UNL     1      -0.508   1.104  -0.277  0.00  0.00    +0.035 C 
BRANCH  11  13
ATOM     12  C   UNL     1      -0.739   1.167  -2.764  0.00  0.00    +0.004 C 
ATOM     13  C   UNL     1      -1.334   1.654  -1.441  0.00  0.00    +0.001 C 
ENDBRANCH  11  13
ENDBRANCH   5  11
ENDBRANCH   4   8
BRANCH   4  14
ATOM     14  C   UNL     1      -1.799   2.606   5.864  0.00  0.00    -0.027 C 
ATOM     15  C   UNL     1      -1.685   1.087   6.002  0.00  0.00    +0.006 C 
ATOM     16  C   UNL     1      -0.420   3.197   5.566  0.00  0.00    +0.006 C 
ENDBRANCH   4  14
ENDBRANCH   1   4
BRANCH   1  17
ATOM     17  C   UNL     1      -4.045   4.815   5.554  0.00  0.00    +0.017 C 
BRANCH  17  18
ATOM     18  C   UNL     1      -4.186   6.315   5.506  0.00  0.00    +0.213 C 
ATOM     19  O   UNL     1      -3.453   6.971   4.796  0.00  0.00    -0.276 OA
ATOM     20  N   UNL     1      -5.128   6.927   6.251  0.00  0.00    -0.225 N 
ATOM     21  H   UNL     1      -5.793   6.332   6.894  0.00  0.00    +0.173 HD
BRANCH  20  22
ATOM     22  N   UNL     1      -5.260   8.321   6.206  0.00  0.00    -0.137 N 
ATOM     23  C   UNL     1      -4.850   9.152   7.185  0.00  0.00    +0.263 C 
ATOM     24  O   UNL     1      -4.319   8.846   8.231  0.00  0.00    -0.271 OA
ATOM     25  C   UNL     1      -5.191  10.549   6.705  0.00  0.00    +0.111 C 
ATOM     26  N   UNL     1      -5.818  10.321   5.392  0.00  0.00    -0.284 N 
ATOM     27  C   UNL     1      -5.812   8.992   5.189  0.00  0.00    +0.326 C 
ATOM     28  O   UNL     1      -6.260   8.459   4.192  0.00  0.00    -0.251 OA
ATOM     29  C   UNL     1      -3.925  11.396   6.558  0.00  0.00    +0.041 C 
ATOM     30  H   UNL     1      -6.177  11.175   4.798  0.00  0.00    +0.151 HD
BRANCH  25  31
ATOM     31  C   UNL     1      -6.177  11.221   7.663  0.00  0.00    +0.032 C 
ATOM     32  C   UNL     1      -6.683  12.525   7.043  0.00  0.00    +0.006 C 
ENDBRANCH  25  31
ENDBRANCH  20  22
ENDBRANCH  17  18
ENDBRANCH   1  17
TORSDOF 9
