REMARK  Name = ZINC43004516
REMARK  17 active torsions:
REMARK  status: ('A' for Active; 'I' for Inactive)
REMARK    1  A    between atoms: C_1  and  C_2
REMARK    2  A    between atoms: C_2  and  N_3
REMARK    3  A    between atoms: N_3  and  C_4
REMARK    4  A    between atoms: N_3  and  C_6
REMARK    5  A    between atoms: C_4  and  C_5
REMARK    6  A    between atoms: C_6  and  C_7
REMARK    7  A    between atoms: C_7  and  C_8
REMARK    8  A    between atoms: C_8  and  N_9
REMARK    9  A    between atoms: N_12  and  C_13
REMARK   10  A    between atoms: C_13  and  C_14
REMARK   11  A    between atoms: C_14  and  C_15
REMARK   12  A    between atoms: C_15  and  N_16
REMARK   13  A    between atoms: C_22  and  O_24
REMARK   14  A    between atoms: O_24  and  C_25
REMARK   15  A    between atoms: C_25  and  C_26
REMARK   16  A    between atoms: C_25  and  C_27
REMARK   17  A    between atoms: C_25  and  C_28
REMARK                            x       y       z     vdW  Elec       q    Type
REMARK                         _______ _______ _______ _____ _____    ______ ____
ROOT
ATOM      1  C   UNL     1       2.951  -7.655  -5.549  0.00  0.00    +0.104 C 
ENDROOT
BRANCH   1   5
ATOM      2  N   UNL     1       2.127  -4.497  -3.857  0.00  0.00    -0.299 N 
ATOM      3  C   UNL     1       2.173  -5.809  -4.163  0.00  0.00    +0.300 C 
ATOM      4  O   UNL     1       1.559  -6.612  -3.488  0.00  0.00    -0.253 OA
ATOM      5  N   UNL     1       2.900  -6.229  -5.217  0.00  0.00    -0.299 N 
ATOM      6  H   UNL     1       2.616  -3.856  -4.395  0.00  0.00    +0.150 HD
ATOM      7  H   UNL     1       3.390  -5.588  -5.755  0.00  0.00    +0.150 HD
BRANCH   2   8
ATOM      8  C   UNL     1       1.336  -4.039  -2.711  0.00  0.00    +0.104 C 
BRANCH   8   9
ATOM      9  C   UNL     1       1.453  -2.519  -2.586  0.00  0.00    +0.000 C 
BRANCH   9  10
ATOM     10  C   UNL     1       0.628  -2.041  -1.389  0.00  0.00    -0.077 C 
BRANCH  10  11
ATOM     11  N   UNL     1       0.826  -0.598  -1.203  0.00  0.00    +0.379 N 
ATOM     12  H   UNL     1       1.813  -0.402  -1.119  0.00  0.00    -0.082 HD
BRANCH  11  14
ATOM     13  C   UNL     1       0.597   1.616  -2.224  0.00  0.00    -0.017 C 
ATOM     14  C   UNL     1       0.280   0.126  -2.359  0.00  0.00    -0.082 C 
ENDBRANCH  11  14
BRANCH  11  15
ATOM     15  C   UNL     1       0.136  -0.162   0.018  0.00  0.00    -0.082 C 
ATOM     16  C   UNL     1       0.810  -0.793   1.238  0.00  0.00    -0.017 C 
ENDBRANCH  11  15
ENDBRANCH  10  11
ENDBRANCH   9  10
ENDBRANCH   8   9
ENDBRANCH   2   8
ENDBRANCH   1   5
BRANCH   1  17
ATOM     17  C   UNL     1       3.838  -7.861  -6.778  0.00  0.00    +0.000 C 
BRANCH  17  18
ATOM     18  C   UNL     1       3.891  -9.351  -7.125  0.00  0.00    -0.077 C 
BRANCH  18  19
ATOM     19  N   UNL     1       4.743  -9.548  -8.306  0.00  0.00    +0.382 N 
ATOM     20  C   UNL     1       4.129  -8.890  -9.466  0.00  0.00    -0.059 C 
ATOM     21  C   UNL     1       5.071  -8.997 -10.670  0.00  0.00    +0.092 C 
ATOM     22  N   UNL     1       5.400 -10.416 -10.880  0.00  0.00    -0.271 N 
ATOM     23  C   UNL     1       5.869 -11.197  -9.725  0.00  0.00    +0.092 C 
ATOM     24  C   UNL     1       4.890 -10.986  -8.566  0.00  0.00    -0.059 C 
ATOM     25  C   UNL     1       5.274 -10.983 -12.096  0.00  0.00    +0.403 C 
ATOM     26  O   UNL     1       4.885 -10.322 -13.038  0.00  0.00    -0.226 OA
ATOM     27  H   UNL     1       5.652  -9.144  -8.134  0.00  0.00    -0.082 HD
BRANCH  25  28
ATOM     28  O   UNL     1       5.581 -12.283 -12.267  0.00  0.00    -0.445 OA
BRANCH  28  29
ATOM     29  C   UNL     1       5.424 -12.819 -13.582  0.00  0.00    +0.107 C 
ATOM     30  C   UNL     1       6.324 -12.053 -14.555  0.00  0.00    +0.055 C 
ATOM     31  C   UNL     1       5.817 -14.298 -13.581  0.00  0.00    +0.055 C 
ATOM     32  C   UNL     1       3.965 -12.680 -14.019  0.00  0.00    +0.055 C 
ENDBRANCH  28  29
ENDBRANCH  25  28
ENDBRANCH  18  19
ENDBRANCH  17  18
ENDBRANCH   1  17
TORSDOF 12
