REMARK  Name = ZINC39856216
REMARK  9 active torsions:
REMARK  status: ('A' for Active; 'I' for Inactive)
REMARK    1  A    between atoms: C_1  and  C_2
REMARK    2  A    between atoms: C_6  and  C_7
REMARK    3  A    between atoms: C_7  and  O_9
REMARK    4  A    between atoms: O_9  and  C_10
REMARK    5  A    between atoms: C_12  and  C_20
REMARK    6  A    between atoms: C_12  and  C_21
REMARK    7  A    between atoms: N_15  and  N_16
REMARK    8  A    between atoms: N_16  and  C_17
REMARK    9  A    between atoms: C_17  and  N_19
REMARK                            x       y       z     vdW  Elec       q    Type
REMARK                         _______ _______ _______ _____ _____    ______ ____
ROOT
ATOM      1  C   UNL     1      -0.018   1.503   0.010  0.00  0.00    +0.048 C 
ATOM      2  C   UNL     1       0.002  -0.004   0.002  0.00  0.00    +0.011 A 
ATOM      3  C   UNL     1       0.008  -0.838  -1.122  0.00  0.00    +0.042 A 
ATOM      4  C   UNL     1       0.026  -2.137  -0.672  0.00  0.00    +0.116 A 
ATOM      5  O   UNL     1       0.034  -2.112   0.658  0.00  0.00    -0.452 OA
ATOM      6  C   UNL     1       0.024  -0.831   1.092  0.00  0.00    +0.215 A 
ATOM      7  C   UNL     1       0.032  -3.326  -1.599  0.00  0.00    +0.081 C 
ATOM      8  C   UNL     1      -0.492  -2.902  -2.974  0.00  0.00    -0.023 C 
ATOM      9  C   UNL     1       0.279  -1.685  -3.494  0.00  0.00    +0.064 C 
ATOM     10  C   UNL     1       0.001  -0.512  -2.566  0.00  0.00    +0.070 C 
ATOM     11  N   UNL     1      -0.226   0.687  -3.007  0.00  0.00    -0.185 NA
ATOM     12  C   UNL     1      -0.326  -4.062  -3.957  0.00  0.00    +0.011 C 
ATOM     13  C   UNL     1      -1.976  -2.548  -2.860  0.00  0.00    +0.011 C 
ENDROOT
BRANCH   6  14
ATOM     14  C   UNL     1       0.032  -0.401   2.493  0.00  0.00    +0.375 C 
ATOM     15  O   UNL     1       0.019   0.784   2.765  0.00  0.00    -0.241 OA
BRANCH  14  16
ATOM     16  O   UNL     1       0.055  -1.320   3.480  0.00  0.00    -0.462 OA
ATOM     17  C   UNL     1       0.061  -0.830   4.822  0.00  0.00    +0.280 C 
ENDBRANCH  14  16
ENDBRANCH   6  14
BRANCH  11  18
ATOM     18  N   UNL     1      -0.221   0.938  -4.385  0.00  0.00    -0.218 N 
ATOM     19  H   UNL     1      -0.048   0.216  -5.010  0.00  0.00    +0.176 HD
BRANCH  18  20
ATOM     20  C   UNL     1      -0.458   2.184  -4.844  0.00  0.00    +0.147 C 
ATOM     21  S   UNL     1      -0.451   2.491  -6.528  0.00  0.00    -0.017 S 
BRANCH  20  22
ATOM     22  N   UNL     1      -0.699   3.187  -3.977  0.00  0.00    -0.339 N 
ATOM     23  H   UNL     1      -0.702   3.012  -3.023  0.00  0.00    +0.144 HD
ATOM     24  H   UNL     1      -0.869   4.083  -4.307  0.00  0.00    +0.144 HD
ENDBRANCH  20  22
ENDBRANCH  18  20
ENDBRANCH  11  18
TORSDOF 5
