REMARK  Name = ZINC65862330
REMARK  4 active torsions:
REMARK  status: ('A' for Active; 'I' for Inactive)
REMARK    1  A    between atoms: C_9  and  C_10
REMARK    2  A    between atoms: C_11  and  C_12
REMARK    3  A    between atoms: N_18  and  C_20
REMARK    4  A    between atoms: C_20  and  C_21
REMARK                            x       y       z     vdW  Elec       q    Type
REMARK                         _______ _______ _______ _____ _____    ______ ____
ROOT
ATOM      1  C   UNL     1       7.028  -0.890   0.831  0.00  0.00    +0.242 C 
ATOM      2  O   UNL     1       7.475  -0.096   0.022  0.00  0.00    -0.270 OA
ATOM      3  N   UNL     1       7.851  -1.490   1.714  0.00  0.00    -0.265 N 
ATOM      4  C   UNL     1       9.221  -1.200   1.702  0.00  0.00    +0.147 A 
ATOM      5  C   UNL     1       9.868  -0.305   0.833  0.00  0.00    +0.065 A 
ATOM      6  C   UNL     1      11.184  -0.306   1.141  0.00  0.00    +0.111 A 
ATOM      7  N   UNL     1      11.370  -1.167   2.164  0.00  0.00    -0.261 N 
ATOM      8  N   UNL     1      10.125  -1.712   2.504  0.00  0.00    -0.156 NA
ATOM      9  H   UNL     1       7.495  -2.122   2.357  0.00  0.00    +0.157 HD
ENDROOT
BRANCH   1  11
ATOM     10  C   UNL     1       4.817  -0.577  -0.049  0.00  0.00    +0.034 C 
ATOM     11  C   UNL     1       5.649  -1.182   0.843  0.00  0.00    +0.070 C 
BRANCH  10  20
ATOM     12  C   UNL     1      -0.016   1.359   0.009  0.00  0.00    +0.005 A 
ATOM     13  C   UNL     1       1.192   2.069   0.002  0.00  0.00    +0.018 A 
ATOM     14  C   UNL     1       2.370   1.403  -0.013  0.00  0.00    +0.093 A 
ATOM     15  N   UNL     1       2.398   0.043  -0.021  0.00  0.00    -0.298 N 
ATOM     16  C   UNL     1       1.236  -0.678  -0.014  0.00  0.00    +0.140 A 
ATOM     17  C   UNL     1       0.002  -0.004   0.002  0.00  0.00    +0.047 A 
ATOM     18  N   UNL     1       1.539  -1.975  -0.024  0.00  0.00    -0.216 NA
ATOM     19  C   UNL     1       2.853  -2.131  -0.038  0.00  0.00    +0.155 A 
ATOM     20  C   UNL     1       3.439  -0.868  -0.036  0.00  0.00    +0.085 A 
ATOM     21 CL   UNL     1       3.700  -3.646  -0.054  0.00  0.00    -0.060 Cl
ENDBRANCH  10  20
ENDBRANCH   1  11
BRANCH   7  22
ATOM     22  C   UNL     1      12.649  -1.474   2.809  0.00  0.00    +0.238 C 
BRANCH  22  23
ATOM     23  C   UNL     1      12.533  -1.232   4.293  0.00  0.00    +0.232 C 
ATOM     24  O   UNL     1      11.486  -0.843   4.764  0.00  0.00    -0.274 OA
ATOM     25  N   UNL     1      13.594  -1.450   5.095  0.00  0.00    -0.328 N 
ATOM     26  H   UNL     1      14.431  -1.762   4.718  0.00  0.00    +0.145 HD
ATOM     27  H   UNL     1      13.520  -1.294   6.050  0.00  0.00    +0.145 HD
ENDBRANCH  22  23
ENDBRANCH   7  22
TORSDOF 4
