REMARK  Name = ZINC24890976
REMARK  7 active torsions:
REMARK  status: ('A' for Active; 'I' for Inactive)
REMARK    1  A    between atoms: C_4  and  N_11
REMARK    2  A    between atoms: C_5  and  C_7
REMARK    3  A    between atoms: C_12  and  C_25
REMARK    4  A    between atoms: C_15  and  S_16
REMARK    5  A    between atoms: S_16  and  C_17
REMARK    6  A    between atoms: C_17  and  C_18
REMARK    7  A    between atoms: C_18  and  C_19
REMARK                            x       y       z     vdW  Elec       q    Type
REMARK                         _______ _______ _______ _____ _____    ______ ____
ROOT
ATOM      1  N   UNL     1       2.404   1.105  -0.015  0.00  0.00    -0.270 N 
ATOM      2  C   UNL     1       3.122   0.705  -1.121  0.00  0.00    +0.169 A 
ATOM      3  N   UNL     1       4.203   0.103  -0.681  0.00  0.00    -0.128 NA
ATOM      4  N   UNL     1       4.212   0.099   0.604  0.00  0.00    -0.122 NA
ATOM      5  C   UNL     1       3.140   0.702   1.066  0.00  0.00    +0.196 A 
ENDROOT
BRANCH   2   6
ATOM      6  C   UNL     1       2.745   0.913  -2.535  0.00  0.00    +0.021 A 
ATOM      7  C   UNL     1       1.439   1.276  -2.866  0.00  0.00    +0.012 A 
ATOM      8  C   UNL     1       1.094   1.474  -4.187  0.00  0.00    +0.002 A 
ATOM      9  C   UNL     1       2.038   1.304  -5.184  0.00  0.00    +0.020 A 
ATOM     10  C   UNL     1       3.335   0.939  -4.864  0.00  0.00    +0.042 A 
ATOM     11  C   UNL     1       3.693   0.743  -3.545  0.00  0.00    +0.031 A 
ATOM     12 CL   UNL     1       4.512   0.728  -6.122  0.00  0.00    -0.084 Cl
ENDBRANCH   2   6
BRANCH   1  16
ATOM     13  C   UNL     1      -1.237   3.134   0.031  0.00  0.00    +0.001 A 
ATOM     14  C   UNL     1      -1.217   1.751   0.017  0.00  0.00    +0.002 A 
ATOM     15  C   UNL     1      -0.013   1.076   0.008  0.00  0.00    +0.027 A 
ATOM     16  C   UNL     1       1.180   1.787   0.000  0.00  0.00    +0.062 A 
ATOM     17  C   UNL     1       1.157   3.175   0.008  0.00  0.00    +0.079 A 
ATOM     18  C   UNL     1      -0.051   3.844   0.023  0.00  0.00    +0.014 A 
BRANCH  17  19
ATOM     19  C   UNL     1       2.449   3.951   0.000  0.00  0.00    +0.419 C 
ATOM     20  F   UNL     1       2.170   5.322   0.010  0.00  0.00    -0.166 F 
ATOM     21  F   UNL     1       3.199   3.619   1.134  0.00  0.00    -0.166 F 
ATOM     22  F   UNL     1       3.178   3.631  -1.150  0.00  0.00    -0.166 F 
ENDBRANCH  17  19
ENDBRANCH   1  16
BRANCH   5  23
ATOM     23  S   UNL     1       2.726   0.943   2.762  0.00  0.00    -0.085 S 
BRANCH  23  24
ATOM     24  C   UNL     1       4.152   0.154   3.549  0.00  0.00    +0.086 C 
BRANCH  24  25
ATOM     25  C   UNL     1       4.009   0.243   5.070  0.00  0.00    +0.107 C 
BRANCH  25  26
ATOM     26  C   UNL     1       5.196  -0.413   5.725  0.00  0.00    +0.221 C 
ATOM     27  O   UNL     1       6.070  -0.904   5.044  0.00  0.00    -0.275 OA
ATOM     28  N   UNL     1       5.286  -0.455   7.069  0.00  0.00    -0.240 N 
ATOM     29  C   UNL     1       6.348  -1.043   7.656  0.00  0.00    +0.303 C 
ATOM     30  O   UNL     1       7.225  -1.535   6.972  0.00  0.00    -0.253 OA
ATOM     31  N   UNL     1       6.438  -1.085   9.000  0.00  0.00    -0.313 N 
ATOM     32  H   UNL     1       4.493  -0.010   7.688  0.00  0.00    +0.159 HD
ATOM     33  H   UNL     1       7.305  -1.564   9.478  0.00  0.00    +0.146 HD
ATOM     34  H   UNL     1       5.645  -0.639   9.618  0.00  0.00    +0.146 HD
ENDBRANCH  25  26
ENDBRANCH  24  25
ENDBRANCH  23  24
ENDBRANCH   5  23
TORSDOF 7
