REMARK  Name = ZINC65508360
REMARK  7 active torsions:
REMARK  status: ('A' for Active; 'I' for Inactive)
REMARK    1  A    between atoms: C_1  and  C_2
REMARK    2  A    between atoms: C_2  and  C_4
REMARK    3  A    between atoms: C_2  and  N_15
REMARK    4  A    between atoms: C_9  and  N_10
REMARK    5  A    between atoms: C_24  and  C_26
REMARK    6  A    between atoms: C_26  and  C_27
REMARK    7  A    between atoms: C_27  and  N_28
REMARK                            x       y       z     vdW  Elec       q    Type
REMARK                         _______ _______ _______ _____ _____    ______ ____
ROOT
ATOM      1  N   UNL     1       0.784  -0.450   1.158  0.00  0.00    -0.322 N 
ATOM      2  C   UNL     1       0.153  -0.723   2.353  0.00  0.00    +0.130 A 
ATOM      3  C   UNL     1       0.891  -1.149   3.484  0.00  0.00    +0.040 A 
ATOM      4  C   UNL     1       2.280  -1.312   3.449  0.00  0.00    +0.013 A 
ATOM      5  C   UNL     1       2.937  -1.725   4.570  0.00  0.00    +0.001 A 
ATOM      6  C   UNL     1       2.244  -1.986   5.749  0.00  0.00    +0.002 A 
ATOM      7  C   UNL     1       0.891  -1.837   5.816  0.00  0.00    +0.028 A 
ATOM      8  C   UNL     1       0.184  -1.414   4.683  0.00  0.00    +0.076 A 
ATOM      9  N   UNL     1      -1.147  -1.250   4.695  0.00  0.00    -0.232 NA
ATOM     10  C   UNL     1      -1.778  -0.853   3.616  0.00  0.00    +0.130 A 
ATOM     11  N   UNL     1      -1.160  -0.588   2.476  0.00  0.00    -0.217 NA
ATOM     12  H   UNL     1       1.746  -0.552   1.083  0.00  0.00    +0.148 HD
ENDROOT
BRANCH   1  14
ATOM     13  C   UNL     1      -0.125   1.520   0.029  0.00  0.00    +0.033 C 
ATOM     14  C   UNL     1       0.002  -0.004   0.002  0.00  0.00    +0.101 C 
BRANCH  14  15
ATOM     15  C   UNL     1       0.696  -0.428  -1.267  0.00  0.00    -0.002 A 
ATOM     16  C   UNL     1       2.049  -0.707  -1.255  0.00  0.00    +0.007 A 
ATOM     17  C   UNL     1       2.686  -1.095  -2.419  0.00  0.00    +0.000 A 
ATOM     18  C   UNL     1       1.971  -1.206  -3.598  0.00  0.00    +0.002 A 
ATOM     19  C   UNL     1       0.619  -0.927  -3.616  0.00  0.00    +0.028 A 
ATOM     20  C   UNL     1      -0.025  -0.543  -2.448  0.00  0.00    +0.070 A 
BRANCH  20  21
ATOM     21  N   UNL     1      -1.399  -0.266  -2.462  0.00  0.00    -0.240 N 
ATOM     22  C   UNL     1      -2.216  -0.344  -3.536  0.00  0.00    +0.114 A 
ATOM     23  C   UNL     1      -3.461   0.002  -3.133  0.00  0.00    +0.041 A 
ATOM     24  C   UNL     1      -3.404   0.300  -1.768  0.00  0.00    +0.135 A 
ATOM     25  N   UNL     1      -2.171   0.135  -1.363  0.00  0.00    -0.175 NA
ENDBRANCH  20  21
ENDBRANCH  14  15
ENDBRANCH   1  14
BRANCH  10  26
ATOM     26  C   UNL     1      -3.275  -0.684   3.680  0.00  0.00    +0.057 C 
BRANCH  26  27
ATOM     27  C   UNL     1      -3.608   0.747   4.106  0.00  0.00    -0.079 C 
BRANCH  27  28
ATOM     28  N   UNL     1      -5.067   0.912   4.168  0.00  0.00    +0.378 N 
ATOM     29  H   UNL     1      -5.465   0.731   3.259  0.00  0.00    -0.090 HD
ATOM     30  H   UNL     1      -5.451   0.263   4.838  0.00  0.00    -0.090 HD
ATOM     31  H   UNL     1      -5.287   1.856   4.449  0.00  0.00    -0.090 HD
ENDBRANCH  27  28
ENDBRANCH  26  27
ENDBRANCH  10  26
TORSDOF 6
