REMARK  Name = ZINC47405977
REMARK  7 active torsions:
REMARK  status: ('A' for Active; 'I' for Inactive)
REMARK    1  A    between atoms: C_2  and  C_3
REMARK    2  A    between atoms: C_3  and  N_4
REMARK    3  A    between atoms: N_4  and  C_5
REMARK    4  A    between atoms: N_4  and  C_17
REMARK    5  A    between atoms: C_5  and  C_6
REMARK    6  A    between atoms: N_8  and  C_9
REMARK    7  A    between atoms: C_10  and  C_14
REMARK                            x       y       z     vdW  Elec       q    Type
REMARK                         _______ _______ _______ _____ _____    ______ ____
ROOT
ATOM      1  C   UNL     1       1.558   3.419   0.192  0.00  0.00    +0.021 C 
ENDROOT
BRANCH   1   2
ATOM      2  C   UNL     1       1.061   3.817   1.558  0.00  0.00    +0.201 C 
ATOM      3  O   UNL     1       0.590   2.981   2.299  0.00  0.00    -0.278 OA
ATOM      4  N   UNL     1       1.142   5.102   1.956  0.00  0.00    -0.281 N 
ATOM      5  H   UNL     1       1.519   5.771   1.364  0.00  0.00    +0.155 HD
BRANCH   4   6
ATOM      6  C   UNL     1       0.685   5.468   3.213  0.00  0.00    +0.084 A 
ATOM      7  C   UNL     1       0.682   6.731   3.785  0.00  0.00    +0.065 A 
ATOM      8  C   UNL     1       0.143   6.835   5.122  0.00  0.00    +0.022 A 
ATOM      9  C   UNL     1      -0.299   5.686   5.667  0.00  0.00    +0.048 A 
ATOM     10  S   UNL     1       0.002   4.485   4.389  0.00  0.00    -0.081 S 
BRANCH   7  11
ATOM     11  C   UNL     1       1.200   7.902   3.070  0.00  0.00    +0.244 C 
ATOM     12  O   UNL     1       1.648   7.779   1.945  0.00  0.00    -0.270 OA
ATOM     13  N   UNL     1       1.181   9.114   3.659  0.00  0.00    -0.325 N 
ATOM     14  H   UNL     1       0.824   9.212   4.556  0.00  0.00    +0.145 HD
ATOM     15  H   UNL     1       1.524   9.889   3.186  0.00  0.00    +0.145 HD
ENDBRANCH   7  11
ENDBRANCH   4   6
ENDBRANCH   1   2
BRANCH   1  16
ATOM     16  N   UNL     1       1.360   1.976  -0.000  0.00  0.00    +0.397 N 
ATOM     17  H   UNL     1       1.771   1.475   0.773  0.00  0.00    -0.079 HD
BRANCH  16  18
ATOM     18  C   UNL     1       2.002   1.556  -1.253  0.00  0.00    -0.035 C 
ATOM     19  C   UNL     1       1.439   2.365  -2.441  0.00  0.00    -0.006 C 
ATOM     20  C   UNL     1       2.673   2.514  -3.356  0.00  0.00    +0.034 C 
ATOM     21  C   UNL     1       3.866   2.430  -2.428  0.00  0.00    -0.046 A 
ATOM     22  C   UNL     1       3.481   1.877  -1.219  0.00  0.00    -0.058 A 
ATOM     23  C   UNL     1       4.414   1.701  -0.211  0.00  0.00    +0.002 A 
ATOM     24  C   UNL     1       5.730   2.074  -0.409  0.00  0.00    +0.000 A 
ATOM     25  C   UNL     1       6.117   2.625  -1.616  0.00  0.00    +0.000 A 
ATOM     26  C   UNL     1       5.184   2.805  -2.625  0.00  0.00    +0.004 A 
ENDBRANCH  16  18
BRANCH  16  27
ATOM     27  C   UNL     1      -0.078   1.683  -0.065  0.00  0.00    +0.013 C 
BRANCH  27  29
ATOM     28  C   UNL     1      -0.439  -0.934  -0.211  0.00  0.00    +0.002 C 
ATOM     29  C   UNL     1      -0.278   0.227  -0.146  0.00  0.00    -0.124 C 
ENDBRANCH  27  29
ENDBRANCH  16  27
ENDBRANCH   1  16
TORSDOF 7
