REMARK  Name = ZINC67175432
REMARK  5 active torsions:
REMARK  status: ('A' for Active; 'I' for Inactive)
REMARK    1  A    between atoms: C_7  and  C_11
REMARK    2  A    between atoms: C_11  and  C_12
REMARK    3  A    between atoms: C_12  and  C_13
REMARK    4  A    between atoms: C_13  and  N_14
REMARK    5  A    between atoms: C_15  and  C_17
REMARK                            x       y       z     vdW  Elec       q    Type
REMARK                         _______ _______ _______ _____ _____    ______ ____
ROOT
ATOM      1  C   UNL     1       2.497  -2.934   5.091  0.00  0.00    +0.104 C 
ENDROOT
BRANCH   1   2
ATOM      2  N   UNL     1       2.629  -2.332   6.420  0.00  0.00    -0.315 N 
ATOM      3  C   UNL     1       2.385  -3.069   7.521  0.00  0.00    +0.217 C 
ATOM      4  O   UNL     1       2.055  -4.231   7.412  0.00  0.00    -0.275 OA
ATOM      5  H   UNL     1       2.892  -1.402   6.507  0.00  0.00    +0.149 HD
BRANCH   3   6
ATOM      6  C   UNL     1       2.521  -2.450   8.888  0.00  0.00    +0.092 C 
ATOM      7  C   UNL     1       3.963  -1.975   9.097  0.00  0.00    +0.109 C 
ATOM      8  C   UNL     1       4.116  -1.464  10.505  0.00  0.00    +0.220 C 
ATOM      9  O   UNL     1       4.932  -0.597  10.736  0.00  0.00    -0.275 OA
ATOM     10  N   UNL     1       3.368  -1.948  11.507  0.00  0.00    -0.256 N 
ATOM     11  C   UNL     1       2.440  -2.898  11.322  0.00  0.00    +0.220 C 
ATOM     12  O   UNL     1       1.789  -3.286  12.268  0.00  0.00    -0.275 OA
ATOM     13  C   UNL     1       2.190  -3.493   9.961  0.00  0.00    +0.109 C 
ATOM     14  H   UNL     1       3.503  -1.597  12.401  0.00  0.00    +0.157 HD
ENDBRANCH   3   6
ENDBRANCH   1   2
BRANCH   1  15
ATOM     15  C   UNL     1       2.827  -1.889   4.022  0.00  0.00    +0.026 C 
BRANCH  15  16
ATOM     16  C   UNL     1       2.689  -2.518   2.635  0.00  0.00    +0.078 C 
BRANCH  16  23
ATOM     17  C   UNL     1      -0.019   1.524   0.010  0.00  0.00    +0.002 C 
ATOM     18  C   UNL     1       1.403   2.078  -0.000  0.00  0.00    +0.008 C 
ATOM     19  C   UNL     1       2.311   1.146  -0.809  0.00  0.00    +0.076 C 
ATOM     20  C   UNL     1       2.864   0.083   0.104  0.00  0.00    +0.133 A 
ATOM     21  N   UNL     1       4.102  -0.311   0.193  0.00  0.00    -0.134 NA
ATOM     22  N   UNL     1       4.193  -1.250   1.070  0.00  0.00    -0.134 NA
ATOM     23  C   UNL     1       3.015  -1.490   1.582  0.00  0.00    +0.134 A 
ATOM     24  N   UNL     1       2.144  -0.643   0.991  0.00  0.00    -0.315 N 
ATOM     25  C   UNL     1       0.711  -0.518   1.258  0.00  0.00    +0.125 C 
ATOM     26  C   UNL     1       0.002  -0.004   0.002  0.00  0.00    +0.022 C 
ENDBRANCH  16  23
ENDBRANCH  15  16
ENDBRANCH   1  15
TORSDOF 5
