REMARK  Name = ZINC38727100
REMARK  12 active torsions:
REMARK  status: ('A' for Active; 'I' for Inactive)
REMARK    1  A    between atoms: C_1  and  C_2
REMARK    2  A    between atoms: C_2  and  N_3
REMARK    3  A    between atoms: N_3  and  C_4
REMARK    4  A    between atoms: N_3  and  C_6
REMARK    5  A    between atoms: C_4  and  C_5
REMARK    6  A    between atoms: C_6  and  C_7
REMARK    7  A    between atoms: C_7  and  C_8
REMARK    8  A    between atoms: C_8  and  N_9
REMARK    9  A    between atoms: C_10  and  C_28
REMARK   10  A    between atoms: C_18  and  O_25
REMARK   11  A    between atoms: O_25  and  C_26
REMARK   12  A    between atoms: C_26  and  C_27
REMARK                            x       y       z     vdW  Elec       q    Type
REMARK                         _______ _______ _______ _____ _____    ______ ____
ROOT
ATOM      1  N   UNL     1      -4.267  -4.657   0.103  0.00  0.00    -0.284 N 
ATOM      2  C   UNL     1      -5.231  -4.811   1.204  0.00  0.00    +0.145 C 
ATOM      3  C   UNL     1      -6.473  -5.363   0.584  0.00  0.00    +0.072 A 
ATOM      4  C   UNL     1      -7.765  -5.733   1.173  0.00  0.00    +0.199 A 
ATOM      5  O   UNL     1      -8.076  -5.464   2.320  0.00  0.00    -0.287 OA
ATOM      6  C   UNL     1      -8.655  -6.464   0.240  0.00  0.00    +0.065 A 
ATOM      7  C   UNL     1      -9.831  -7.056   0.705  0.00  0.00    +0.019 A 
ATOM      8  C   UNL     1     -10.640  -7.731  -0.163  0.00  0.00    +0.046 A 
ATOM      9  C   UNL     1     -10.294  -7.830  -1.510  0.00  0.00    +0.124 A 
ATOM     10  C   UNL     1      -9.134  -7.247  -1.986  0.00  0.00    +0.092 A 
ATOM     11  C   UNL     1      -8.297  -6.552  -1.117  0.00  0.00    +0.143 A 
ATOM     12  O   UNL     1      -7.172  -5.981  -1.606  0.00  0.00    -0.449 OA
ATOM     13  C   UNL     1      -6.241  -5.508  -0.754  0.00  0.00    +0.199 A 
ATOM     14  C   UNL     1      -4.866  -5.062  -1.036  0.00  0.00    +0.283 C 
ATOM     15  O   UNL     1      -4.346  -5.061  -2.134  0.00  0.00    -0.267 OA
ENDROOT
BRANCH   2  16
ATOM     16  C   UNL     1      -5.515  -3.473   1.837  0.00  0.00    -0.021 A 
ATOM     17  C   UNL     1      -5.655  -2.349   1.043  0.00  0.00    +0.007 A 
ATOM     18  C   UNL     1      -5.915  -1.121   1.622  0.00  0.00    +0.022 A 
ATOM     19  C   UNL     1      -6.036  -1.016   2.996  0.00  0.00    +0.059 A 
ATOM     20  C   UNL     1      -5.897  -2.141   3.790  0.00  0.00    +0.060 A 
ATOM     21  C   UNL     1      -5.642  -3.370   3.209  0.00  0.00    +0.027 A 
ATOM     22 CL   UNL     1      -6.048  -2.010   5.515  0.00  0.00    -0.082 Cl
ATOM     23 CL   UNL     1      -6.362   0.526   3.723  0.00  0.00    -0.082 Cl
ENDBRANCH   2  16
BRANCH   1  24
ATOM     24  C   UNL     1      -2.898  -4.149   0.222  0.00  0.00    +0.107 C 
BRANCH  24  25
ATOM     25  C   UNL     1      -2.901  -2.630   0.038  0.00  0.00    +0.000 C 
BRANCH  25  26
ATOM     26  C   UNL     1      -1.471  -2.099   0.162  0.00  0.00    -0.077 C 
BRANCH  26  27
ATOM     27  N   UNL     1      -1.456  -0.660  -0.135  0.00  0.00    +0.379 N 
ATOM     28  H   UNL     1      -1.869  -0.500  -1.042  0.00  0.00    -0.082 HD
BRANCH  27  30
ATOM     29  C   UNL     1      -2.314   1.540   0.511  0.00  0.00    -0.017 C 
ATOM     30  C   UNL     1      -2.225   0.060   0.888  0.00  0.00    -0.082 C 
ENDBRANCH  27  30
BRANCH  27  31
ATOM     31  C   UNL     1      -0.069  -0.175  -0.137  0.00  0.00    -0.082 C 
ATOM     32  C   UNL     1       0.691  -0.808  -1.304  0.00  0.00    -0.017 C 
ENDBRANCH  27  31
ENDBRANCH  26  27
ENDBRANCH  25  26
ENDBRANCH  24  25
ENDBRANCH   1  24
BRANCH   9  33
ATOM     33  O   UNL     1     -11.105  -8.506  -2.364  0.00  0.00    -0.492 OA
BRANCH  33  34
ATOM     34  C   UNL     1     -12.289  -9.086  -1.812  0.00  0.00    +0.225 C 
ATOM     35  C   UNL     1     -13.069  -9.801  -2.917  0.00  0.00    +0.048 C 
ENDBRANCH  33  34
ENDBRANCH   9  33
TORSDOF 9
