REMARK  Name = ZINC65529814
REMARK  8 active torsions:
REMARK  status: ('A' for Active; 'I' for Inactive)
REMARK    1  A    between atoms: C_1  and  C_2
REMARK    2  A    between atoms: C_5  and  C_8
REMARK    3  A    between atoms: N_10  and  C_11
REMARK    4  A    between atoms: C_13  and  N_18
REMARK    5  A    between atoms: C_16  and  C_17
REMARK    6  A    between atoms: C_19  and  C_21
REMARK    7  A    between atoms: C_21  and  C_22
REMARK    8  A    between atoms: C_27  and  C_32
REMARK                            x       y       z     vdW  Elec       q    Type
REMARK                         _______ _______ _______ _____ _____    ______ ____
ROOT
ATOM      1  C   UNL     1       0.174  -6.346   1.096  0.00  0.00    +0.038 A 
ATOM      2  C   UNL     1       0.190  -6.992  -0.132  0.00  0.00    +0.047 A 
ATOM      3  C   UNL     1      -0.056  -8.356  -0.199  0.00  0.00    +0.035 A 
ATOM      4  C   UNL     1      -0.317  -9.071   0.964  0.00  0.00    +0.024 A 
ATOM      5  C   UNL     1      -0.332  -8.425   2.185  0.00  0.00    +0.007 A 
ATOM      6  C   UNL     1      -0.082  -7.068   2.255  0.00  0.00    -0.029 A 
ATOM      7  C   UNL     1      -0.094  -6.368   3.590  0.00  0.00    +0.045 C 
ENDROOT
BRANCH   1  10
ATOM      8  C   UNL     1       1.073  -4.352   0.163  0.00  0.00    +0.248 C 
ATOM      9  O   UNL     1       1.535  -5.001  -0.754  0.00  0.00    -0.270 OA
ATOM     10  N   UNL     1       0.422  -4.972   1.167  0.00  0.00    -0.281 N 
ATOM     11  H   UNL     1       0.125  -4.465   1.939  0.00  0.00    +0.155 HD
BRANCH   8  16
ATOM     12  C   UNL     1       1.659   1.373   0.217  0.00  0.00    +0.044 C 
ATOM     13  C   UNL     1       1.505  -0.127   0.203  0.00  0.00    -0.050 A 
ATOM     14  C   UNL     1       2.034  -0.863  -0.842  0.00  0.00    +0.004 A 
ATOM     15  C   UNL     1       1.897  -2.236  -0.861  0.00  0.00    +0.013 A 
ATOM     16  C   UNL     1       1.224  -2.881   0.177  0.00  0.00    +0.037 A 
ATOM     17  C   UNL     1       0.693  -2.132   1.229  0.00  0.00    +0.013 A 
ATOM     18  C   UNL     1       0.841  -0.761   1.238  0.00  0.00    +0.004 A 
ENDBRANCH   8  16
ENDBRANCH   1  10
BRANCH   3  19
ATOM     19  N   UNL     1      -0.042  -9.011  -1.435  0.00  0.00    -0.285 N 
ATOM     20  C   UNL     1       0.387 -10.286  -1.517  0.00  0.00    +0.222 C 
ATOM     21  O   UNL     1       0.844 -10.837  -0.537  0.00  0.00    -0.275 OA
ATOM     22  H   UNL     1      -0.340  -8.547  -2.233  0.00  0.00    +0.155 HD
BRANCH  20  23
ATOM     23  C   UNL     1       0.298 -11.028  -2.825  0.00  0.00    +0.131 C 
BRANCH  23  24
ATOM     24  C   UNL     1       0.838 -12.424  -2.649  0.00  0.00    -0.037 A 
ATOM     25  C   UNL     1       2.209 -12.650  -2.867  0.00  0.00    +0.006 A 
ATOM     26  C   UNL     1       2.775 -13.866  -2.733  0.00  0.00    +0.028 A 
ATOM     27  C   UNL     1       1.945 -15.014  -2.343  0.00  0.00    +0.060 A 
ATOM     28  N   UNL     1       2.212 -16.272  -2.143  0.00  0.00    -0.364 N 
ATOM     29  C   UNL     1       0.956 -16.934  -1.768  0.00  0.00    +0.171 C 
ATOM     30  N   UNL     1      -0.080 -15.894  -1.777  0.00  0.00    -0.364 N 
ATOM     31  C   UNL     1       0.494 -14.774  -2.112  0.00  0.00    +0.060 A 
ATOM     32  C   UNL     1      -0.011 -13.405  -2.284  0.00  0.00    +0.031 A 
ATOM     33  C   UNL     1       0.615 -18.026  -2.785  0.00  0.00    +0.054 C 
ATOM     34  H   UNL     1       3.081 -16.694  -2.225  0.00  0.00    +0.162 HD
ATOM     35  H   UNL     1      -1.020 -16.018  -1.572  0.00  0.00    +0.162 HD
ENDBRANCH  23  24
ENDBRANCH  20  23
ENDBRANCH   3  19
TORSDOF 5
