REMARK  Name = ZINC36027051
REMARK  7 active torsions:
REMARK  status: ('A' for Active; 'I' for Inactive)
REMARK    1  A    between atoms: C_4  and  C_7
REMARK    2  A    between atoms: C_7  and  C_8
REMARK    3  A    between atoms: N_12  and  C_30
REMARK    4  A    between atoms: N_17  and  C_20
REMARK    5  A    between atoms: C_20  and  N_22
REMARK    6  A    between atoms: N_22  and  C_23
REMARK    7  A    between atoms: C_30  and  C_31
REMARK                            x       y       z     vdW  Elec       q    Type
REMARK                         _______ _______ _______ _____ _____    ______ ____
ROOT
ATOM      1  C   UNL     1       4.158  -0.611   1.283  0.00  0.00    +0.023 C 
ATOM      2  C   UNL     1       5.398  -1.474   1.203  0.00  0.00    +0.201 C 
ATOM      3  O   UNL     1       5.566  -2.405   0.444  0.00  0.00    -0.277 OA
ATOM      4  N   UNL     1       6.286  -1.034   2.119  0.00  0.00    -0.311 N 
ATOM      5  C   UNL     1       5.716   0.104   2.845  0.00  0.00    +0.006 C 
ATOM      6  N   UNL     1       4.583   0.597   2.031  0.00  0.00    +0.401 N 
ATOM      7  C   UNL     1       5.207  -0.345   4.214  0.00  0.00    +0.025 C 
ATOM      8  C   UNL     1       6.379  -0.892   5.037  0.00  0.00    +0.107 C 
ATOM      9  N   UNL     1       7.440   0.123   5.080  0.00  0.00    -0.312 N 
ATOM     10  C   UNL     1       7.945   0.674   3.814  0.00  0.00    +0.107 C 
ATOM     11  C   UNL     1       6.760   1.208   3.002  0.00  0.00    +0.025 C 
ATOM     12  H   UNL     1       4.888   1.320   1.397  0.00  0.00    -0.082 HD
ATOM     13  H   UNL     1       3.836   0.931   2.622  0.00  0.00    -0.082 HD
ENDROOT
BRANCH   9  14
ATOM     14  C   UNL     1       7.942   0.542   6.258  0.00  0.00    +0.137 C 
ATOM     15  S   UNL     1       7.432  -0.196   7.716  0.00  0.00    -0.018 S 
BRANCH  14  16
ATOM     16  N   UNL     1       8.846   1.541   6.289  0.00  0.00    -0.297 N 
ATOM     17  H   UNL     1       8.593   2.414   6.627  0.00  0.00    +0.154 HD
BRANCH  16  18
ATOM     18  C   UNL     1      10.150   1.319   5.835  0.00  0.00    +0.034 A 
ATOM     19  C   UNL     1      10.546   0.043   5.452  0.00  0.00    +0.023 A 
ATOM     20  C   UNL     1      11.834  -0.174   5.003  0.00  0.00    +0.003 A 
ATOM     21  C   UNL     1      12.730   0.877   4.935  0.00  0.00    +0.020 A 
ATOM     22  C   UNL     1      12.340   2.149   5.316  0.00  0.00    +0.043 A 
ATOM     23  C   UNL     1      11.050   2.373   5.760  0.00  0.00    +0.043 A 
ATOM     24 CL   UNL     1      13.469   3.465   5.229  0.00  0.00    -0.083 Cl
ENDBRANCH  16  18
ENDBRANCH  14  16
ENDBRANCH   9  14
BRANCH   1  25
ATOM     25  C   UNL     1       3.684  -0.228  -0.121  0.00  0.00    +0.028 C 
BRANCH  25  29
ATOM     26  C   UNL     1       0.106   2.087   0.164  0.00  0.00    +0.000 A 
ATOM     27  C   UNL     1       1.338   2.715   0.171  0.00  0.00    +0.000 A 
ATOM     28  C   UNL     1       2.496   1.965   0.079  0.00  0.00    +0.003 A 
ATOM     29  C   UNL     1       2.422   0.589  -0.020  0.00  0.00    -0.048 A 
ATOM     30  C   UNL     1       1.190  -0.039  -0.026  0.00  0.00    +0.003 A 
ATOM     31  C   UNL     1       0.032   0.711   0.064  0.00  0.00    +0.000 A 
ENDBRANCH  25  29
ENDBRANCH   1  25
BRANCH   4  32
ATOM     32  C   UNL     1       7.615  -1.606   2.351  0.00  0.00    +0.137 C 
BRANCH  32  33
ATOM     33  C   UNL     1       8.629  -0.932   1.425  0.00  0.00    +0.136 C 
ATOM     34  C   UNL     1      10.017  -1.607   1.565  0.00  0.00    +0.035 C 
ATOM     35  C   UNL     1      10.649  -1.269   0.187  0.00  0.00    +0.031 C 
ATOM     36  C   UNL     1       9.426  -1.307  -0.753  0.00  0.00    +0.160 C 
ATOM     37  O   UNL     1       8.254  -1.122   0.052  0.00  0.00    -0.375 OA
ENDBRANCH  32  33
ENDBRANCH   4  32
TORSDOF 7
