REMARK  Name = ZINC66664847
REMARK  7 active torsions:
REMARK  status: ('A' for Active; 'I' for Inactive)
REMARK    1  A    between atoms: C_1  and  C_2
REMARK    2  A    between atoms: C_2  and  C_4
REMARK    3  A    between atoms: C_2  and  N_15
REMARK    4  A    between atoms: N_6  and  C_7
REMARK    5  A    between atoms: C_19  and  N_22
REMARK    6  A    between atoms: N_22  and  S_23
REMARK    7  A    between atoms: S_23  and  C_26
REMARK                            x       y       z     vdW  Elec       q    Type
REMARK                         _______ _______ _______ _____ _____    ______ ____
ROOT
ATOM      1  C   UNL     1      -0.557   1.414   0.134  0.00  0.00    -0.004 C 
ATOM      2  C   UNL     1       0.002  -0.004   0.002  0.00  0.00    +0.016 C 
ENDROOT
BRANCH   2   3
ATOM      3  N   UNL     1      -1.094  -0.938  -0.287  0.00  0.00    +0.388 N 
ATOM      4  C   UNL     1      -0.559  -2.300  -0.395  0.00  0.00    -0.078 C 
ATOM      5  C   UNL     1      -1.707  -3.288  -0.616  0.00  0.00    -0.017 C 
ATOM      6  C   UNL     1      -2.445  -2.924  -1.907  0.00  0.00    +0.017 C 
ATOM      7  C   UNL     1      -2.934  -1.476  -1.813  0.00  0.00    +0.060 C 
ATOM      8  C   UNL     1      -1.741  -0.556  -1.548  0.00  0.00    -0.057 C 
ATOM      9  H   UNL     1      -1.771  -0.903   0.461  0.00  0.00    -0.081 HD
BRANCH   7  10
ATOM     10  N   UNL     1      -3.577  -1.094  -3.073  0.00  0.00    -0.194 NA
ATOM     11  H   UNL     1      -3.041  -0.766  -3.812  0.00  0.00    +0.148 HD
BRANCH  10  12
ATOM     12  S   UNL     1      -5.220  -1.222  -3.236  0.00  0.00    +0.027 S 
ATOM     13  O   UNL     1      -5.487  -0.799  -4.566  0.00  0.00    -0.158 OA
ATOM     14  O   UNL     1      -5.523  -2.548  -2.824  0.00  0.00    -0.158 OA
ATOM     15  C   UNL     1      -5.901  -0.029  -2.052  0.00  0.00    +0.214 C 
ENDBRANCH  10  12
ENDBRANCH   7  10
ENDBRANCH   2   3
BRANCH   2  16
ATOM     16  C   UNL     1       0.673  -0.401   1.292  0.00  0.00    +0.199 C 
ATOM     17  O   UNL     1       0.040  -0.974   2.153  0.00  0.00    -0.278 OA
ATOM     18  N   UNL     1       1.977  -0.120   1.487  0.00  0.00    -0.312 N 
ATOM     19  H   UNL     1       2.483   0.338   0.798  0.00  0.00    +0.149 HD
BRANCH  18  20
ATOM     20  C   UNL     1       2.629  -0.506   2.741  0.00  0.00    +0.095 C 
ATOM     21  C   UNL     1       2.420   0.594   3.795  0.00  0.00    +0.046 C 
ATOM     22  C   UNL     1       3.360   0.354   5.001  0.00  0.00    +0.168 C 
ATOM     23  S   UNL     1       4.779  -0.533   4.238  0.00  0.00    -0.029 S 
ATOM     24  O   UNL     1       5.918   0.317   4.255  0.00  0.00    -0.174 OA
ATOM     25  O   UNL     1       4.869  -1.834   4.802  0.00  0.00    -0.174 OA
ATOM     26  C   UNL     1       4.159  -0.669   2.509  0.00  0.00    +0.188 C 
ENDBRANCH  18  20
ENDBRANCH   2  16
TORSDOF 5
