REMARK  Name = ZINC28710379
REMARK  9 active torsions:
REMARK  status: ('A' for Active; 'I' for Inactive)
REMARK    1  A    between atoms: C_1  and  C_2
REMARK    2  A    between atoms: C_6  and  C_8
REMARK    3  A    between atoms: C_8  and  N_9
REMARK    4  A    between atoms: C_12  and  C_24
REMARK    5  A    between atoms: C_14  and  C_23
REMARK    6  A    between atoms: N_18  and  C_19
REMARK    7  A    between atoms: C_19  and  C_20
REMARK    8  A    between atoms: C_20  and  C_21
REMARK    9  A    between atoms: C_21  and  O_22
REMARK                            x       y       z     vdW  Elec       q    Type
REMARK                         _______ _______ _______ _____ _____    ______ ____
ROOT
ATOM      1  N   UNL     1      -4.683   3.856  -1.980  0.00  0.00    -0.307 N 
ATOM      2  C   UNL     1      -4.644   4.627  -0.829  0.00  0.00    +0.069 A 
ATOM      3  C   UNL     1      -4.570   4.332   0.523  0.00  0.00    +0.031 A 
ATOM      4  C   UNL     1      -4.549   5.354   1.449  0.00  0.00    -0.048 A 
ATOM      5  C   UNL     1      -4.600   6.677   1.036  0.00  0.00    +0.009 A 
ATOM      6  C   UNL     1      -4.674   6.989  -0.303  0.00  0.00    -0.025 A 
ATOM      7  C   UNL     1      -4.696   5.965  -1.253  0.00  0.00    +0.068 A 
ATOM      8  N   UNL     1      -4.764   5.952  -2.611  0.00  0.00    -0.327 N 
ATOM      9  C   UNL     1      -4.750   4.715  -3.040  0.00  0.00    +0.175 A 
ATOM     10  N   UNL     1      -4.800   4.335  -4.365  0.00  0.00    -0.316 N 
ATOM     11  C   UNL     1      -4.730   8.429  -0.742  0.00  0.00    +0.046 C 
ATOM     12  C   UNL     1      -4.469   5.031   2.919  0.00  0.00    +0.044 C 
ATOM     13  H   UNL     1      -4.712   3.399  -4.605  0.00  0.00    +0.149 HD
ATOM     14  H   UNL     1      -4.810   6.739  -3.175  0.00  0.00    +0.169 HD
ENDROOT
BRANCH   1  15
ATOM     15  C   UNL     1      -4.652   2.393  -2.047  0.00  0.00    +0.182 C 
BRANCH  15  21
ATOM     16  C   UNL     1      -8.371   0.916  -4.841  0.00  0.00    +0.063 C 
ATOM     17  C   UNL     1      -7.817   1.167  -3.462  0.00  0.00    +0.013 A 
ATOM     18  C   UNL     1      -8.602   0.910  -2.354  0.00  0.00    +0.024 A 
ATOM     19  C   UNL     1      -8.086   1.144  -1.090  0.00  0.00    +0.054 A 
ATOM     20  C   UNL     1      -6.787   1.632  -0.986  0.00  0.00    +0.200 A 
ATOM     21  C   UNL     1      -6.061   1.865  -2.144  0.00  0.00    +0.083 A 
ATOM     22  N   UNL     1      -6.587   1.624  -3.329  0.00  0.00    -0.358 N 
ATOM     23  O   UNL     1      -6.238   1.877   0.233  0.00  0.00    -0.286 OA
ATOM     24  H   UNL     1      -6.057   1.792  -4.123  0.00  0.00    +0.165 HD
ENDBRANCH  15  21
ENDBRANCH   1  15
BRANCH  10  25
ATOM     25  C   UNL     1      -4.984   5.345  -5.410  0.00  0.00    +0.106 C 
BRANCH  25  26
ATOM     26  C   UNL     1      -5.003   4.664  -6.779  0.00  0.00    +0.046 C 
BRANCH  26  27
ATOM     27  C   UNL     1      -5.196   5.719  -7.871  0.00  0.00    +0.157 C 
BRANCH  27  28
ATOM     28  O   UNL     1      -5.214   5.083  -9.150  0.00  0.00    -0.395 OA
ATOM     29  H   UNL     1      -5.333   5.693  -9.891  0.00  0.00    +0.209 HD
ENDBRANCH  27  28
ENDBRANCH  26  27
ENDBRANCH  25  26
ENDBRANCH  10  25
TORSDOF 6
