REMARK  Name = ZINC09140185
REMARK  5 active torsions:
REMARK  status: ('A' for Active; 'I' for Inactive)
REMARK    1  A    between atoms: C_1  and  C_2
REMARK    2  A    between atoms: C_4  and  C_24
REMARK    3  A    between atoms: N_8  and  C_9
REMARK    4  A    between atoms: C_9  and  N_11
REMARK    5  A    between atoms: C_12  and  C_14
REMARK                            x       y       z     vdW  Elec       q    Type
REMARK                         _______ _______ _______ _____ _____    ______ ____
ROOT
ATOM      1  N   UNL     1       3.705  -2.043  -0.054  0.00  0.00    -0.264 N 
ATOM      2  C   UNL     1       3.690  -0.695  -0.046  0.00  0.00    +0.250 C 
ATOM      3  O   UNL     1       4.736  -0.075  -0.055  0.00  0.00    -0.270 OA
ATOM      4  H   UNL     1       2.870  -2.537  -0.047  0.00  0.00    +0.157 HD
ENDROOT
BRANCH   2   5
ATOM      5  C   UNL     1       2.404   0.028  -0.026  0.00  0.00    +0.041 A 
ATOM      6  C   UNL     1       1.201  -0.682  -0.016  0.00  0.00    +0.017 A 
ATOM      7  C   UNL     1       0.002  -0.004   0.002  0.00  0.00    +0.050 A 
ATOM      8  C   UNL     1      -0.017   1.386   0.010  0.00  0.00    +0.162 A 
ATOM      9  C   UNL     1       1.179   2.100   0.002  0.00  0.00    +0.163 A 
ATOM     10  C   UNL     1       2.386   1.425  -0.017  0.00  0.00    +0.062 A 
ATOM     11  O   UNL     1       1.177   3.461   0.018  0.00  0.00    -0.485 OA
ATOM     12  C   UNL     1      -0.049   4.107  -0.339  0.00  0.00    +0.270 C 
ATOM     13  C   UNL     1      -1.194   3.412   0.409  0.00  0.00    +0.270 C 
ATOM     14  O   UNL     1      -1.212   2.034   0.019  0.00  0.00    -0.485 OA
ENDBRANCH   2   5
BRANCH   1  15
ATOM     15  C   UNL     1       4.880  -2.703  -0.072  0.00  0.00    +0.143 C 
ATOM     16  S   UNL     1       6.352  -1.831  -0.085  0.00  0.00    -0.018 S 
BRANCH  15  24
ATOM     17  C   UNL     1       9.685  -3.864  -0.137  0.00  0.00    +0.066 C 
ATOM     18  C   UNL     1       8.404  -4.658  -0.126  0.00  0.00    +0.044 A 
ATOM     19  C   UNL     1       8.437  -6.044  -0.135  0.00  0.00    +0.046 A 
ATOM     20  C   UNL     1       7.236  -6.735  -0.124  0.00  0.00    +0.044 A 
ATOM     21  N   UNL     1       6.101  -6.056  -0.106  0.00  0.00    -0.219 NA
ATOM     22  C   UNL     1       6.104  -4.731  -0.099  0.00  0.00    +0.221 A 
ATOM     23  N   UNL     1       7.234  -4.041  -0.114  0.00  0.00    -0.219 NA
ATOM     24  N   UNL     1       4.895  -4.051  -0.080  0.00  0.00    -0.266 N 
ATOM     25  C   UNL     1       7.223  -8.242  -0.132  0.00  0.00    +0.066 C 
ATOM     26  H   UNL     1       4.060  -4.545  -0.073  0.00  0.00    +0.157 HD
ENDBRANCH  15  24
ENDBRANCH   1  15
TORSDOF 3
