REMARK  Name = ZINC09467827
REMARK  7 active torsions:
REMARK  status: ('A' for Active; 'I' for Inactive)
REMARK    1  A    between atoms: C_1  and  C_2
REMARK    2  A    between atoms: C_5  and  N_8
REMARK    3  A    between atoms: C_11  and  C_16
REMARK    4  A    between atoms: C_16  and  N_44
REMARK    5  A    between atoms: C_17  and  N_44
REMARK    6  A    between atoms: C_18  and  C_19
REMARK    7  A    between atoms: C_18  and  N_44
REMARK                            x       y       z     vdW  Elec       q    Type
REMARK                         _______ _______ _______ _____ _____    ______ ____
ROOT
ATOM      1  N   UNL     1       1.162   3.484   0.009  0.00  0.00    -0.284 N 
ATOM      2  C   UNL     1       2.347   4.188   0.106  0.00  0.00    +0.224 A 
ATOM      3  N   UNL     1       2.328   5.515   0.208  0.00  0.00    -0.201 NA
ATOM      4  C   UNL     1       3.461   6.188   0.306  0.00  0.00    +0.120 A 
ATOM      5  N   UNL     1       4.617   5.548   0.292  0.00  0.00    -0.202 NA
ATOM      6  C   UNL     1       4.644   4.222   0.185  0.00  0.00    +0.217 A 
ATOM      7  N   UNL     1       3.507   3.541   0.092  0.00  0.00    -0.181 NA
ATOM      8  N   UNL     1       5.852   3.554   0.172  0.00  0.00    -0.327 N 
ATOM      9  H   UNL     1       0.320   3.960  -0.061  0.00  0.00    +0.155 HD
ATOM     10  H   UNL     1       5.872   2.588   0.094  0.00  0.00    +0.145 HD
ATOM     11  H   UNL     1       6.682   4.052   0.240  0.00  0.00    +0.145 HD
ENDROOT
BRANCH   1  16
ATOM     12  C   UNL     1       1.221  -2.188   0.024  0.00  0.00    +0.044 C 
ATOM     13  C   UNL     1       1.205  -0.681   0.021  0.00  0.00    -0.050 A 
ATOM     14  C   UNL     1       2.143   0.021   0.755  0.00  0.00    +0.005 A 
ATOM     15  C   UNL     1       2.132   1.402   0.754  0.00  0.00    +0.023 A 
ATOM     16  C   UNL     1       1.177   2.086   0.013  0.00  0.00    +0.034 A 
ATOM     17  C   UNL     1       0.236   1.378  -0.725  0.00  0.00    +0.023 A 
ATOM     18  C   UNL     1       0.253  -0.003  -0.718  0.00  0.00    +0.005 A 
ENDBRANCH   1  16
BRANCH   4  19
ATOM     19  C   UNL     1       3.434   7.690   0.428  0.00  0.00    -0.001 C 
BRANCH  19  21
ATOM     20  C   UNL     1       4.753   8.016  -1.576  0.00  0.00    -0.095 C 
ATOM     21  N   UNL     1       3.451   8.278  -0.928  0.00  0.00    +0.387 N 
ATOM     22  H   UNL     1       2.707   7.847  -1.488  0.00  0.00    -0.081 HD
BRANCH  21  23
ATOM     23  C   UNL     1       3.210   9.735  -0.850  0.00  0.00    -0.003 C 
BRANCH  23  24
ATOM     24  C   UNL     1       3.013  10.271  -2.244  0.00  0.00    +0.089 A 
ATOM     25  C   UNL     1       1.840  10.353  -2.897  0.00  0.00    +0.042 A 
ATOM     26  C   UNL     1       2.116  10.912  -4.166  0.00  0.00    +0.041 A 
ATOM     27  C   UNL     1       3.441  11.137  -4.213  0.00  0.00    +0.195 A 
ATOM     28  O   UNL     1       3.979  10.752  -3.044  0.00  0.00    -0.470 OA
ENDBRANCH  23  24
ENDBRANCH  21  23
ENDBRANCH  19  21
ENDBRANCH   4  19
TORSDOF 5
