REMARK  Name = ZINC04282554
REMARK  9 active torsions:
REMARK  status: ('A' for Active; 'I' for Inactive)
REMARK    1  A    between atoms: C_3  and  O_23
REMARK    2  A    between atoms: C_6  and  C_7
REMARK    3  A    between atoms: N_8  and  N_9
REMARK    4  A    between atoms: C_10  and  C_12
REMARK    5  A    between atoms: C_12  and  O_13
REMARK    6  A    between atoms: O_13  and  C_14
REMARK    7  A    between atoms: C_17  and  N_20
REMARK    8  A    between atoms: O_23  and  C_24
REMARK    9  A    between atoms: C_24  and  C_26
REMARK                            x       y       z     vdW  Elec       q    Type
REMARK                         _______ _______ _______ _____ _____    ______ ____
ROOT
ATOM      1  C   UNL     1       1.827  -8.380  -0.199  0.00  0.00    +0.138 C 
ATOM      2  N   UNL     1       0.640  -8.903  -0.259  0.00  0.00    -0.188 NA
ENDROOT
BRANCH   1   8
ATOM      3  C   UNL     1       3.262  -6.350  -0.091  0.00  0.00    +0.013 A 
ATOM      4  C   UNL     1       3.405  -4.980  -0.052  0.00  0.00    +0.047 A 
ATOM      5  C   UNL     1       2.283  -4.161  -0.075  0.00  0.00    +0.132 A 
ATOM      6  C   UNL     1       1.012  -4.719  -0.134  0.00  0.00    +0.047 A 
ATOM      7  C   UNL     1       0.860  -6.088  -0.179  0.00  0.00    +0.013 A 
ATOM      8  C   UNL     1       1.985  -6.915  -0.156  0.00  0.00    -0.005 A 
BRANCH   5   9
ATOM      9  O   UNL     1       2.429  -2.811  -0.036  0.00  0.00    -0.422 OA
BRANCH   9  10
ATOM     10  C   UNL     1       2.807  -2.203  -1.177  0.00  0.00    +0.344 C 
ATOM     11  O   UNL     1       3.088  -2.867  -2.155  0.00  0.00    -0.245 OA
BRANCH  10  12
ATOM     12  C   UNL     1       2.881  -0.730  -1.239  0.00  0.00    +0.059 A 
ATOM     13  C   UNL     1       3.273  -0.096  -2.421  0.00  0.00    +0.016 A 
ATOM     14  C   UNL     1       3.340   1.280  -2.473  0.00  0.00    +0.016 A 
ATOM     15  C   UNL     1       3.019   2.034  -1.356  0.00  0.00    +0.018 A 
ATOM     16  C   UNL     1       2.630   1.412  -0.182  0.00  0.00    +0.016 A 
ATOM     17  C   UNL     1       2.559   0.037  -0.117  0.00  0.00    +0.016 A 
ATOM     18 BR   UNL     1       3.113   3.921  -1.436  0.00  0.00    -0.050 Br
ENDBRANCH  10  12
ENDBRANCH   9  10
ENDBRANCH   5   9
ENDBRANCH   1   8
BRANCH   2  19
ATOM     19  N   UNL     1       0.490 -10.296  -0.300  0.00  0.00    -0.204 N 
ATOM     20  C   UNL     1      -0.742 -10.839  -0.362  0.00  0.00    +0.270 C 
ATOM     21  O   UNL     1      -1.720 -10.122  -0.383  0.00  0.00    -0.270 OA
ATOM     22  H   UNL     1       1.272 -10.869  -0.284  0.00  0.00    +0.177 HD
BRANCH  20  23
ATOM     23  C   UNL     1      -0.904 -12.336  -0.407  0.00  0.00    +0.326 C 
BRANCH  23  24
ATOM     24  O   UNL     1      -2.293 -12.663  -0.469  0.00  0.00    -0.483 OA
BRANCH  24  25
ATOM     25  C   UNL     1      -2.615 -13.983  -0.515  0.00  0.00    +0.121 A 
ATOM     26  C   UNL     1      -1.614 -14.943  -0.506  0.00  0.00    +0.048 A 
ATOM     27  C   UNL     1      -1.943 -16.284  -0.548  0.00  0.00    +0.036 A 
ATOM     28  C   UNL     1      -3.270 -16.669  -0.610  0.00  0.00    +0.126 A 
ATOM     29  C   UNL     1      -4.270 -15.714  -0.625  0.00  0.00    +0.036 A 
ATOM     30  C   UNL     1      -3.945 -14.372  -0.578  0.00  0.00    +0.048 A 
BRANCH  28  31
ATOM     31  N   UNL     1      -3.620 -18.106  -0.660  0.00  0.00    +0.056 N 
ATOM     32  O   UNL     1      -4.788 -18.447  -0.715  0.00  0.00    -0.126 OA
ATOM     33  O   UNL     1      -2.740 -18.948  -0.648  0.00  0.00    -0.126 OA
ENDBRANCH  28  31
ENDBRANCH  24  25
ENDBRANCH  23  24
ENDBRANCH  20  23
ENDBRANCH   2  19
TORSDOF 9
