REMARK  Name = ZINC38125148
REMARK  6 active torsions:
REMARK  status: ('A' for Active; 'I' for Inactive)
REMARK    1  A    between atoms: C_2  and  CA_12
REMARK    2  A    between atoms: CA_12  and  C_14
REMARK    3  A    between atoms: CA_12  and  N_16
REMARK    4  A    between atoms: C_14  and  O_15
REMARK    5  A    between atoms: N_16  and  C_17
REMARK    6  A    between atoms: C_17  and  C_18
REMARK                            x       y       z     vdW  Elec       q    Type
REMARK                         _______ _______ _______ _____ _____    ______ ____
ROOT
ATOM      1  C   UNL     1      -0.017   1.383   0.010  0.00  0.00    +0.051 A 
ATOM      2  C   UNL     1       1.170   2.092   0.002  0.00  0.00    -0.055 A 
ATOM      3  C   UNL     1       2.378   1.421  -0.013  0.00  0.00    +0.021 A 
ATOM      4  C   UNL     1       2.405   0.038  -0.023  0.00  0.00    +0.063 A 
ATOM      5  C   UNL     1       1.217  -0.679  -0.016  0.00  0.00    +0.176 A 
ATOM      6  C   UNL     1       0.002  -0.004   0.002  0.00  0.00    +0.163 A 
ATOM      7  O   UNL     1      -1.174  -0.688   0.017  0.00  0.00    -0.485 OA
ATOM      8  C   UNL     1      -1.122  -2.066  -0.368  0.00  0.00    +0.270 C 
ATOM      9  C   UNL     1       0.061  -2.723   0.356  0.00  0.00    +0.270 C 
ATOM     10  O   UNL     1       1.258  -2.039  -0.029  0.00  0.00    -0.484 OA
ATOM     11 BR   UNL     1       4.060  -0.875  -0.046  0.00  0.00    -0.046 Br
ENDROOT
BRANCH   2  12
ATOM     12  CA  UNL     1       1.146   3.599   0.010  0.00  0.00    -0.015 C 
BRANCH  12  13
ATOM     13  N   UNL     1       2.190   4.110  -0.887  0.00  0.00    +0.385 N 
ATOM     14  H1  UNL     1       3.098   3.856  -0.527  0.00  0.00    -0.085 HD
ATOM     15  H2  UNL     1       2.069   3.711  -1.806  0.00  0.00    -0.085 HD
BRANCH  13  16
ATOM     16  C   UNL     1       2.089   5.573  -0.972  0.00  0.00    -0.078 C 
BRANCH  16  17
ATOM     17  C   UNL     1       3.177   6.106  -1.907  0.00  0.00    -0.028 C 
ATOM     18  C   UNL     1       4.243   7.021  -1.301  0.00  0.00    +0.002 C 
ATOM     19  C   UNL     1       3.168   7.603  -2.221  0.00  0.00    +0.002 C 
ENDBRANCH  16  17
ENDBRANCH  13  16
ENDBRANCH  12  13
BRANCH  12  20
ATOM     20  C   UNL     1       1.401   4.105   1.431  0.00  0.00    +0.144 C 
BRANCH  20  21
ATOM     21  O   UNL     1       2.625   3.552   1.921  0.00  0.00    -0.396 OA
ATOM     22  H   UNL     1       2.851   3.831   2.819  0.00  0.00    +0.209 HD
ENDBRANCH  20  21
ENDBRANCH  12  20
ENDBRANCH   2  12
TORSDOF 6
