REMARK  Name = ZINC36946451
REMARK  5 active torsions:
REMARK  status: ('A' for Active; 'I' for Inactive)
REMARK    1  A    between atoms: C_1  and  C_2
REMARK    2  A    between atoms: C_5  and  N_9
REMARK    3  A    between atoms: C_6  and  C_8
REMARK    4  A    between atoms: C_10  and  C_12
REMARK    5  A    between atoms: C_12  and  N_13
REMARK                            x       y       z     vdW  Elec       q    Type
REMARK                         _______ _______ _______ _____ _____    ______ ____
ROOT
ATOM      1  N   UNL     1       0.059  -4.170  -0.021  0.00  0.00    -0.287 N 
ATOM      2  C   UNL     1      -0.040  -4.839  -1.187  0.00  0.00    +0.201 C 
ATOM      3  O   UNL     1      -0.054  -4.230  -2.236  0.00  0.00    -0.278 OA
ATOM      4  H   UNL     1       0.135  -4.658   0.814  0.00  0.00    +0.155 HD
ENDROOT
BRANCH   1   9
ATOM      5  C   UNL     1       0.025   1.503   0.005  0.00  0.00    +0.044 C 
ATOM      6  C   UNL     1       0.034  -0.004  -0.002  0.00  0.00    -0.050 A 
ATOM      7  C   UNL     1       0.632  -0.685  -1.046  0.00  0.00    +0.005 A 
ATOM      8  C   UNL     1       0.641  -2.066  -1.055  0.00  0.00    +0.024 A 
ATOM      9  C   UNL     1       0.051  -2.771  -0.014  0.00  0.00    +0.036 A 
ATOM     10  C   UNL     1      -0.548  -2.083   1.033  0.00  0.00    -0.029 A 
ATOM     11  C   UNL     1      -0.550  -0.702   1.039  0.00  0.00    +0.008 A 
ATOM     12  C   UNL     1      -1.190  -2.843   2.165  0.00  0.00    +0.045 C 
ENDBRANCH   1   9
BRANCH   2  13
ATOM     13  C   UNL     1      -0.134  -6.343  -1.187  0.00  0.00    +0.019 C 
BRANCH  13  14
ATOM     14  N   UNL     1      -0.232  -6.827  -2.571  0.00  0.00    +0.386 N 
ATOM     15  C   UNL     1      -0.520  -8.277  -2.550  0.00  0.00    -0.077 C 
ATOM     16  C   UNL     1      -1.132  -8.670  -3.871  0.00  0.00    -0.003 C 
ATOM     17  C   UNL     1      -0.073  -9.166  -4.871  0.00  0.00    +0.079 C 
ATOM     18  N   UNL     1       1.161  -8.347  -4.834  0.00  0.00    -0.318 NA
ATOM     19  C   UNL     1       0.910  -6.927  -4.727  0.00  0.00    +0.062 C 
ATOM     20  C   UNL     1       0.957  -6.523  -3.241  0.00  0.00    -0.063 C 
ATOM     21  H   UNL     1       1.782  -8.661  -4.103  0.00  0.00    +0.122 HD
ATOM     22  H   UNL     1      -0.995  -6.351  -3.028  0.00  0.00    -0.081 HD
ENDBRANCH  13  14
ENDBRANCH   2  13
TORSDOF 3
