REMARK  Name = ZINC20103560
REMARK  9 active torsions:
REMARK  status: ('A' for Active; 'I' for Inactive)
REMARK    1  A    between atoms: C_1  and  C_2
REMARK    2  A    between atoms: C_2  and  N_3
REMARK    3  A    between atoms: C_7  and  C_9
REMARK    4  A    between atoms: C_9  and  N_10
REMARK    5  A    between atoms: C_11  and  C_13
REMARK    6  A    between atoms: C_13  and  C_14
REMARK    7  A    between atoms: C_14  and  N_15
REMARK    8  A    between atoms: C_16  and  C_18
REMARK    9  A    between atoms: C_18  and  N_19
REMARK                            x       y       z     vdW  Elec       q    Type
REMARK                         _______ _______ _______ _____ _____    ______ ____
ROOT
ATOM      1  N   UNL     1       3.892   8.233  -1.624  0.00  0.00    -0.313 N 
ATOM      2  C   UNL     1       3.087   7.189  -1.344  0.00  0.00    +0.233 C 
ATOM      3  O   UNL     1       2.433   6.674  -2.226  0.00  0.00    -0.274 OA
ATOM      4  H   UNL     1       4.486   8.700  -0.824  0.00  0.00    +0.149 HD
ENDROOT
BRANCH   1   5
ATOM      5  C   UNL     1       3.977   8.746  -2.994  0.00  0.00    +0.113 C 
BRANCH   5   6
ATOM      6  C   UNL     1       4.953   9.923  -3.038  0.00  0.00    +0.114 C 
BRANCH   6   8
ATOM      7  N   UNL     1       5.846  11.494  -4.727  0.00  0.00    -0.317 N 
ATOM      8  C   UNL     1       5.041  10.450  -4.447  0.00  0.00    +0.214 C 
ATOM      9  O   UNL     1       4.387   9.935  -5.329  0.00  0.00    -0.276 OA
ATOM     10  H   UNL     1       6.439  11.962  -3.927  0.00  0.00    +0.149 HD
BRANCH   7  11
ATOM     11  C   UNL     1       5.931  12.007  -6.097  0.00  0.00    +0.089 C 
BRANCH  11  16
ATOM     12  N   UNL     1       6.166  14.324  -5.274  0.00  0.00    +0.382 N 
ATOM     13  C   UNL     1       6.375  15.631  -5.923  0.00  0.00    -0.078 C 
ATOM     14  C   UNL     1       7.138  15.371  -7.239  0.00  0.00    -0.020 C 
ATOM     15  C   UNL     1       6.822  13.882  -7.540  0.00  0.00    -0.016 C 
ATOM     16  C   UNL     1       6.784  13.277  -6.114  0.00  0.00    -0.051 C 
ATOM     17  H   UNL     1       5.088  14.132  -5.170  0.00  0.00    -0.081 HD
BRANCH  12  19
ATOM     18  C   UNL     1       6.162  15.486  -3.118  0.00  0.00    -0.017 C 
ATOM     19  C   UNL     1       6.731  14.313  -3.918  0.00  0.00    -0.082 C 
ENDBRANCH  12  19
ENDBRANCH  11  16
ENDBRANCH   7  11
ENDBRANCH   6   8
ENDBRANCH   5   6
ENDBRANCH   1   5
BRANCH   2  20
ATOM     20  C   UNL     1       3.000   6.662   0.065  0.00  0.00    +0.221 C 
BRANCH  20  21
ATOM     21  N   UNL     1       2.065   5.534   0.107  0.00  0.00    -0.290 N 
ATOM     22  C   UNL     1       0.757   5.789   0.351  0.00  0.00    +0.203 A 
ATOM     23  N   UNL     1      -0.157   4.846   0.408  0.00  0.00    -0.230 NA
ATOM     24  C   UNL     1       0.243   3.593   0.214  0.00  0.00    +0.116 A 
ATOM     25  C   UNL     1       1.583   3.227  -0.046  0.00  0.00    +0.076 A 
ATOM     26  C   UNL     1       2.549   4.287  -0.100  0.00  0.00    +0.263 A 
ATOM     27  O   UNL     1       3.730   4.077  -0.317  0.00  0.00    -0.267 OA
ATOM     28  C   UNL     1       1.834   1.809  -0.233  0.00  0.00    -0.023 A 
ATOM     29  C   UNL     1       0.764   0.985  -0.140  0.00  0.00    -0.004 A 
ATOM     30  S   UNL     1      -0.616   2.052   0.192  0.00  0.00    -0.073 S 
ATOM     31  C   UNL     1       0.750  -0.504  -0.291  0.00  0.00    +0.043 C 
ATOM     32  C   UNL     1       2.073  -0.940  -0.937  0.00  0.00    +0.005 C 
ATOM     33  C   UNL     1       3.227  -0.250  -0.203  0.00  0.00    +0.005 C 
ATOM     34  C   UNL     1       3.223   1.246  -0.520  0.00  0.00    +0.037 C 
ENDBRANCH  20  21
ENDBRANCH   2  20
TORSDOF 8
