REMARK  Name = ZINC55888035
REMARK  6 active torsions:
REMARK  status: ('A' for Active; 'I' for Inactive)
REMARK    1  A    between atoms: C_1  and  C_2
REMARK    2  A    between atoms: C_10  and  C_12
REMARK    3  A    between atoms: C_12  and  N_13
REMARK    4  A    between atoms: N_13  and  C_14
REMARK    5  A    between atoms: C_19  and  N_20
REMARK    6  A    between atoms: C_23  and  O_26
REMARK                            x       y       z     vdW  Elec       q    Type
REMARK                         _______ _______ _______ _____ _____    ______ ____
ROOT
ATOM      1  N   UNL     1      -1.137  -4.062   4.625  0.00  0.00    -0.337 N 
ATOM      2  H   UNL     1      -1.808  -3.947   3.934  0.00  0.00    +0.147 HD
ENDROOT
BRANCH   1   3
ATOM      3  C   UNL     1      -1.352  -4.972   5.663  0.00  0.00    +0.047 A 
ATOM      4  C   UNL     1      -0.345  -5.225   6.586  0.00  0.00    +0.025 A 
ATOM      5  C   UNL     1      -0.561  -6.124   7.612  0.00  0.00    +0.002 A 
ATOM      6  C   UNL     1      -1.778  -6.773   7.720  0.00  0.00    +0.002 A 
ATOM      7  C   UNL     1      -2.782  -6.523   6.803  0.00  0.00    +0.023 A 
ATOM      8  C   UNL     1      -2.575  -5.620   5.778  0.00  0.00    +0.035 A 
BRANCH   8   9
ATOM      9  N   UNL     1      -3.593  -5.364   4.855  0.00  0.00    -0.392 NA
ATOM     10  C   UNL     1      -4.016  -6.625   4.233  0.00  0.00    +0.087 C 
ATOM     11  C   UNL     1      -5.073  -6.340   3.163  0.00  0.00    +0.048 C 
ATOM     12  C   UNL     1      -6.280  -5.660   3.815  0.00  0.00    +0.117 C 
ATOM     13  C   UNL     1      -5.814  -4.385   4.523  0.00  0.00    +0.048 C 
ATOM     14  C   UNL     1      -4.730  -4.741   5.543  0.00  0.00    +0.087 C 
ATOM     15  H   UNL     1      -3.249  -4.739   4.141  0.00  0.00    +0.126 HD
BRANCH  12  16
ATOM     16  O   UNL     1      -7.239  -5.325   2.810  0.00  0.00    -0.392 OA
ATOM     17  H   UNL     1      -8.032  -4.890   3.152  0.00  0.00    +0.210 HD
ENDBRANCH  12  16
ENDBRANCH   8   9
ENDBRANCH   1   3
BRANCH   1  18
ATOM     18  C   UNL     1       0.102  -3.282   4.579  0.00  0.00    +0.155 C 
BRANCH  18  28
ATOM     19  C   UNL     1       0.020   1.414  -0.078  0.00  0.00    +0.064 C 
ATOM     20  C   UNL     1       0.044  -0.093  -0.065  0.00  0.00    +0.033 A 
ATOM     21  C   UNL     1       0.059  -0.758  -1.220  0.00  0.00    +0.070 A 
ATOM     22  S   UNL     1       0.085  -2.455  -0.664  0.00  0.00    -0.059 S 
ATOM     23  C   UNL     1       0.074  -2.127   1.085  0.00  0.00    +0.158 A 
ATOM     24  N   UNL     1       0.056  -0.758   1.137  0.00  0.00    -0.261 N 
ATOM     25  C   UNL     1       0.048  -0.197   2.383  0.00  0.00    +0.259 A 
ATOM     26  O   UNL     1       0.028   1.018   2.505  0.00  0.00    -0.267 OA
ATOM     27  C   UNL     1       0.063  -1.012   3.514  0.00  0.00    +0.093 A 
ATOM     28  C   UNL     1       0.085  -2.383   3.370  0.00  0.00    +0.040 A 
ATOM     29  N   UNL     1       0.083  -2.899   2.143  0.00  0.00    -0.337 N 
ATOM     30  H   UNL     1       0.099  -3.862   2.031  0.00  0.00    +0.168 HD
ENDBRANCH  18  28
ENDBRANCH   1  18
TORSDOF 5
