REMARK  Name = ZINC04895830
REMARK  11 active torsions:
REMARK  status: ('A' for Active; 'I' for Inactive)
REMARK    1  A    between atoms: C_1  and  C_2
REMARK    2  A    between atoms: C_2  and  C_3
REMARK    3  A    between atoms: C_3  and  C_5
REMARK    4  A    between atoms: C_3  and  N_6
REMARK    5  A    between atoms: N_6  and  S_7
REMARK    6  A    between atoms: S_7  and  C_10
REMARK    7  A    between atoms: C_13  and  N_16
REMARK    8  A    between atoms: C_17  and  C_19
REMARK    9  A    between atoms: C_19  and  N_47
REMARK   10  A    between atoms: C_20  and  C_21
REMARK   11  A    between atoms: C_20  and  N_47
REMARK                            x       y       z     vdW  Elec       q    Type
REMARK                         _______ _______ _______ _____ _____    ______ ____
ROOT
ATOM      1  C   UNL     1      -5.230   5.551  -7.084  0.00  0.00    +0.105 A 
ATOM      2  C   UNL     1      -5.926   6.220  -6.093  0.00  0.00    +0.030 A 
ATOM      3  C   UNL     1      -5.573   6.054  -4.768  0.00  0.00    +0.025 A 
ATOM      4  C   UNL     1      -4.519   5.215  -4.431  0.00  0.00    +0.033 A 
ATOM      5  C   UNL     1      -3.819   4.550  -5.428  0.00  0.00    +0.025 A 
ATOM      6  C   UNL     1      -4.180   4.715  -6.751  0.00  0.00    +0.030 A 
ENDROOT
BRANCH   4   7
ATOM      7  N   UNL     1      -4.159   5.046  -3.089  0.00  0.00    -0.287 N 
ATOM      8  C   UNL     1      -5.108   5.048  -2.132  0.00  0.00    +0.200 C 
ATOM      9  O   UNL     1      -6.262   5.280  -2.422  0.00  0.00    -0.278 OA
ATOM     10  H   UNL     1      -3.227   4.927  -2.848  0.00  0.00    +0.155 HD
BRANCH   8  11
ATOM     11  C   UNL     1      -4.734   4.761  -0.700  0.00  0.00    +0.016 C 
BRANCH  11  12
ATOM     12  N   UNL     1      -5.947   4.825   0.138  0.00  0.00    +0.388 N 
ATOM     13  H   UNL     1      -6.623   4.127  -0.192  0.00  0.00    -0.085 HD
ATOM     14  H   UNL     1      -6.359   5.762   0.066  0.00  0.00    -0.085 HD
BRANCH  12  15
ATOM     15  C   UNL     1      -5.610   4.548   1.547  0.00  0.00    -0.039 C 
BRANCH  15  16
ATOM     16  C   UNL     1      -6.865   4.619   2.378  0.00  0.00    -0.027 A 
ATOM     17  C   UNL     1      -7.745   3.634   2.681  0.00  0.00    +0.009 A 
ATOM     18  C   UNL     1      -8.844   3.934   3.465  0.00  0.00    +0.008 A 
ATOM     19  C   UNL     1      -9.008   5.205   3.907  0.00  0.00    +0.045 A 
ATOM     20  S   UNL     1      -7.584   6.026   3.210  0.00  0.00    -0.104 S 
ENDBRANCH  15  16
ENDBRANCH  12  15
ENDBRANCH  11  12
ENDBRANCH   8  11
ENDBRANCH   4   7
BRANCH   1  21
ATOM     21  S   UNL     1      -5.683   5.765  -8.773  0.00  0.00    +0.059 S 
ATOM     22  O   UNL     1      -5.230   4.609  -9.464  0.00  0.00    -0.153 OA
ATOM     23  O   UNL     1      -7.044   6.172  -8.780  0.00  0.00    -0.153 OA
BRANCH  21  24
ATOM     24  N   UNL     1      -4.804   7.041  -9.358  0.00  0.00    -0.187 NA
ATOM     25  H   UNL     1      -5.255   7.853  -9.638  0.00  0.00    +0.148 HD
BRANCH  24  26
ATOM     26  C   UNL     1      -3.345   6.943  -9.453  0.00  0.00    +0.073 C 
ATOM     27  C   UNL     1      -2.955   6.499 -10.864  0.00  0.00    +0.025 C 
BRANCH  26  29
ATOM     28  C   UNL     1      -3.008   8.696  -7.705  0.00  0.00    +0.005 C 
ATOM     29  C   UNL     1      -2.722   8.309  -9.157  0.00  0.00    +0.017 C 
ENDBRANCH  26  29
ENDBRANCH  24  26
ENDBRANCH  21  24
ENDBRANCH   1  21
TORSDOF 9
