REMARK  Name = ZINC57051682
REMARK  9 active torsions:
REMARK  status: ('A' for Active; 'I' for Inactive)
REMARK    1  A    between atoms: C_1  and  C_2
REMARK    2  A    between atoms: C_6  and  C_7
REMARK    3  A    between atoms: C_7  and  N_8
REMARK    4  A    between atoms: N_8  and  C_9
REMARK    5  A    between atoms: C_9  and  C_10
REMARK    6  A    between atoms: C_9  and  C_11
REMARK    7  A    between atoms: C_12  and  C_14
REMARK    8  A    between atoms: C_17  and  C_20
REMARK    9  A    between atoms: C_20  and  N_21
REMARK                            x       y       z     vdW  Elec       q    Type
REMARK                         _______ _______ _______ _____ _____    ______ ____
ROOT
ATOM      1  C   UNL     1      -3.846   0.437   4.319  0.00  0.00    +0.037 A 
ATOM      2  C   UNL     1      -3.900  -0.904   4.700  0.00  0.00    +0.013 A 
ATOM      3  C   UNL     1      -5.105  -1.464   5.071  0.00  0.00    +0.006 A 
ATOM      4  C   UNL     1      -6.258  -0.699   5.066  0.00  0.00    -0.030 A 
ATOM      5  C   UNL     1      -6.211   0.631   4.689  0.00  0.00    +0.006 A 
ATOM      6  C   UNL     1      -5.011   1.205   4.321  0.00  0.00    +0.013 A 
ENDROOT
BRANCH   1   8
ATOM      7  N   UNL     1      -1.399   0.428   4.227  0.00  0.00    -0.290 N 
ATOM      8  C   UNL     1      -2.558   1.044   3.921  0.00  0.00    +0.247 C 
ATOM      9  O   UNL     1      -2.544   2.099   3.317  0.00  0.00    -0.270 OA
BRANCH   7  10
ATOM     10  C   UNL     1      -1.302  -1.032   4.148  0.00  0.00    +0.071 C 
ATOM     11  C   UNL     1      -1.510  -1.632   5.540  0.00  0.00    +0.028 C 
ATOM     12  C   UNL     1      -2.377  -1.563   3.198  0.00  0.00    +0.028 C 
ENDBRANCH   7  10
BRANCH   7  13
ATOM     13  C   UNL     1      -0.236   1.218   4.639  0.00  0.00    +0.151 C 
BRANCH  13  19
ATOM     14  C   UNL     1       0.078   3.921   3.215  0.00  0.00    +0.044 C 
ATOM     15  C   UNL     1       0.801   2.675   2.773  0.00  0.00    -0.039 A 
ATOM     16  C   UNL     1       1.657   2.708   1.688  0.00  0.00    +0.011 A 
ATOM     17  C   UNL     1       2.291   1.569   1.316  0.00  0.00    +0.046 A 
ATOM     18  S   UNL     1       1.681   0.398   2.518  0.00  0.00    -0.100 S 
ATOM     19  C   UNL     1       0.626   1.506   3.437  0.00  0.00    +0.010 A 
ENDBRANCH  13  19
ENDBRANCH   7  13
ENDBRANCH   1   8
BRANCH   4  20
ATOM     20  C   UNL     1      -7.571  -1.318   5.472  0.00  0.00    +0.141 C 
BRANCH  20  21
ATOM     21  N   UNL     1      -7.761  -1.156   6.915  0.00  0.00    -0.295 N 
ATOM     22  C   UNL     1      -8.874  -1.635   7.506  0.00  0.00    +0.297 C 
ATOM     23  O   UNL     1      -9.719  -2.202   6.841  0.00  0.00    -0.253 OA
ATOM     24  N   UNL     1      -9.049  -1.486   8.834  0.00  0.00    -0.313 N 
ATOM     25  H   UNL     1      -7.087  -0.703   7.445  0.00  0.00    +0.151 HD
ATOM     26  H   UNL     1      -8.375  -1.033   9.364  0.00  0.00    +0.146 HD
ATOM     27  H   UNL     1      -9.850  -1.830   9.259  0.00  0.00    +0.146 HD
ENDBRANCH  20  21
ENDBRANCH   4  20
TORSDOF 6
