REMARK  Name = ZINC29695029
REMARK  9 active torsions:
REMARK  status: ('A' for Active; 'I' for Inactive)
REMARK    1  A    between atoms: C_1  and  C_2
REMARK    2  A    between atoms: C_2  and  C_4
REMARK    3  A    between atoms: C_2  and  N_18
REMARK    4  A    between atoms: N_6  and  C_7
REMARK    5  A    between atoms: C_8  and  C_15
REMARK    6  A    between atoms: C_24  and  C_26
REMARK    7  A    between atoms: C_26  and  C_27
REMARK    8  A    between atoms: C_26  and  C_28
REMARK    9  A    between atoms: C_26  and  C_29
REMARK                            x       y       z     vdW  Elec       q    Type
REMARK                         _______ _______ _______ _____ _____    ______ ____
ROOT
ATOM      1  C   UNL     1       2.496   5.236  -0.727  0.00  0.00    -0.004 C 
ATOM      2  C   UNL     1       1.336   4.961   0.233  0.00  0.00    +0.017 C 
ENDROOT
BRANCH   2   3
ATOM      3  N   UNL     1       0.418   6.107   0.232  0.00  0.00    +0.389 N 
ATOM      4  C   UNL     1      -0.397   6.128  -0.990  0.00  0.00    -0.058 C 
ATOM      5  C   UNL     1      -1.461   7.225  -0.872  0.00  0.00    +0.089 C 
ATOM      6  N   UNL     1      -0.790   8.494  -0.551  0.00  0.00    -0.304 N 
ATOM      7  C   UNL     1       0.150   8.517   0.580  0.00  0.00    +0.089 C 
ATOM      8  C   UNL     1       1.150   7.369   0.405  0.00  0.00    -0.058 C 
ATOM      9  C   UNL     1      -1.030   9.605  -1.274  0.00  0.00    +0.225 C 
ATOM     10  O   UNL     1      -0.395  10.616  -1.060  0.00  0.00    -0.275 OA
ATOM     11  H   UNL     1      -0.265   5.997   1.087  0.00  0.00    -0.081 HD
BRANCH   9  12
ATOM     12  C   UNL     1      -2.088   9.593  -2.347  0.00  0.00    +0.066 C 
ATOM     13  C   UNL     1      -3.423   9.155  -1.741  0.00  0.00    +0.025 C 
ATOM     14  C   UNL     1      -2.232  10.997  -2.938  0.00  0.00    +0.025 C 
BRANCH  12  15
ATOM     15  C   UNL     1      -1.689   8.628  -3.434  0.00  0.00    -0.033 A 
ATOM     16  C   UNL     1      -0.429   8.061  -3.426  0.00  0.00    +0.004 A 
ATOM     17  C   UNL     1      -0.065   7.172  -4.421  0.00  0.00    +0.000 A 
ATOM     18  C   UNL     1      -0.958   6.859  -5.428  0.00  0.00    +0.000 A 
ATOM     19  C   UNL     1      -2.216   7.431  -5.439  0.00  0.00    +0.000 A 
ATOM     20  C   UNL     1      -2.582   8.315  -4.441  0.00  0.00    +0.004 A 
ENDBRANCH  12  15
ENDBRANCH   9  12
ENDBRANCH   2   3
BRANCH   2  21
ATOM     21  C   UNL     1       1.875   4.750   1.625  0.00  0.00    +0.204 C 
ATOM     22  O   UNL     1       1.643   5.563   2.494  0.00  0.00    -0.277 OA
ATOM     23  N   UNL     1       2.615   3.659   1.903  0.00  0.00    -0.281 N 
ATOM     24  H   UNL     1       2.826   2.921   1.114  0.00  0.00    +0.155 HD
BRANCH  23  25
ATOM     25  C   UNL     1       3.111   3.465   3.183  0.00  0.00    +0.084 A 
ATOM     26  C   UNL     1       3.882   2.418   3.657  0.00  0.00    +0.068 A 
ATOM     27  C   UNL     1       4.278   2.451   5.065  0.00  0.00    -0.023 A 
ATOM     28  C   UNL     1       3.839   3.519   5.756  0.00  0.00    -0.004 A 
ATOM     29  S   UNL     1       2.915   4.472   4.576  0.00  0.00    -0.077 S 
ATOM     30  C   UNL     1       4.288   3.485   7.191  0.00  0.00    +0.043 C 
ATOM     31  C   UNL     1       5.442   2.458   7.214  0.00  0.00    +0.010 C 
ATOM     32  C   UNL     1       5.090   1.564   6.009  0.00  0.00    +0.037 C 
BRANCH  26  33
ATOM     33  C   UNL     1       4.289   1.315   2.780  0.00  0.00    +0.244 C 
ATOM     34  O   UNL     1       3.582   0.330   2.674  0.00  0.00    -0.270 OA
ATOM     35  N   UNL     1       5.444   1.393   2.091  0.00  0.00    -0.325 N 
ATOM     36  H   UNL     1       5.749   0.566   1.433  0.00  0.00    +0.145 HD
ATOM     37  H   UNL     1       6.083   2.284   2.187  0.00  0.00    +0.145 HD
ENDBRANCH  26  33
ENDBRANCH  23  25
ENDBRANCH   2  21
TORSDOF 6
