REMARK  Name = ZINC39580543
REMARK  4 active torsions:
REMARK  status: ('A' for Active; 'I' for Inactive)
REMARK    1  A    between atoms: C_4  and  C_7
REMARK    2  A    between atoms: C_7  and  S_8
REMARK    3  A    between atoms: S_8  and  C_9
REMARK    4  A    between atoms: C_11  and  N_19
REMARK                            x       y       z     vdW  Elec       q    Type
REMARK                         _______ _______ _______ _____ _____    ______ ____
ROOT
ATOM      1  C   UNL     1       5.786  -1.866   1.477  0.00  0.00    +0.102 C 
ATOM      2  N   UNL     1       6.325  -2.162   0.291  0.00  0.00    -0.320 N 
ATOM      3  C   UNL     1       7.497  -2.812   0.205  0.00  0.00    +0.208 C 
ATOM      4  N   UNL     1       8.091  -3.477   1.160  0.00  0.00    -0.220 NA
ATOM      5  C   UNL     1       7.438  -3.607   2.462  0.00  0.00    +0.277 C 
ATOM      6  C   UNL     1       6.608  -2.325   2.613  0.00  0.00    +0.119 C 
ATOM      7  N   UNL     1       6.863  -1.884   3.785  0.00  0.00    -0.234 NA
ATOM      8  C   UNL     1       7.926  -2.513   4.327  0.00  0.00    +0.218 C 
ATOM      9  N   UNL     1       8.347  -3.541   3.604  0.00  0.00    -0.240 NA
ATOM     10  H   UNL     1       5.862  -1.904  -0.521  0.00  0.00    +0.169 HD
ENDROOT
BRANCH   3  11
ATOM     11  N   UNL     1       8.139  -2.772  -1.016  0.00  0.00    -0.234 NA
ATOM     12  H   UNL     1       8.989  -3.225  -1.132  0.00  0.00    +0.173 HD
ENDBRANCH   3  11
BRANCH   1  13
ATOM     13  S   UNL     1       4.257  -1.011   1.666  0.00  0.00    -0.101 S 
BRANCH  13  14
ATOM     14  C   UNL     1       3.711  -0.707  -0.038  0.00  0.00    +0.111 C 
BRANCH  14  18
ATOM     15  C   UNL     1      -0.017   1.378   0.010  0.00  0.00    +0.000 A 
ATOM     16  C   UNL     1       1.171   2.086   0.002  0.00  0.00    +0.000 A 
ATOM     17  C   UNL     1       2.377   1.411  -0.013  0.00  0.00    +0.004 A 
ATOM     18  C   UNL     1       2.396   0.029  -0.020  0.00  0.00    -0.037 A 
ATOM     19  C   UNL     1       1.208  -0.679  -0.012  0.00  0.00    +0.004 A 
ATOM     20  C   UNL     1       0.002  -0.004   0.002  0.00  0.00    +0.000 A 
ENDBRANCH  14  18
ENDBRANCH  13  14
ENDBRANCH   1  13
TORSDOF 4
