REMARK  Name = ZINC08923130
REMARK  8 active torsions:
REMARK  status: ('A' for Active; 'I' for Inactive)
REMARK    1  A    between atoms: C_1  and  C_2
REMARK    2  A    between atoms: C_2  and  C_3
REMARK    3  A    between atoms: C_2  and  N_63
REMARK    4  A    between atoms: C_11  and  O_35
REMARK    5  A    between atoms: C_13  and  C_16
REMARK    6  A    between atoms: C_19  and  O_22
REMARK    7  A    between atoms: O_22  and  C_23
REMARK    8  A    between atoms: C_23  and  C_25
REMARK                            x       y       z     vdW  Elec       q    Type
REMARK                         _______ _______ _______ _____ _____    ______ ____
ROOT
ATOM      1  C   UNL     1      -2.995   1.705   2.647  0.00  0.00    -0.073 C 
ATOM      2  C   UNL     1      -4.491   1.429   2.476  0.00  0.00    +0.018 C 
ATOM      3  C   UNL     1      -4.655   0.021   1.915  0.00  0.00    -0.027 A 
ATOM      4  C   UNL     1      -3.602  -0.600   1.331  0.00  0.00    -0.021 A 
ATOM      5  S   UNL     1      -4.226  -2.182   0.834  0.00  0.00    -0.080 S 
ATOM      6  C   UNL     1      -5.837  -2.018   1.387  0.00  0.00    +0.080 A 
ATOM      7  C   UNL     1      -5.890  -0.738   1.954  0.00  0.00    +0.067 A 
ATOM      8  C   UNL     1      -7.185  -0.308   2.541  0.00  0.00    +0.220 C 
ATOM      9  N   UNL     1      -8.234  -1.046   2.304  0.00  0.00    -0.223 NA
ATOM     10  C   UNL     1      -8.250  -2.211   1.429  0.00  0.00    +0.224 C 
ATOM     11  N   UNL     1      -6.925  -2.856   1.360  0.00  0.00    -0.313 N 
ATOM     12  C   UNL     1      -2.224  -0.043   1.157  0.00  0.00    -0.035 C 
ATOM     13  H   UNL     1      -6.828  -3.820   1.299  0.00  0.00    +0.149 HD
ATOM     14  N   UNL     1      -2.296   1.422   1.377  0.00  0.00    +0.384 N 
ATOM     15  H   UNL     1      -2.820   1.851   0.605  0.00  0.00    -0.081 HD
ENDROOT
BRANCH  10  16
ATOM     16  C   UNL     1      -8.659  -1.779   0.044  0.00  0.00    -0.005 A 
ATOM     17  C   UNL     1      -8.216  -2.486  -1.058  0.00  0.00    +0.011 A 
ATOM     18  C   UNL     1      -8.594  -2.094  -2.328  0.00  0.00    +0.047 A 
ATOM     19  C   UNL     1      -9.409  -0.984  -2.497  0.00  0.00    +0.132 A 
ATOM     20  C   UNL     1      -9.847  -0.273  -1.389  0.00  0.00    +0.047 A 
ATOM     21  C   UNL     1      -9.471  -0.672  -0.121  0.00  0.00    +0.011 A 
BRANCH  19  22
ATOM     22  O   UNL     1      -9.776  -0.593  -3.746  0.00  0.00    -0.422 OA
BRANCH  22  23
ATOM     23  C   UNL     1     -10.592  -1.420  -4.430  0.00  0.00    +0.345 C 
ATOM     24  O   UNL     1     -11.043  -2.412  -3.892  0.00  0.00    -0.245 OA
BRANCH  23  25
ATOM     25  C   UNL     1     -10.937  -1.121  -5.831  0.00  0.00    +0.067 A 
ATOM     26  C   UNL     1     -10.331  -0.065  -6.501  0.00  0.00    +0.015 A 
ATOM     27  C   UNL     1     -10.655   0.212  -7.822  0.00  0.00    +0.001 A 
ATOM     28  C   UNL     1     -11.574  -0.524  -8.505  0.00  0.00    +0.008 A 
ATOM     29  C   UNL     1     -12.229  -1.603  -7.889  0.00  0.00    -0.017 A 
ATOM     30  C   UNL     1     -11.927  -1.925  -6.543  0.00  0.00    -0.004 A 
ATOM     31  C   UNL     1     -12.579  -2.999  -5.926  0.00  0.00    +0.009 A 
ATOM     32  C   UNL     1     -13.497  -3.723  -6.627  0.00  0.00    +0.001 A 
ATOM     33  C   UNL     1     -13.796  -3.409  -7.950  0.00  0.00    +0.001 A 
ATOM     34  C   UNL     1     -13.182  -2.372  -8.581  0.00  0.00    +0.008 A 
ENDBRANCH  23  25
ENDBRANCH  22  23
ENDBRANCH  19  22
ENDBRANCH  10  16
BRANCH  14  36
ATOM     35  C   UNL     1      -0.178   1.566   0.150  0.00  0.00    -0.014 C 
ATOM     36  C   UNL     1      -0.933   1.996   1.410  0.00  0.00    -0.074 C 
ATOM     37  C   UNL     1      -1.039   3.522   1.446  0.00  0.00    -0.014 C 
ENDBRANCH  14  36
BRANCH   8  38
ATOM     38  O   UNL     1      -7.273   0.811   3.296  0.00  0.00    -0.492 OA
ATOM     39  H   UNL     1      -8.164   0.994   3.625  0.00  0.00    +0.294 HD
ENDBRANCH   8  38
TORSDOF 6
