REMARK  Name = ZINC12378565
REMARK  7 active torsions:
REMARK  status: ('A' for Active; 'I' for Inactive)
REMARK    1  A    between atoms: C_1  and  C_2
REMARK    2  A    between atoms: N_4  and  C_5
REMARK    3  A    between atoms: C_7  and  O_30
REMARK    4  A    between atoms: C_15  and  C_17
REMARK    5  A    between atoms: C_15  and  C_18
REMARK    6  A    between atoms: C_20  and  O_22
REMARK    7  A    between atoms: O_22  and  C_23
REMARK                            x       y       z     vdW  Elec       q    Type
REMARK                         _______ _______ _______ _____ _____    ______ ____
ROOT
ATOM      1  C   UNL     1      -4.828   3.909  -0.180  0.00  0.00    +0.173 C 
ATOM      2  C   UNL     1      -6.098   3.056  -0.120  0.00  0.00    +0.172 C 
ATOM      3  C   UNL     1      -6.158   2.333   1.227  0.00  0.00    +0.183 C 
ATOM      4  C   UNL     1      -4.884   1.505   1.424  0.00  0.00    +0.179 C 
ATOM      5  C   UNL     1      -4.914   0.889   2.828  0.00  0.00    +0.197 C 
ATOM      6  O   UNL     1      -5.093   1.936   3.787  0.00  0.00    -0.347 OA
ATOM      7  C   UNL     1      -6.281   2.705   3.589  0.00  0.00    +0.165 C 
ATOM      8  O   UNL     1      -6.260   3.290   2.284  0.00  0.00    -0.341 OA
ATOM      9  C   UNL     1      -6.354   3.812   4.643  0.00  0.00    +0.074 C 
ATOM     10  C   UNL     1      -7.505   1.796   3.720  0.00  0.00    +0.074 C 
ATOM     11  O   UNL     1      -3.740   2.355   1.314  0.00  0.00    -0.332 OA
ATOM     12  C   UNL     1      -3.611   3.009   0.051  0.00  0.00    +0.331 C 
ENDROOT
BRANCH   1  16
ATOM     13  C   UNL     1      -3.913   6.334  -2.997  0.00  0.00    +0.109 C 
ATOM     14  C   UNL     1      -4.018   5.682  -1.643  0.00  0.00    +0.210 C 
ATOM     15  O   UNL     1      -3.467   6.181  -0.684  0.00  0.00    -0.276 OA
ATOM     16  N   UNL     1      -4.725   4.543  -1.496  0.00  0.00    -0.304 N 
ATOM     17  H   UNL     1      -5.166   4.144  -2.263  0.00  0.00    +0.149 HD
ENDBRANCH   1  16
BRANCH   2  18
ATOM     18  O   UNL     1      -7.245   3.896  -0.262  0.00  0.00    -0.387 OA
ATOM     19  H   UNL     1      -7.273   4.386  -1.095  0.00  0.00    +0.210 HD
ENDBRANCH   2  18
BRANCH  12  20
ATOM     20  O   UNL     1      -2.422   3.802   0.044  0.00  0.00    -0.462 OA
BRANCH  20  21
ATOM     21  C   UNL     1      -1.237   3.137   0.030  0.00  0.00    +0.124 A 
ATOM     22  C   UNL     1      -1.218   1.750   0.017  0.00  0.00    +0.047 A 
ATOM     23  C   UNL     1      -0.013   1.076   0.008  0.00  0.00    +0.023 A 
ATOM     24  C   UNL     1       1.176   1.783   0.000  0.00  0.00    +0.041 A 
ATOM     25  C   UNL     1       1.160   3.167   0.007  0.00  0.00    +0.023 A 
ATOM     26  C   UNL     1      -0.044   3.845   0.022  0.00  0.00    +0.047 A 
ATOM     27 CL   UNL     1       2.691   0.934  -0.019  0.00  0.00    -0.084 Cl
ENDBRANCH  20  21
ENDBRANCH  12  20
TORSDOF 4
