REMARK  Name = ZINC27248431
REMARK  11 active torsions:
REMARK  status: ('A' for Active; 'I' for Inactive)
REMARK    1  A    between atoms: C_1  and  O_2
REMARK    2  A    between atoms: O_2  and  C_3
REMARK    3  A    between atoms: C_6  and  C_9
REMARK    4  A    between atoms: C_9  and  C_10
REMARK    5  A    between atoms: C_9  and  C_18
REMARK    6  A    between atoms: C_9  and  O_33
REMARK    7  A    between atoms: C_15  and  O_16
REMARK    8  A    between atoms: O_16  and  C_17
REMARK    9  A    between atoms: C_18  and  C_20
REMARK   10  A    between atoms: C_18  and  C_26
REMARK   11  A    between atoms: C_20  and  N_21
REMARK                            x       y       z     vdW  Elec       q    Type
REMARK                         _______ _______ _______ _____ _____    ______ ____
ROOT
ATOM      1  C   UNL     1      -1.373  -0.719   0.234  0.00  0.00    +0.124 C 
ENDROOT
BRANCH   1   5
ATOM      2  C   UNL     1      -3.328   0.185   3.925  0.00  0.00    +0.120 A 
ATOM      3  C   UNL     1      -2.493  -0.919   3.833  0.00  0.00    +0.046 A 
ATOM      4  C   UNL     1      -1.862  -1.209   2.638  0.00  0.00    +0.010 A 
ATOM      5  C   UNL     1      -2.062  -0.400   1.535  0.00  0.00    -0.011 A 
ATOM      6  C   UNL     1      -2.889   0.704   1.626  0.00  0.00    +0.010 A 
ATOM      7  C   UNL     1      -3.527   0.995   2.817  0.00  0.00    +0.046 A 
BRANCH   2   9
ATOM      8  C   UNL     1      -4.795   1.624   5.120  0.00  0.00    +0.277 C 
ATOM      9  O   UNL     1      -3.950   0.472   5.098  0.00  0.00    -0.495 OA
ENDBRANCH   2   9
ENDBRANCH   1   5
BRANCH   1  10
ATOM     10  C   UNL     1      -0.048  -0.003   0.178  0.00  0.00    +0.030 A 
ATOM     11  C   UNL     1       1.128  -0.727   0.152  0.00  0.00    +0.010 A 
ATOM     12  C   UNL     1       2.344  -0.071   0.100  0.00  0.00    +0.001 A 
ATOM     13  C   UNL     1       2.386   1.311   0.075  0.00  0.00    +0.004 A 
ATOM     14  C   UNL     1       1.213   2.040   0.102  0.00  0.00    +0.046 A 
ATOM     15  C   UNL     1      -0.009   1.383   0.154  0.00  0.00    +0.126 A 
BRANCH  15  16
ATOM     16  O   UNL     1      -1.165   2.098   0.174  0.00  0.00    -0.495 OA
ATOM     17  C   UNL     1      -1.048   3.522   0.147  0.00  0.00    +0.277 C 
ENDBRANCH  15  16
ENDBRANCH   1  10
BRANCH   1  18
ATOM     18  O   UNL     1      -1.157  -2.128   0.142  0.00  0.00    -0.379 OA
ATOM     19  H   UNL     1      -0.663  -2.552  -0.745  0.00  0.00    +0.211 HD
ENDBRANCH   1  18
BRANCH   1  20
ATOM     20  C   UNL     1      -2.250  -0.260  -0.933  0.00  0.00    +0.043 C 
BRANCH  20  21
ATOM     21  C   UNL     1      -3.570  -0.986  -0.886  0.00  0.00    -0.043 A 
ATOM     22  C   UNL     1      -3.622  -2.342  -1.147  0.00  0.00    +0.005 A 
ATOM     23  C   UNL     1      -4.832  -3.009  -1.098  0.00  0.00    +0.020 A 
ATOM     24  C   UNL     1      -5.992  -2.317  -0.798  0.00  0.00    +0.041 A 
ATOM     25  C   UNL     1      -5.939  -0.959  -0.542  0.00  0.00    +0.020 A 
ATOM     26  C   UNL     1      -4.728  -0.294  -0.586  0.00  0.00    +0.005 A 
ATOM     27 CL   UNL     1      -7.512  -3.153  -0.744  0.00  0.00    -0.084 Cl
ENDBRANCH  20  21
BRANCH  20  28
ATOM     28  C   UNL     1      -1.544  -0.572  -2.255  0.00  0.00    -0.067 C 
BRANCH  28  29
ATOM     29  N   UNL     1      -2.344  -0.052  -3.372  0.00  0.00    +0.380 N 
ATOM     30  C   UNL     1      -2.671   1.383  -3.170  0.00  0.00    -0.079 C 
ATOM     31  C   UNL     1      -3.017   1.872  -4.599  0.00  0.00    -0.020 C 
ATOM     32  C   UNL     1      -2.008   1.101  -5.482  0.00  0.00    -0.020 C 
ATOM     33  C   UNL     1      -1.589  -0.119  -4.641  0.00  0.00    -0.079 C 
ATOM     34  H   UNL     1      -3.249  -0.676  -3.407  0.00  0.00    -0.082 HD
ENDBRANCH  28  29
ENDBRANCH  20  28
ENDBRANCH   1  20
TORSDOF 9
