REMARK  Name = ZINC23029666
REMARK  8 active torsions:
REMARK  status: ('A' for Active; 'I' for Inactive)
REMARK    1  A    between atoms: C_3  and  S_6
REMARK    2  A    between atoms: S_6  and  N_9
REMARK    3  A    between atoms: N_12  and  C_15
REMARK    4  A    between atoms: C_15  and  C_16
REMARK    5  A    between atoms: C_16  and  C_17
REMARK    6  A    between atoms: N_19  and  C_20
REMARK    7  A    between atoms: C_23  and  S_26
REMARK    8  A    between atoms: S_26  and  N_29
REMARK                            x       y       z     vdW  Elec       q    Type
REMARK                         _______ _______ _______ _____ _____    ______ ____
ROOT
ATOM      1  C   UNL     1      -0.997   4.001  -6.505  0.00  0.00    +0.077 C 
ENDROOT
BRANCH   1   2
ATOM      2  C   UNL     1      -0.521   3.633  -7.886  0.00  0.00    +0.215 C 
ATOM      3  O   UNL     1      -0.373   2.467  -8.186  0.00  0.00    -0.276 OA
ATOM      4  N   UNL     1      -0.258   4.600  -8.788  0.00  0.00    -0.286 N 
ATOM      5  H   UNL     1      -0.464   5.652  -8.543  0.00  0.00    +0.155 HD
BRANCH   4   6
ATOM      6  C   UNL     1       0.276   4.264 -10.037  0.00  0.00    +0.033 A 
ATOM      7  C   UNL     1       1.180   5.116 -10.659  0.00  0.00    +0.025 A 
ATOM      8  C   UNL     1       1.710   4.779 -11.889  0.00  0.00    +0.030 A 
ATOM      9  C   UNL     1       1.333   3.601 -12.507  0.00  0.00    +0.105 A 
ATOM     10  C   UNL     1       0.428   2.754 -11.894  0.00  0.00    +0.030 A 
ATOM     11  C   UNL     1      -0.101   3.082 -10.661  0.00  0.00    +0.025 A 
BRANCH   9  12
ATOM     12  S   UNL     1       2.006   3.179 -14.080  0.00  0.00    +0.056 S 
ATOM     13  O   UNL     1       3.242   3.871 -14.191  0.00  0.00    -0.153 OA
ATOM     14  O   UNL     1       1.910   1.766 -14.196  0.00  0.00    -0.153 OA
BRANCH  12  15
ATOM     15  N   UNL     1       1.000   3.818 -15.230  0.00  0.00    -0.204 NA
ATOM     16  H   UNL     1       1.387   3.575 -16.231  0.00  0.00    +0.144 HD
ATOM     17  H   UNL     1       0.953   4.910 -15.110  0.00  0.00    +0.144 HD
ENDBRANCH  12  15
ENDBRANCH   9  12
ENDBRANCH   4   6
ENDBRANCH   1   2
BRANCH   1  18
ATOM     18  C   UNL     1      -1.219   2.728  -5.686  0.00  0.00    -0.069 C 
BRANCH  18  22
ATOM     19  N   UNL     1      -1.822   3.188  -1.558  0.00  0.00    -0.180 NA
ATOM     20  C   UNL     1      -1.228   4.326  -2.274  0.00  0.00    +0.091 C 
ATOM     21  C   UNL     1      -0.642   3.811  -3.598  0.00  0.00    -0.061 C 
ATOM     22  N   UNL     1      -1.684   3.087  -4.339  0.00  0.00    +0.382 N 
ATOM     23  C   UNL     1      -2.133   1.897  -3.603  0.00  0.00    -0.061 C 
ATOM     24  C   UNL     1      -2.775   2.331  -2.281  0.00  0.00    +0.091 C 
ATOM     25  H   UNL     1      -2.547   3.760  -4.446  0.00  0.00    -0.082 HD
BRANCH  19  26
ATOM     26  S   UNL     1      -1.434   2.882   0.023  0.00  0.00    +0.067 S 
ATOM     27  O   UNL     1      -2.519   2.147   0.572  0.00  0.00    -0.152 OA
ATOM     28  O   UNL     1      -0.989   4.112   0.577  0.00  0.00    -0.152 OA
BRANCH  26  31
ATOM     29  C   UNL     1       2.202   1.078   0.004  0.00  0.00    +0.010 A 
ATOM     30  C   UNL     1       1.276   2.105   0.012  0.00  0.00    +0.036 A 
ATOM     31  C   UNL     1      -0.044   1.799   0.018  0.00  0.00    +0.143 A 
ATOM     32  S   UNL     1      -0.010   0.014   0.012  0.00  0.00    -0.077 S 
ATOM     33  C   UNL     1       1.762  -0.204   0.002  0.00  0.00    +0.047 A 
ENDBRANCH  26  31
ENDBRANCH  19  26
ENDBRANCH  18  22
ENDBRANCH   1  18
TORSDOF 8
