REMARK  Name = ZINC06762385
REMARK  8 active torsions:
REMARK  status: ('A' for Active; 'I' for Inactive)
REMARK    1  A    between atoms: C_1  and  C_2
REMARK    2  A    between atoms: C_2  and  C_3
REMARK    3  A    between atoms: C_2  and  C_4
REMARK    4  A    between atoms: C_4  and  C_5
REMARK    5  A    between atoms: C_5  and  C_7
REMARK    6  A    between atoms: C_5  and  N_50
REMARK    7  A    between atoms: C_9  and  C_12
REMARK    8  A    between atoms: N_14  and  C_15
REMARK                            x       y       z     vdW  Elec       q    Type
REMARK                         _______ _______ _______ _____ _____    ______ ____
ROOT
ATOM      1  C   UNL     1      -2.601   1.492   0.169  0.00  0.00    +0.266 C 
ATOM      2  O   UNL     1      -2.880   0.310   0.114  0.00  0.00    -0.268 OA
ATOM      3  N   UNL     1      -3.578   2.409   0.321  0.00  0.00    -0.299 N 
ATOM      4  H   UNL     1      -3.355   3.352   0.365  0.00  0.00    +0.150 HD
ENDROOT
BRANCH   3   5
ATOM      5  C   UNL     1      -4.975   1.980   0.419  0.00  0.00    +0.135 C 
ATOM      6  C   UNL     1      -5.588   1.887  -0.957  0.00  0.00    -0.015 A 
ATOM      7  C   UNL     1      -5.275   1.120  -2.059  0.00  0.00    +0.006 A 
ATOM      8  C   UNL     1      -6.020   1.238  -3.219  0.00  0.00    +0.000 A 
ATOM      9  C   UNL     1      -7.080   2.125  -3.276  0.00  0.00    +0.001 A 
ATOM     10  C   UNL     1      -7.400   2.896  -2.177  0.00  0.00    +0.009 A 
ATOM     11  C   UNL     1      -6.653   2.782  -1.004  0.00  0.00    -0.012 A 
ATOM     12  C   UNL     1      -6.774   3.475   0.303  0.00  0.00    -0.012 A 
ATOM     13  C   UNL     1      -5.784   3.013   1.166  0.00  0.00    -0.015 A 
ATOM     14  C   UNL     1      -5.691   3.511   2.448  0.00  0.00    +0.006 A 
ATOM     15  C   UNL     1      -6.584   4.474   2.883  0.00  0.00    +0.000 A 
ATOM     16  C   UNL     1      -7.571   4.940   2.033  0.00  0.00    +0.001 A 
ATOM     17  C   UNL     1      -7.671   4.447   0.749  0.00  0.00    +0.009 A 
ENDBRANCH   3   5
BRANCH   1  20
ATOM     18  C   UNL     1       0.557   3.183  -0.007  0.00  0.00    +0.182 A 
ATOM     19  N   UNL     1      -0.736   3.203   0.119  0.00  0.00    -0.210 NA
ATOM     20  C   UNL     1      -1.195   1.923   0.070  0.00  0.00    +0.163 A 
ATOM     21  C   UNL     1      -0.111   1.115  -0.084  0.00  0.00    +0.230 A 
ATOM     22  O   UNL     1       0.968   1.913  -0.134  0.00  0.00    -0.449 OA
BRANCH  18  23
ATOM     23  C   UNL     1       1.453   4.395  -0.011  0.00  0.00    +0.013 C 
BRANCH  23  26
ATOM     24  H   UNL     1       2.343   4.016   1.806  0.00  0.00    -0.089 HD
ATOM     25  H   UNL     1       3.148   3.350   0.512  0.00  0.00    -0.089 HD
ATOM     26  N   UNL     1       2.633   4.165   0.841  0.00  0.00    +0.386 N 
ATOM     27  H   UNL     1       3.245   4.988   0.798  0.00  0.00    -0.089 HD
ENDBRANCH  23  26
BRANCH  23  28
ATOM     28  C   UNL     1       1.919   4.679  -1.440  0.00  0.00    -0.004 C 
BRANCH  28  30
ATOM     29  C   UNL     1       3.349   6.162  -2.854  0.00  0.00    +0.007 C 
ATOM     30  C   UNL     1       2.762   5.957  -1.457  0.00  0.00    -0.018 C 
ATOM     31  C   UNL     1       1.881   7.153  -1.092  0.00  0.00    +0.007 C 
ENDBRANCH  28  30
ENDBRANCH  23  28
ENDBRANCH  18  23
ENDBRANCH   1  20
TORSDOF 6
