REMARK  Name = ZINC39981268
REMARK  4 active torsions:
REMARK  status: ('A' for Active; 'I' for Inactive)
REMARK    1  A    between atoms: C_5  and  N_7
REMARK    2  A    between atoms: C_8  and  C_10
REMARK    3  A    between atoms: C_10  and  S_11
REMARK    4  A    between atoms: S_11  and  C_12
REMARK                            x       y       z     vdW  Elec       q    Type
REMARK                         _______ _______ _______ _____ _____    ______ ____
ROOT
ATOM      1  C   UNL     1      -1.370  -6.656   0.437  0.00  0.00    +0.208 C 
ATOM      2  N   UNL     1      -0.150  -7.138   0.412  0.00  0.00    -0.227 NA
ATOM      3  C   UNL     1       0.007  -8.590   0.427  0.00  0.00    +0.252 C 
ATOM      4  C   UNL     1      -1.207  -9.145   1.159  0.00  0.00    +0.117 C 
ATOM      5  C   UNL     1      -0.710 -10.017   2.081  0.00  0.00    +0.028 A 
ATOM      6  C   UNL     1      -1.339 -10.913   2.978  0.00  0.00    +0.050 A 
ATOM      7  C   UNL     1      -0.536 -11.649   3.795  0.00  0.00    +0.124 A 
ATOM      8  C   UNL     1       0.864 -11.573   3.801  0.00  0.00    +0.040 A 
ATOM      9  C   UNL     1       1.571 -10.754   2.979  0.00  0.00    +0.029 A 
ATOM     10  C   UNL     1       0.783  -9.923   2.052  0.00  0.00    +0.046 A 
ATOM     11  N   UNL     1       1.173  -9.074   1.152  0.00  0.00    -0.358 N 
ATOM     12  F   UNL     1      -1.126 -12.508   4.656  0.00  0.00    -0.205 F 
ATOM     13  N   UNL     1      -2.431  -8.662   0.936  0.00  0.00    -0.147 NA
ATOM     14  N   UNL     1      -2.481  -7.424   0.550  0.00  0.00    -0.122 NA
ATOM     15  H   UNL     1       2.091  -8.806   0.989  0.00  0.00    +0.162 HD
ENDROOT
BRANCH   1  16
ATOM     16  S   UNL     1      -1.576  -4.910   0.325  0.00  0.00    -0.075 S 
BRANCH  16  17
ATOM     17  C   UNL     1       0.119  -4.276   0.191  0.00  0.00    +0.173 C 
BRANCH  17  19
ATOM     18  N   UNL     1       1.237  -2.080  -0.022  0.00  0.00    -0.284 N 
ATOM     19  C   UNL     1       0.086  -2.773   0.087  0.00  0.00    +0.228 C 
ATOM     20  O   UNL     1      -0.976  -2.187   0.102  0.00  0.00    -0.275 OA
ATOM     21  H   UNL     1       2.080  -2.551  -0.115  0.00  0.00    +0.155 HD
BRANCH  18  26
ATOM     22  C   UNL     1       0.153   1.372   0.637  0.00  0.00    +0.002 A 
ATOM     23  C   UNL     1       1.173   2.086   0.035  0.00  0.00    +0.001 A 
ATOM     24  C   UNL     1       2.214   1.421  -0.586  0.00  0.00    +0.017 A 
ATOM     25  C   UNL     1       2.239   0.040  -0.607  0.00  0.00    +0.039 A 
ATOM     26  C   UNL     1       1.216  -0.681  -0.003  0.00  0.00    +0.047 A 
ATOM     27  C   UNL     1       0.172  -0.009   0.620  0.00  0.00    +0.024 A 
ATOM     28 BR   UNL     1       3.662  -0.869  -1.458  0.00  0.00    -0.048 Br
ENDBRANCH  18  26
ENDBRANCH  17  19
ENDBRANCH  16  17
ENDBRANCH   1  16
TORSDOF 4
