REMARK  Name = ZINC43222355
REMARK  4 active torsions:
REMARK  status: ('A' for Active; 'I' for Inactive)
REMARK    1  A    between atoms: C_10  and  N_12
REMARK    2  A    between atoms: C_13  and  C_15
REMARK    3  A    between atoms: C_20  and  C_22
REMARK    4  A    between atoms: N_24  and  C_25
REMARK                            x       y       z     vdW  Elec       q    Type
REMARK                         _______ _______ _______ _____ _____    ______ ____
ROOT
ATOM      1  C   UNL     1       6.269   1.815   1.378  0.00  0.00    +0.068 C 
ATOM      2  C   UNL     1       7.415   0.878   1.801  0.00  0.00    -0.069 C 
ATOM      3  N   UNL     1       8.673   1.486   1.315  0.00  0.00    +0.380 N 
ATOM      4  C   UNL     1       8.404   2.942   1.206  0.00  0.00    -0.069 C 
ATOM      5  C   UNL     1       6.955   2.997   0.656  0.00  0.00    +0.068 C 
ATOM      6  H   UNL     1       9.418   1.318   1.974  0.00  0.00    -0.086 HD
ATOM      7  H   UNL     1       8.915   1.108   0.411  0.00  0.00    -0.086 HD
ENDROOT
BRANCH   1   9
ATOM      8  N   UNL     1       4.648   0.019   0.861  0.00  0.00    -0.308 N 
ATOM      9  C   UNL     1       5.330   1.102   0.439  0.00  0.00    +0.215 C 
ATOM     10  O   UNL     1       5.189   1.502  -0.697  0.00  0.00    -0.276 OA
ATOM     11  H   UNL     1       4.761  -0.302   1.770  0.00  0.00    +0.149 HD
BRANCH   8  21
ATOM     12  C   UNL     1      -0.017   1.375   0.010  0.00  0.00    +0.000 A 
ATOM     13  C   UNL     1       1.174   2.078   0.002  0.00  0.00    +0.000 A 
ATOM     14  C   UNL     1       2.372   1.395  -0.016  0.00  0.00    +0.006 A 
ATOM     15  C   UNL     1       2.393   0.006  -0.025  0.00  0.00    -0.024 A 
ATOM     16  C   UNL     1       1.208  -0.694  -0.012  0.00  0.00    -0.042 A 
ATOM     17  C   UNL     1       0.002  -0.004   0.002  0.00  0.00    +0.004 A 
ATOM     18  C   UNL     1       1.155  -2.199  -0.004  0.00  0.00    +0.035 C 
ATOM     19  C   UNL     1       2.493  -2.786  -0.450  0.00  0.00    +0.007 C 
ATOM     20  C   UNL     1       3.607  -2.135   0.378  0.00  0.00    +0.027 C 
ATOM     21  C   UNL     1       3.736  -0.675  -0.052  0.00  0.00    +0.103 C 
ENDBRANCH   8  21
ENDBRANCH   1   9
BRANCH   5  22
ATOM     22  C   UNL     1       6.293   4.301   1.020  0.00  0.00    +0.215 C 
ATOM     23  O   UNL     1       5.354   4.311   1.787  0.00  0.00    -0.276 OA
ATOM     24  N   UNL     1       6.745   5.456   0.493  0.00  0.00    -0.308 N 
ATOM     25  H   UNL     1       7.497   5.448  -0.120  0.00  0.00    +0.149 HD
BRANCH  24  26
ATOM     26  C   UNL     1       6.102   6.724   0.847  0.00  0.00    +0.103 C 
ATOM     27  C   UNL     1       7.106   7.862   0.678  0.00  0.00    +0.027 C 
ATOM     28  C   UNL     1       6.360   9.193   0.839  0.00  0.00    +0.007 C 
ATOM     29  C   UNL     1       5.451   9.385  -0.373  0.00  0.00    +0.035 C 
ATOM     30  C   UNL     1       4.603   8.161  -0.598  0.00  0.00    -0.042 A 
ATOM     31  C   UNL     1       4.905   6.938  -0.042  0.00  0.00    -0.024 A 
ATOM     32  C   UNL     1       4.084   5.847  -0.296  0.00  0.00    +0.006 A 
ATOM     33  C   UNL     1       2.970   5.979  -1.098  0.00  0.00    +0.000 A 
ATOM     34  C   UNL     1       2.666   7.208  -1.654  0.00  0.00    +0.000 A 
ATOM     35  C   UNL     1       3.479   8.292  -1.403  0.00  0.00    +0.004 A 
ENDBRANCH  24  26
ENDBRANCH   5  22
TORSDOF 4
