REMARK  Name = ZINC55129445
REMARK  5 active torsions:
REMARK  status: ('A' for Active; 'I' for Inactive)
REMARK    1  A    between atoms: C_5  and  C_8
REMARK    2  A    between atoms: C_8  and  O_9
REMARK    3  A    between atoms: C_10  and  C_12
REMARK    4  A    between atoms: C_12  and  C_13
REMARK    5  A    between atoms: C_16  and  N_19
REMARK                            x       y       z     vdW  Elec       q    Type
REMARK                         _______ _______ _______ _____ _____    ______ ____
ROOT
ATOM      1  C   UNL     1       0.047   1.488  -0.037  0.00  0.00    +0.003 C 
ATOM      2  C   UNL     1       1.449   2.098   0.041  0.00  0.00    +0.019 C 
ATOM      3  C   UNL     1       2.117   1.666   1.350  0.00  0.00    +0.108 C 
ATOM      4  N   UNL     1       2.092   0.199   1.433  0.00  0.00    -0.296 N 
ATOM      5  C   UNL     1       0.806  -0.495   1.279  0.00  0.00    +0.101 C 
ATOM      6  C   UNL     1       0.152  -0.039  -0.029  0.00  0.00    +0.025 C 
ATOM      7  C   UNL     1       3.226  -0.496   1.644  0.00  0.00    +0.216 C 
ATOM      8  O   UNL     1       3.180  -1.696   1.813  0.00  0.00    -0.276 OA
ENDROOT
BRANCH   5   9
ATOM      9  C   UNL     1       1.040  -2.006   1.239  0.00  0.00    +0.178 C 
BRANCH   9  10
ATOM     10  O   UNL     1       1.842  -2.334   0.102  0.00  0.00    -0.393 OA
ATOM     11  H   UNL     1       2.031  -3.278   0.013  0.00  0.00    +0.209 HD
ENDBRANCH   9  10
ENDBRANCH   5   9
BRANCH   7  12
ATOM     12  C   UNL     1       4.553   0.217   1.672  0.00  0.00    +0.099 C 
BRANCH  12  13
ATOM     13  C   UNL     1       5.672  -0.795   1.927  0.00  0.00    -0.002 C 
ATOM     14  C   UNL     1       5.506  -1.396   3.325  0.00  0.00    +0.002 C 
ATOM     15  C   UNL     1       5.578  -0.281   4.371  0.00  0.00    -0.016 C 
ATOM     16  C   UNL     1       6.934   0.421   4.275  0.00  0.00    -0.075 C 
ATOM     17  C   UNL     1       7.099   1.022   2.878  0.00  0.00    -0.016 C 
ATOM     18  C   UNL     1       7.027  -0.093   1.832  0.00  0.00    +0.002 C 
BRANCH  16  19
ATOM     19  N   UNL     1       7.003   1.491   5.279  0.00  0.00    +0.380 N 
ATOM     20  H   UNL     1       6.894   1.095   6.201  0.00  0.00    -0.090 HD
ATOM     21  H   UNL     1       7.897   1.954   5.216  0.00  0.00    -0.090 HD
ATOM     22  H   UNL     1       6.266   2.159   5.111  0.00  0.00    -0.090 HD
ENDBRANCH  16  19
ENDBRANCH  12  13
ENDBRANCH   7  12
TORSDOF 5
