REMARK  Name = ZINC01985632
REMARK  14 active torsions:
REMARK  status: ('A' for Active; 'I' for Inactive)
REMARK    1  A    between atoms: C_1  and  C_2
REMARK    2  A    between atoms: C_2  and  C_4
REMARK    3  A    between atoms: C_2  and  O_17
REMARK    4  A    between atoms: N_6  and  C_7
REMARK    5  A    between atoms: C_12  and  C_13
REMARK    6  A    between atoms: O_17  and  C_18
REMARK    7  A    between atoms: C_21  and  C_24
REMARK    8  A    between atoms: N_26  and  C_27
REMARK    9  A    between atoms: C_28  and  C_36
REMARK   10  A    between atoms: C_32  and  C_33
REMARK   11  A    between atoms: C_33  and  C_34
REMARK   12  A    between atoms: C_33  and  C_35
REMARK   13  A    between atoms: C_36  and  C_37
REMARK   14  A    between atoms: C_36  and  C_38
REMARK                            x       y       z     vdW  Elec       q    Type
REMARK                         _______ _______ _______ _____ _____    ______ ____
ROOT
ATOM      1  C   UNL     1      -0.116  -0.089   2.056  0.00  0.00    +0.122 A 
ATOM      2  C   UNL     1      -0.714   0.939   2.776  0.00  0.00    +0.046 A 
ATOM      3  C   UNL     1      -1.291   0.679   3.999  0.00  0.00    +0.016 A 
ATOM      4  C   UNL     1      -1.275  -0.619   4.516  0.00  0.00    +0.037 A 
ATOM      5  C   UNL     1      -0.673  -1.649   3.789  0.00  0.00    +0.016 A 
ATOM      6  C   UNL     1      -0.102  -1.383   2.564  0.00  0.00    +0.046 A 
ENDROOT
BRANCH   4   7
ATOM      7  C   UNL     1      -1.892  -0.901   5.826  0.00  0.00    +0.248 C 
ATOM      8  O   UNL     1      -2.416  -0.004   6.458  0.00  0.00    -0.270 OA
ATOM      9  N   UNL     1      -1.876  -2.154   6.323  0.00  0.00    -0.281 N 
ATOM     10  H   UNL     1      -1.393  -2.854   5.857  0.00  0.00    +0.155 HD
BRANCH   9  11
ATOM     11  C   UNL     1      -2.556  -2.444   7.510  0.00  0.00    +0.041 A 
ATOM     12  C   UNL     1      -1.844  -2.732   8.668  0.00  0.00    -0.023 A 
ATOM     13  C   UNL     1      -2.518  -3.018   9.838  0.00  0.00    +0.006 A 
ATOM     14  C   UNL     1      -3.901  -3.019   9.859  0.00  0.00    +0.001 A 
ATOM     15  C   UNL     1      -4.613  -2.734   8.709  0.00  0.00    +0.006 A 
ATOM     16  C   UNL     1      -3.945  -2.440   7.536  0.00  0.00    -0.023 A 
BRANCH  16  17
ATOM     17  C   UNL     1      -4.721  -2.122   6.284  0.00  0.00    +0.015 C 
ATOM     18  C   UNL     1      -5.670  -3.280   5.965  0.00  0.00    +0.012 C 
ATOM     19  C   UNL     1      -5.532  -0.843   6.498  0.00  0.00    +0.012 C 
ENDBRANCH  16  17
BRANCH  12  20
ATOM     20  C   UNL     1      -0.337  -2.732   8.646  0.00  0.00    +0.015 C 
ATOM     21  C   UNL     1       0.189  -1.780   9.722  0.00  0.00    +0.012 C 
ATOM     22  C   UNL     1       0.177  -4.146   8.921  0.00  0.00    +0.012 C 
ENDBRANCH  12  20
ENDBRANCH   9  11
ENDBRANCH   4   7
BRANCH   1  23
ATOM     23  O   UNL     1       0.452   0.171   0.851  0.00  0.00    -0.480 OA
BRANCH  23  25
ATOM     24  C   UNL     1       1.389   2.397   0.909  0.00  0.00    +0.062 C 
ATOM     25  C   UNL     1       0.298   1.494   0.333  0.00  0.00    +0.256 C 
BRANCH  25  26
ATOM     26  C   UNL     1       0.414   1.461  -1.169  0.00  0.00    +0.258 C 
ATOM     27  O   UNL     1       0.699   0.426  -1.734  0.00  0.00    -0.271 OA
ATOM     28  N   UNL     1       0.201   2.583  -1.886  0.00  0.00    -0.282 N 
ATOM     29  H   UNL     1       0.035   3.424  -1.433  0.00  0.00    +0.155 HD
BRANCH  28  30
ATOM     30  C   UNL     1       0.220   2.534  -3.284  0.00  0.00    +0.045 A 
ATOM     31  C   UNL     1       0.954   1.551  -3.936  0.00  0.00    +0.024 A 
ATOM     32  C   UNL     1       0.971   1.506  -5.316  0.00  0.00    +0.002 A 
ATOM     33  C   UNL     1       0.258   2.437  -6.049  0.00  0.00    +0.001 A 
ATOM     34  C   UNL     1      -0.474   3.416  -5.403  0.00  0.00    +0.014 A 
ATOM     35  C   UNL     1      -0.500   3.463  -4.023  0.00  0.00    +0.076 A 
BRANCH  35  36
ATOM     36  C   UNL     1      -1.304   4.526  -3.320  0.00  0.00    +0.419 C 
ATOM     37  F   UNL     1      -1.936   5.337  -4.268  0.00  0.00    -0.166 F 
ATOM     38  F   UNL     1      -2.268   3.921  -2.507  0.00  0.00    -0.166 F 
ATOM     39  F   UNL     1      -0.453   5.308  -2.530  0.00  0.00    -0.166 F 
ENDBRANCH  35  36
ENDBRANCH  28  30
ENDBRANCH  25  26
ENDBRANCH  23  25
ENDBRANCH   1  23
TORSDOF 9
