REMARK  Name = ZINC59935535
REMARK  9 active torsions:
REMARK  status: ('A' for Active; 'I' for Inactive)
REMARK    1  A    between atoms: C_4  and  N_29
REMARK    2  A    between atoms: C_5  and  N_7
REMARK    3  A    between atoms: N_7  and  C_8
REMARK    4  A    between atoms: C_8  and  C_9
REMARK    5  A    between atoms: C_9  and  C_10
REMARK    6  A    between atoms: N_12  and  C_13
REMARK    7  A    between atoms: C_17  and  C_19
REMARK    8  A    between atoms: C_19  and  N_20
REMARK    9  A    between atoms: C_24  and  C_26
REMARK                            x       y       z     vdW  Elec       q    Type
REMARK                         _______ _______ _______ _____ _____    ______ ____
ROOT
ATOM      1  C   UNL     1      -3.012  -6.048   2.698  0.00  0.00    +0.034 A 
ATOM      2  C   UNL     1      -4.056  -5.133   2.762  0.00  0.00    +0.023 A 
ATOM      3  C   UNL     1      -5.330  -5.562   3.075  0.00  0.00    +0.002 A 
ATOM      4  C   UNL     1      -5.568  -6.901   3.326  0.00  0.00    +0.002 A 
ATOM      5  C   UNL     1      -4.532  -7.814   3.264  0.00  0.00    -0.062 A 
ATOM      6  C   UNL     1      -3.256  -7.392   2.945  0.00  0.00    +0.025 A 
ENDROOT
BRANCH   1   9
ATOM      7  C   UNL     1      -1.284  -4.417   2.817  0.00  0.00    +0.219 C 
ATOM      8  O   UNL     1      -1.975  -3.754   3.560  0.00  0.00    -0.275 OA
ATOM      9  N   UNL     1      -1.720  -5.616   2.381  0.00  0.00    -0.285 N 
ATOM     10  H   UNL     1      -1.137  -6.179   1.848  0.00  0.00    +0.155 HD
BRANCH   7  11
ATOM     11  C   UNL     1       0.063  -3.901   2.380  0.00  0.00    +0.114 C 
BRANCH  11  12
ATOM     12  C   UNL     1       0.313  -2.530   3.012  0.00  0.00    +0.111 C 
BRANCH  12  13
ATOM     13  N   UNL     1       1.623  -2.028   2.587  0.00  0.00    -0.342 N 
ATOM     14  H   UNL     1       2.176  -2.559   1.993  0.00  0.00    +0.146 HD
BRANCH  13  19
ATOM     15  C   UNL     1       1.792   1.147   4.430  0.00  0.00    +0.002 A 
ATOM     16  C   UNL     1       2.969   1.675   3.932  0.00  0.00    +0.002 A 
ATOM     17  C   UNL     1       3.699   0.977   2.989  0.00  0.00    +0.034 A 
ATOM     18  C   UNL     1       3.256  -0.252   2.540  0.00  0.00    +0.147 A 
ATOM     19  C   UNL     1       2.074  -0.786   3.038  0.00  0.00    +0.058 A 
ATOM     20  C   UNL     1       1.343  -0.082   3.986  0.00  0.00    +0.025 A 
BRANCH  18  21
ATOM     21  N   UNL     1       4.038  -0.999   1.530  0.00  0.00    +0.058 N 
ATOM     22  O   UNL     1       5.247  -0.985   1.571  0.00  0.00    -0.126 OA
ATOM     23  O   UNL     1       3.469  -1.622   0.665  0.00  0.00    -0.126 OA
ENDBRANCH  18  21
ENDBRANCH  13  19
ENDBRANCH  12  13
ENDBRANCH  11  12
ENDBRANCH   7  11
ENDBRANCH   1   9
BRANCH   5  24
ATOM     24  C   UNL     1      -4.795  -9.272   3.538  0.00  0.00    -0.042 C 
BRANCH  24  25
ATOM     25  N   UNL     1      -5.143  -9.952   2.283  0.00  0.00    +0.390 N 
ATOM     26  C   UNL     1      -6.430  -9.431   1.775  0.00  0.00    -0.077 C 
ATOM     27  C   UNL     1      -7.133 -10.660   1.145  0.00  0.00    -0.020 C 
ATOM     28  C   UNL     1      -6.722 -11.792   2.124  0.00  0.00    -0.008 C 
ATOM     29  C   UNL     1      -5.284 -11.399   2.526  0.00  0.00    +0.019 C 
ATOM     30  H   UNL     1      -4.420  -9.791   1.598  0.00  0.00    -0.080 HD
BRANCH  29  31
ATOM     31  C   UNL     1      -4.292 -12.160   1.684  0.00  0.00    +0.197 C 
ATOM     32  O   UNL     1      -3.534 -11.561   0.950  0.00  0.00    -0.278 OA
ATOM     33  N   UNL     1      -4.245 -13.505   1.748  0.00  0.00    -0.331 N 
ATOM     34  H   UNL     1      -4.851 -13.984   2.335  0.00  0.00    +0.145 HD
ATOM     35  H   UNL     1      -3.606 -13.994   1.206  0.00  0.00    +0.145 HD
ENDBRANCH  29  31
ENDBRANCH  24  25
ENDBRANCH   5  24
TORSDOF 9
