REMARK  Name = ZINC45695437
REMARK  10 active torsions:
REMARK  status: ('A' for Active; 'I' for Inactive)
REMARK    1  A    between atoms: C_1  and  N_2
REMARK    2  A    between atoms: N_2  and  C_3
REMARK    3  A    between atoms: N_2  and  C_4
REMARK    4  A    between atoms: C_4  and  C_6
REMARK    5  A    between atoms: C_4  and  C_22
REMARK    6  A    between atoms: C_6  and  N_7
REMARK    7  A    between atoms: N_10  and  C_11
REMARK    8  A    between atoms: C_16  and  S_17
REMARK    9  A    between atoms: S_17  and  C_18
REMARK   10  A    between atoms: C_18  and  C_19
REMARK                            x       y       z     vdW  Elec       q    Type
REMARK                         _______ _______ _______ _____ _____    ______ ____
ROOT
ATOM      1  N   UNL     1       1.868   1.591  -0.950  0.00  0.00    -0.300 N 
ATOM      2  C   UNL     1       2.987   2.336  -0.858  0.00  0.00    +0.304 C 
ATOM      3  O   UNL     1       4.073   1.830  -1.065  0.00  0.00    -0.253 OA
ATOM      4  N   UNL     1       2.902   3.642  -0.535  0.00  0.00    -0.268 N 
ATOM      5  H   UNL     1       1.002   1.994  -0.785  0.00  0.00    +0.150 HD
ATOM      6  H   UNL     1       2.044   4.029  -0.301  0.00  0.00    +0.156 HD
ENDROOT
BRANCH   4   7
ATOM      7  C   UNL     1       4.054   4.441  -0.539  0.00  0.00    +0.048 A 
ATOM      8  C   UNL     1       5.072   4.189  -1.446  0.00  0.00    +0.024 A 
ATOM      9  C   UNL     1       6.208   4.978  -1.447  0.00  0.00    +0.002 A 
ATOM     10  C   UNL     1       6.333   6.019  -0.545  0.00  0.00    +0.001 A 
ATOM     11  C   UNL     1       5.323   6.278   0.362  0.00  0.00    +0.016 A 
ATOM     12  C   UNL     1       4.177   5.495   0.367  0.00  0.00    +0.030 A 
BRANCH  12  13
ATOM     13  S   UNL     1       2.885   5.826   1.518  0.00  0.00    -0.114 S 
BRANCH  13  14
ATOM     14  C   UNL     1       3.491   7.254   2.458  0.00  0.00    +0.169 C 
BRANCH  14  15
ATOM     15  C   UNL     1       2.466   7.646   3.492  0.00  0.00    +0.221 C 
ATOM     16  O   UNL     1       1.429   7.024   3.584  0.00  0.00    -0.275 OA
ATOM     17  N   UNL     1       2.702   8.688   4.313  0.00  0.00    -0.329 N 
ATOM     18  H   UNL     1       3.531   9.186   4.239  0.00  0.00    +0.145 HD
ATOM     19  H   UNL     1       2.043   8.941   4.978  0.00  0.00    +0.145 HD
ENDBRANCH  14  15
ENDBRANCH  13  14
ENDBRANCH  12  13
ENDBRANCH   4   7
BRANCH   1  20
ATOM     20  C   UNL     1       1.960   0.171  -1.301  0.00  0.00    +0.095 C 
BRANCH  20  21
ATOM     21  C   UNL     1       0.571  -0.466  -1.218  0.00  0.00    -0.020 C 
BRANCH  21  22
ATOM     22  C   UNL     1      -0.330   0.161  -2.251  0.00  0.00    -0.052 A 
ATOM     23  C   UNL     1      -1.229   1.148  -1.891  0.00  0.00    +0.009 A 
ATOM     24  C   UNL     1      -2.025   1.690  -2.844  0.00  0.00    +0.045 A 
ATOM     25  S   UNL     1      -1.514   0.800  -4.304  0.00  0.00    -0.105 S 
ATOM     26  C   UNL     1      -0.269  -0.232  -3.547  0.00  0.00    +0.047 A 
ENDBRANCH  21  22
BRANCH  21  28
ATOM     27  C   UNL     1       1.480  -2.534  -0.412  0.00  0.00    -0.096 C 
ATOM     28  N   UNL     1       0.678  -1.909  -1.472  0.00  0.00    +0.382 N 
ATOM     29  C   UNL     1      -0.664  -2.504  -1.487  0.00  0.00    -0.096 C 
ATOM     30  H   UNL     1       1.124  -2.061  -2.365  0.00  0.00    -0.082 HD
ENDBRANCH  21  28
ENDBRANCH  20  21
ENDBRANCH   1  20
TORSDOF 8
