REMARK  Name = ZINC20132041
REMARK  6 active torsions:
REMARK  status: ('A' for Active; 'I' for Inactive)
REMARK    1  A    between atoms: C_1  and  C_2
REMARK    2  A    between atoms: C_6  and  C_17
REMARK    3  A    between atoms: N_8  and  C_9
REMARK    4  A    between atoms: C_17  and  N_19
REMARK    5  A    between atoms: C_20  and  C_23
REMARK    6  A    between atoms: C_23  and  O_24
REMARK                            x       y       z     vdW  Elec       q    Type
REMARK                         _______ _______ _______ _____ _____    ______ ____
ROOT
ATOM      1  C   UNL     1       0.573   7.268   0.055  0.00  0.00    +0.069 C 
ATOM      2  C   UNL     1       0.799   5.778   0.042  0.00  0.00    +0.081 A 
ATOM      3  C   UNL     1       2.093   5.278   0.019  0.00  0.00    +0.159 A 
ATOM      4  C   UNL     1       2.279   3.882   0.015  0.00  0.00    +0.027 A 
ATOM      5  C   UNL     1       3.636   3.333   0.004  0.00  0.00    +0.027 A 
ATOM      6  C   UNL     1       4.672   4.202   0.271  0.00  0.00    +0.064 A 
ATOM      7  C   UNL     1       4.319   5.610   0.546  0.00  0.00    +0.209 A 
ATOM      8  N   UNL     1       5.098   6.369   1.284  0.00  0.00    -0.323 N 
ATOM      9  O   UNL     1       3.169   6.099   0.003  0.00  0.00    -0.437 OA
ATOM     10  C   UNL     1       1.149   3.055   0.019  0.00  0.00    +0.007 A 
ATOM     11  C   UNL     1      -0.098   3.645   0.041  0.00  0.00    +0.117 A 
ATOM     12  N   UNL     1      -0.233   4.958   0.052  0.00  0.00    -0.256 NA
ATOM     13  H   UNL     1       5.980   5.936   1.778  0.00  0.00    +0.169 HD
ENDROOT
BRANCH   8  14
ATOM     14  C   UNL     1       4.810   7.697   1.440  0.00  0.00    +0.077 A 
ATOM     15  C   UNL     1       5.253   8.626   0.495  0.00  0.00    +0.028 A 
ATOM     16  C   UNL     1       4.955   9.964   0.655  0.00  0.00    +0.002 A 
ATOM     17  C   UNL     1       4.229  10.389   1.754  0.00  0.00    +0.003 A 
ATOM     18  C   UNL     1       3.791   9.476   2.697  0.00  0.00    +0.040 A 
ATOM     19  C   UNL     1       4.077   8.133   2.548  0.00  0.00    +0.147 A 
ATOM     20  F   UNL     1       3.650   7.243   3.471  0.00  0.00    -0.203 F 
ENDBRANCH   8  14
BRANCH   6  21
ATOM     21  C   UNL     1       6.072   3.746   0.282  0.00  0.00    +0.082 C 
ATOM     22  S   UNL     1       6.440   2.105  -0.041  0.00  0.00    -0.035 S 
BRANCH  21  23
ATOM     23  N   UNL     1       7.063   4.620   0.546  0.00  0.00    -0.352 N 
ATOM     24  H   UNL     1       8.109   4.279   0.554  0.00  0.00    +0.143 HD
ATOM     25  H   UNL     1       6.826   5.674   0.753  0.00  0.00    +0.143 HD
ENDBRANCH  21  23
ENDBRANCH   6  21
BRANCH  10  26
ATOM     26  C   UNL     1       1.292   1.555   0.007  0.00  0.00    +0.193 C 
BRANCH  26  27
ATOM     27  O   UNL     1      -0.004   0.953   0.021  0.00  0.00    -0.390 OA
ATOM     28  H   UNL     1      -0.101  -0.143   0.014  0.00  0.00    +0.210 HD
ENDBRANCH  26  27
ENDBRANCH  10  26
TORSDOF 5
