REMARK  Name = ZINC65600855
REMARK  12 active torsions:
REMARK  status: ('A' for Active; 'I' for Inactive)
REMARK    1  A    between atoms: C_1  and  C_2
REMARK    2  A    between atoms: C_2  and  C_3
REMARK    3  A    between atoms: N_5  and  C_6
REMARK    4  A    between atoms: C_9  and  N_12
REMARK    5  A    between atoms: C_13  and  C_15
REMARK    6  A    between atoms: N_17  and  C_18
REMARK    7  A    between atoms: C_18  and  C_19
REMARK    8  A    between atoms: C_19  and  C_20
REMARK    9  A    between atoms: C_19  and  N_27
REMARK   10  A    between atoms: C_23  and  C_26
REMARK   11  A    between atoms: N_27  and  C_28
REMARK   12  A    between atoms: N_27  and  C_29
REMARK                            x       y       z     vdW  Elec       q    Type
REMARK                         _______ _______ _______ _____ _____    ______ ____
ROOT
ATOM      1  C   UNL     1       4.850  -5.910   6.755  0.00  0.00    +0.299 C 
ATOM      2  O   UNL     1       5.237  -5.189   7.650  0.00  0.00    -0.265 OA
ATOM      3  N   UNL     1       5.097  -7.234   6.801  0.00  0.00    -0.309 N 
ATOM      4  H   UNL     1       4.787  -7.811   6.086  0.00  0.00    +0.149 HD
ENDROOT
BRANCH   1   6
ATOM      5  N   UNL     1       3.852  -4.007   5.554  0.00  0.00    -0.278 N 
ATOM      6  C   UNL     1       4.099  -5.331   5.601  0.00  0.00    +0.303 C 
ATOM      7  O   UNL     1       3.712  -6.053   4.705  0.00  0.00    -0.265 OA
ATOM      8  H   UNL     1       4.101  -3.441   6.301  0.00  0.00    +0.155 HD
BRANCH   5  12
ATOM      9  C   UNL     1       2.020  -2.346   2.200  0.00  0.00    +0.033 A 
ATOM     10  C   UNL     1       1.661  -3.617   2.629  0.00  0.00    +0.025 A 
ATOM     11  C   UNL     1       2.267  -4.168   3.740  0.00  0.00    +0.025 A 
ATOM     12  C   UNL     1       3.238  -3.450   4.428  0.00  0.00    +0.034 A 
ATOM     13  C   UNL     1       3.597  -2.178   3.998  0.00  0.00    +0.025 A 
ATOM     14  C   UNL     1       2.994  -1.631   2.884  0.00  0.00    +0.025 A 
BRANCH   9  17
ATOM     15  C   UNL     1       2.112  -1.004   0.236  0.00  0.00    +0.217 C 
ATOM     16  O   UNL     1       3.259  -0.711   0.505  0.00  0.00    -0.275 OA
ATOM     17  N   UNL     1       1.404  -1.788   1.072  0.00  0.00    -0.286 N 
ATOM     18  H   UNL     1       0.467  -1.966   0.893  0.00  0.00    +0.155 HD
BRANCH  15  20
ATOM     19  C   UNL     1       2.492   0.369  -1.794  0.00  0.00    +0.013 C 
ATOM     20  C   UNL     1       1.481  -0.490  -1.032  0.00  0.00    +0.093 C 
ENDBRANCH  15  20
ENDBRANCH   9  17
ENDBRANCH   5  12
ENDBRANCH   1   6
BRANCH   3  21
ATOM     21  C   UNL     1       5.833  -7.802   7.933  0.00  0.00    +0.094 C 
BRANCH  21  22
ATOM     22  C   UNL     1       6.086  -9.290   7.682  0.00  0.00    -0.021 C 
BRANCH  22  23
ATOM     23  C   UNL     1       6.999  -9.451   6.494  0.00  0.00    -0.059 A 
ATOM     24  C   UNL     1       8.364  -9.285   6.643  0.00  0.00    +0.002 A 
ATOM     25  C   UNL     1       9.201  -9.433   5.553  0.00  0.00    +0.003 A 
ATOM     26  C   UNL     1       8.674  -9.747   4.314  0.00  0.00    -0.050 A 
ATOM     27  C   UNL     1       7.310  -9.913   4.165  0.00  0.00    +0.003 A 
ATOM     28  C   UNL     1       6.473  -9.770   5.256  0.00  0.00    +0.002 A 
ATOM     29  C   UNL     1       9.587  -9.907   3.126  0.00  0.00    +0.044 C 
ENDBRANCH  22  23
BRANCH  22  30
ATOM     30  N   UNL     1       6.716  -9.887   8.868  0.00  0.00    +0.382 N 
ATOM     31  C   UNL     1       5.780  -9.832   9.999  0.00  0.00    -0.096 C 
ATOM     32  C   UNL     1       7.062 -11.287   8.586  0.00  0.00    -0.096 C 
ATOM     33  H   UNL     1       7.553  -9.373   9.098  0.00  0.00    -0.082 HD
ENDBRANCH  22  30
ENDBRANCH  21  22
ENDBRANCH   3  21
TORSDOF 8
