REMARK  Name = ZINC56709645
REMARK  11 active torsions:
REMARK  status: ('A' for Active; 'I' for Inactive)
REMARK    1  A    between atoms: C_1  and  C_2
REMARK    2  A    between atoms: C_4  and  O_24
REMARK    3  A    between atoms: C_7  and  N_8
REMARK    4  A    between atoms: N_11  and  C_12
REMARK    5  A    between atoms: C_12  and  C_13
REMARK    6  A    between atoms: C_13  and  C_14
REMARK    7  A    between atoms: C_14  and  C_15
REMARK    8  A    between atoms: C_15  and  N_16
REMARK    9  A    between atoms: C_21  and  C_23
REMARK   10  A    between atoms: O_24  and  C_25
REMARK   11  A    between atoms: C_25  and  C_26
REMARK                            x       y       z     vdW  Elec       q    Type
REMARK                         _______ _______ _______ _____ _____    ______ ____
ROOT
ATOM      1  N   UNL     1       0.025  -0.011   2.418  0.00  0.00    -0.269 N 
ATOM      2  C   UNL     1      -0.056  -0.689   3.580  0.00  0.00    +0.304 C 
ATOM      3  O   UNL     1      -0.040  -1.905   3.577  0.00  0.00    -0.253 OA
ATOM      4  N   UNL     1      -0.156  -0.019   4.745  0.00  0.00    -0.299 N 
ATOM      5  H   UNL     1       0.078   0.958   2.424  0.00  0.00    +0.156 HD
ATOM      6  H   UNL     1      -0.169   0.951   4.748  0.00  0.00    +0.150 HD
ENDROOT
BRANCH   1  13
ATOM      7  C   UNL     1      -1.267   1.182   0.182  0.00  0.00    +0.046 C 
ATOM      8  C   UNL     1      -0.586  -0.158   0.085  0.00  0.00    -0.026 A 
ATOM      9  C   UNL     1      -0.572  -0.841  -1.116  0.00  0.00    +0.050 A 
ATOM     10  C   UNL     1       0.055  -2.074  -1.206  0.00  0.00    +0.122 A 
ATOM     11  C   UNL     1       0.669  -2.624  -0.090  0.00  0.00    +0.047 A 
ATOM     12  C   UNL     1       0.655  -1.944   1.111  0.00  0.00    +0.027 A 
ATOM     13  C   UNL     1       0.034  -0.705   1.201  0.00  0.00    +0.038 A 
BRANCH  10  14
ATOM     14  O   UNL     1       0.068  -2.745  -2.388  0.00  0.00    -0.483 OA
BRANCH  14  15
ATOM     15  C   UNL     1       0.732  -4.011  -2.409  0.00  0.00    +0.324 C 
BRANCH  15  16
ATOM     16  C   UNL     1       0.644  -4.601  -3.793  0.00  0.00    +0.248 C 
ATOM     17  O   UNL     1       0.070  -3.998  -4.674  0.00  0.00    -0.272 OA
ATOM     18  N   UNL     1       1.204  -5.800  -4.050  0.00  0.00    -0.327 N 
ATOM     19  H   UNL     1       1.664  -6.282  -3.345  0.00  0.00    +0.145 HD
ATOM     20  H   UNL     1       1.148  -6.180  -4.941  0.00  0.00    +0.145 HD
ENDBRANCH  15  16
ENDBRANCH  14  15
ENDBRANCH  10  14
ENDBRANCH   1  13
BRANCH   4  21
ATOM     21  C   UNL     1      -0.245  -0.756   6.008  0.00  0.00    +0.105 C 
BRANCH  21  22
ATOM     22  C   UNL     1      -0.348   0.234   7.170  0.00  0.00    +0.017 C 
BRANCH  22  23
ATOM     23  C   UNL     1      -0.441  -0.536   8.489  0.00  0.00    -0.017 C 
BRANCH  23  24
ATOM     24  C   UNL     1      -0.544   0.454   9.651  0.00  0.00    -0.078 C 
BRANCH  24  25
ATOM     25  N   UNL     1      -0.633  -0.285  10.918  0.00  0.00    +0.381 N 
ATOM     26  C   UNL     1      -1.880  -1.060  10.944  0.00  0.00    -0.078 C 
ATOM     27  C   UNL     1      -1.939  -1.894  12.225  0.00  0.00    -0.019 C 
ATOM     28  C   UNL     1      -1.890  -0.961  13.439  0.00  0.00    -0.003 C 
ATOM     29  C   UNL     1      -0.623  -0.106  13.362  0.00  0.00    -0.016 C 
ATOM     30  C   UNL     1      -0.612   0.663  12.038  0.00  0.00    -0.072 C 
ATOM     31  C   UNL     1       0.653   1.519  11.957  0.00  0.00    -0.013 C 
ATOM     32  H   UNL     1       0.153  -0.914  10.995  0.00  0.00    -0.081 HD
ENDBRANCH  24  25
ENDBRANCH  23  24
ENDBRANCH  22  23
ENDBRANCH  21  22
ENDBRANCH   4  21
TORSDOF 9
