REMARK  Name = ZINC61277601
REMARK  2 active torsions:
REMARK  status: ('A' for Active; 'I' for Inactive)
REMARK    1  A    between atoms: C_5  and  N_7
REMARK    2  A    between atoms: N_7  and  C_8
REMARK                            x       y       z     vdW  Elec       q    Type
REMARK                         _______ _______ _______ _____ _____    ______ ____
ROOT
ATOM      1  N   UNL     1       1.173  -2.051  -0.021  0.00  0.00    -0.326 N 
ATOM      2  H   UNL     1       2.019  -2.526  -0.032  0.00  0.00    +0.148 HD
ENDROOT
BRANCH   1   3
ATOM      3  C   UNL     1      -0.086  -2.800  -0.014  0.00  0.00    +0.069 C 
ATOM      4  C   UNL     1      -0.602  -2.949  -1.448  0.00  0.00    +0.003 C 
ATOM      5  C   UNL     1      -1.897  -3.764  -1.442  0.00  0.00    -0.080 C 
ATOM      6  N   UNL     1      -1.632  -5.108  -0.912  0.00  0.00    +0.383 N 
ATOM      7  C   UNL     1      -1.138  -5.008   0.463  0.00  0.00    -0.067 C 
ATOM      8  C   UNL     1       0.149  -4.192   0.582  0.00  0.00    +0.010 C 
ATOM      9  C   UNL     1      -1.075  -6.356   1.192  0.00  0.00    -0.012 C 
ATOM     10  C   UNL     1      -1.594  -5.616   2.437  0.00  0.00    -0.003 C 
ATOM     11  C   UNL     1      -2.216  -4.592   1.472  0.00  0.00    -0.012 C 
ATOM     12  H   UNL     1      -2.484  -5.648  -0.924  0.00  0.00    -0.085 HD
ATOM     13  H   UNL     1      -0.938  -5.564  -1.486  0.00  0.00    -0.085 HD
ENDBRANCH   1   3
BRANCH   1  18
ATOM     14  C   UNL     1      -0.016   1.313   0.009  0.00  0.00    +0.223 A 
ATOM     15  N   UNL     1       1.093   2.025   0.003  0.00  0.00    -0.240 NA
ATOM     16  C   UNL     1       2.283   1.437  -0.012  0.00  0.00    +0.049 A 
ATOM     17  C   UNL     1       2.349   0.059  -0.020  0.00  0.00    +0.014 A 
ATOM     18  C   UNL     1       1.156  -0.666  -0.013  0.00  0.00    +0.126 A 
ATOM     19  N   UNL     1       0.002  -0.004   0.002  0.00  0.00    -0.221 NA
ATOM     20  C   UNL     1       3.791  -0.388  -0.037  0.00  0.00    +0.041 C 
ATOM     21  C   UNL     1       4.594   0.856  -0.474  0.00  0.00    +0.011 C 
ATOM     22  C   UNL     1       3.679   2.015  -0.022  0.00  0.00    +0.056 C 
ENDBRANCH   1  18
TORSDOF 2
