REMARK  Name = ZINC49528994
REMARK  9 active torsions:
REMARK  status: ('A' for Active; 'I' for Inactive)
REMARK    1  A    between atoms: C_1  and  C_2
REMARK    2  A    between atoms: C_2  and  C_3
REMARK    3  A    between atoms: C_3  and  C_5
REMARK    4  A    between atoms: C_3  and  N_10
REMARK    5  A    between atoms: N_10  and  C_11
REMARK    6  A    between atoms: C_11  and  C_13
REMARK    7  A    between atoms: C_11  and  C_15
REMARK    8  A    between atoms: C_13  and  C_14
REMARK    9  A    between atoms: C_20  and  O_21
REMARK                            x       y       z     vdW  Elec       q    Type
REMARK                         _______ _______ _______ _____ _____    ______ ____
ROOT
ATOM      1  C   UNL     1      -2.260   1.204   1.056  0.00  0.00    -0.037 C 
ENDROOT
BRANCH   1   2
ATOM      2  C   UNL     1      -2.736   1.895   2.308  0.00  0.00    -0.019 A 
ATOM      3  C   UNL     1      -3.465   1.195   3.250  0.00  0.00    +0.020 A 
ATOM      4  C   UNL     1      -3.902   1.829   4.399  0.00  0.00    +0.018 A 
ATOM      5  C   UNL     1      -3.610   3.165   4.608  0.00  0.00    +0.019 A 
ATOM      6  C   UNL     1      -2.881   3.869   3.669  0.00  0.00    +0.047 A 
ATOM      7  C   UNL     1      -2.438   3.233   2.518  0.00  0.00    +0.119 A 
ATOM      8 BR   UNL     1      -4.901   0.868   5.686  0.00  0.00    -0.050 Br
BRANCH   7   9
ATOM      9  O   UNL     1      -1.716   3.923   1.595  0.00  0.00    -0.507 OA
ATOM     10  H   UNL     1      -2.254   4.354   0.917  0.00  0.00    +0.292 HD
ENDBRANCH   7   9
ENDBRANCH   1   2
BRANCH   1  11
ATOM     11  N   UNL     1      -2.266  -0.250   1.267  0.00  0.00    +0.389 N 
ATOM     12  H   UNL     1      -2.045  -0.716   0.401  0.00  0.00    -0.084 HD
ATOM     13  H   UNL     1      -3.180  -0.540   1.582  0.00  0.00    -0.084 HD
BRANCH  11  14
ATOM     14  C   UNL     1      -1.264  -0.601   2.282  0.00  0.00    -0.033 C 
BRANCH  14  15
ATOM     15  C   UNL     1       0.114  -0.289   1.758  0.00  0.00    -0.024 A 
ATOM     16  C   UNL     1       1.175   0.243   2.411  0.00  0.00    +0.009 A 
ATOM     17  C   UNL     1       2.356   0.444   1.720  0.00  0.00    +0.008 A 
ATOM     18  C   UNL     1       2.417   0.103   0.410  0.00  0.00    +0.045 A 
ATOM     19  S   UNL     1       0.773  -0.530   0.116  0.00  0.00    -0.103 S 
ENDBRANCH  14  15
BRANCH  14  21
ATOM     20  C   UNL     1      -2.707  -2.387   3.267  0.00  0.00    +0.002 C 
ATOM     21  C   UNL     1      -1.362  -2.095   2.600  0.00  0.00    -0.014 C 
ENDBRANCH  14  21
ENDBRANCH  11  14
ENDBRANCH   1  11
BRANCH   1  22
ATOM     22  C   UNL     1      -3.192   1.555  -0.105  0.00  0.00    -0.014 C 
ATOM     23  C   UNL     1      -2.636   0.962  -1.402  0.00  0.00    +0.002 C 
ENDBRANCH   1  22
TORSDOF 7
