REMARK  Name = ZINC04210418
REMARK  7 active torsions:
REMARK  status: ('A' for Active; 'I' for Inactive)
REMARK    1  A    between atoms: C_3  and  C_9
REMARK    2  A    between atoms: C_4  and  O_8
REMARK    3  A    between atoms: C_6  and  O_7
REMARK    4  A    between atoms: N_10  and  N_11
REMARK    5  A    between atoms: C_12  and  C_14
REMARK    6  A    between atoms: N_16  and  C_17
REMARK    7  A    between atoms: C_18  and  C_26
REMARK                            x       y       z     vdW  Elec       q    Type
REMARK                         _______ _______ _______ _____ _____    ______ ____
ROOT
ATOM      1  N   UNL     1      -2.982   8.956  -4.521  0.00  0.00    -0.199 N 
ATOM      2  C   UNL     1      -2.664   8.664  -3.244  0.00  0.00    +0.318 C 
ATOM      3  O   UNL     1      -2.679   9.537  -2.400  0.00  0.00    -0.263 OA
ATOM      4  H   UNL     1      -2.970   8.259  -5.195  0.00  0.00    +0.178 HD
ENDROOT
BRANCH   2   5
ATOM      5  C   UNL     1      -2.293   7.271  -2.868  0.00  0.00    +0.305 C 
ATOM      6  O   UNL     1      -2.279   6.398  -3.712  0.00  0.00    -0.265 OA
ATOM      7  N   UNL     1      -1.975   6.979  -1.591  0.00  0.00    -0.271 N 
ATOM      8  H   UNL     1      -1.987   7.677  -0.917  0.00  0.00    +0.156 HD
BRANCH   7   9
ATOM      9  C   UNL     1      -1.631   5.684  -1.242  0.00  0.00    +0.090 A 
ATOM     10  C   UNL     1      -1.275   5.183   0.004  0.00  0.00    +0.084 A 
ATOM     11  C   UNL     1      -0.956   3.769   0.100  0.00  0.00    -0.018 A 
ATOM     12  C   UNL     1      -1.036   3.058  -1.048  0.00  0.00    -0.004 A 
ATOM     13  S   UNL     1      -1.532   4.234  -2.277  0.00  0.00    -0.077 S 
ATOM     14  C   UNL     1      -0.762   1.598  -1.231  0.00  0.00    +0.043 C 
ATOM     15  C   UNL     1      -0.013   1.086   0.008  0.00  0.00    +0.005 C 
ATOM     16  C   UNL     1      -0.736   1.583   1.263  0.00  0.00    +0.005 C 
ATOM     17  C   UNL     1      -0.552   3.093   1.407  0.00  0.00    +0.037 C 
BRANCH  10  18
ATOM     18  C   UNL     1      -1.223   6.032   1.155  0.00  0.00    +0.102 C 
ATOM     19  N   UNL     1      -1.182   6.706   2.069  0.00  0.00    -0.191 NA
ENDBRANCH  10  18
ENDBRANCH   7   9
ENDBRANCH   2   5
BRANCH   1  21
ATOM     20  C   UNL     1      -3.637  10.547  -6.106  0.00  0.00    +0.142 C 
ATOM     21  N   UNL     1      -3.330  10.266  -4.874  0.00  0.00    -0.187 NA
BRANCH  20  24
ATOM     22  C   UNL     1      -4.675  13.519  -8.143  0.00  0.00    +0.046 A 
ATOM     23  C   UNL     1      -4.333  12.229  -7.800  0.00  0.00    +0.016 A 
ATOM     24  C   UNL     1      -4.003  11.924  -6.477  0.00  0.00    +0.036 A 
ATOM     25  C   UNL     1      -4.027  12.934  -5.503  0.00  0.00    +0.129 A 
ATOM     26  C   UNL     1      -4.367  14.226  -5.861  0.00  0.00    +0.091 A 
ATOM     27  C   UNL     1      -4.693  14.519  -7.178  0.00  0.00    +0.120 A 
BRANCH  27  28
ATOM     28  O   UNL     1      -5.032  15.787  -7.524  0.00  0.00    -0.507 OA
ATOM     29  H   UNL     1      -5.978  15.975  -7.454  0.00  0.00    +0.292 HD
ENDBRANCH  27  28
BRANCH  25  30
ATOM     30  O   UNL     1      -3.712  12.645  -4.214  0.00  0.00    -0.506 OA
ATOM     31  H   UNL     1      -2.773  12.741  -4.007  0.00  0.00    +0.292 HD
ENDBRANCH  25  30
ENDBRANCH  20  24
ENDBRANCH   1  21
TORSDOF 7
