REMARK  Name = ZINC22589494
REMARK  10 active torsions:
REMARK  status: ('A' for Active; 'I' for Inactive)
REMARK    1  A    between atoms: C_4  and  C_7
REMARK    2  A    between atoms: C_7  and  O_8
REMARK    3  A    between atoms: O_8  and  C_9
REMARK    4  A    between atoms: C_12  and  C_18
REMARK    5  A    between atoms: C_14  and  C_15
REMARK    6  A    between atoms: C_18  and  C_20
REMARK    7  A    between atoms: C_18  and  O_34
REMARK    8  A    between atoms: C_20  and  N_21
REMARK    9  A    between atoms: N_21  and  C_22
REMARK   10  A    between atoms: C_22  and  C_23
REMARK                            x       y       z     vdW  Elec       q    Type
REMARK                         _______ _______ _______ _____ _____    ______ ____
ROOT
ATOM      1  C   UNL     1      -1.028  10.330   1.468  0.00  0.00    +0.133 A 
ATOM      2  C   UNL     1       0.218   9.870   1.868  0.00  0.00    +0.047 A 
ATOM      3  C   UNL     1       0.429   8.518   2.054  0.00  0.00    +0.010 A 
ATOM      4  C   UNL     1      -0.597   7.612   1.843  0.00  0.00    -0.020 A 
ATOM      5  C   UNL     1      -1.840   8.051   1.440  0.00  0.00    +0.022 A 
ATOM      6  C   UNL     1      -2.069   9.417   1.253  0.00  0.00    +0.078 A 
ENDROOT
BRANCH   6   7
ATOM      7  C   UNL     1      -3.399   9.894   0.827  0.00  0.00    +0.245 C 
ATOM      8  O   UNL     1      -3.594  11.083   0.661  0.00  0.00    -0.270 OA
ATOM      9  N   UNL     1      -4.397   9.012   0.622  0.00  0.00    -0.325 N 
ATOM     10  H   UNL     1      -5.389   9.368   0.305  0.00  0.00    +0.145 HD
ATOM     11  H   UNL     1      -4.221   7.937   0.772  0.00  0.00    +0.145 HD
ENDBRANCH   6   7
BRANCH   1  12
ATOM     12  O   UNL     1      -1.238  11.657   1.285  0.00  0.00    -0.487 OA
BRANCH  12  13
ATOM     13  C   UNL     1      -0.130  12.528   1.523  0.00  0.00    +0.264 C 
BRANCH  13  17
ATOM     14  C   UNL     1      -1.316  16.570   0.810  0.00  0.00    +0.000 A 
ATOM     15  C   UNL     1      -1.453  16.021   2.072  0.00  0.00    +0.000 A 
ATOM     16  C   UNL     1      -1.070  14.713   2.303  0.00  0.00    +0.007 A 
ATOM     17  C   UNL     1      -0.548  13.954   1.272  0.00  0.00    -0.010 A 
ATOM     18  C   UNL     1      -0.406  14.504   0.012  0.00  0.00    +0.007 A 
ATOM     19  C   UNL     1      -0.794  15.810  -0.220  0.00  0.00    +0.000 A 
ENDBRANCH  13  17
ENDBRANCH  12  13
ENDBRANCH   1  12
BRANCH   4  20
ATOM     20  C   UNL     1      -0.353   6.140   2.049  0.00  0.00    +0.128 C 
BRANCH  20  21
ATOM     21  O   UNL     1       0.465   5.950   3.206  0.00  0.00    -0.389 OA
ATOM     22  H   UNL     1       0.751   4.935   3.517  0.00  0.00    +0.210 HD
ENDBRANCH  20  21
BRANCH  20  23
ATOM     23  C   UNL     1       0.358   5.564   0.823  0.00  0.00    -0.046 C 
BRANCH  23  24
ATOM     24  N   UNL     1       0.490   4.108   0.971  0.00  0.00    +0.383 N 
ATOM     25  H   UNL     1       1.076   3.884   1.874  0.00  0.00    -0.086 HD
ATOM     26  H   UNL     1      -0.509   3.657   1.062  0.00  0.00    -0.086 HD
BRANCH  24  27
ATOM     27  C   UNL     1       1.169   3.520  -0.190  0.00  0.00    -0.046 C 
BRANCH  27  28
ATOM     28  C   UNL     1       1.287   2.006   0.001  0.00  0.00    +0.132 C 
ATOM     29  C   UNL     1       2.108   1.425  -1.121  0.00  0.00    -0.017 A 
ATOM     30  C   UNL     1       3.268   2.079  -1.506  0.00  0.00    +0.006 A 
ATOM     31  C   UNL     1       4.050   1.570  -2.524  0.00  0.00    +0.000 A 
ATOM     32  C   UNL     1       3.675   0.402  -3.162  0.00  0.00    +0.000 A 
ATOM     33  C   UNL     1       2.519  -0.250  -2.781  0.00  0.00    +0.004 A 
ATOM     34  C   UNL     1       1.733   0.262  -1.760  0.00  0.00    -0.040 A 
ATOM     35  C   UNL     1       0.476  -0.475  -1.374  0.00  0.00    +0.063 C 
ATOM     36  C   UNL     1       0.002  -0.004   0.002  0.00  0.00    +0.165 C 
ATOM     37  O   UNL     1      -0.017   1.428   0.010  0.00  0.00    -0.374 OA
ENDBRANCH  27  28
ENDBRANCH  24  27
ENDBRANCH  23  24
ENDBRANCH  20  23
ENDBRANCH   4  20
TORSDOF 10
