REMARK  Name = ZINC39205034
REMARK  2 active torsions:
REMARK  status: ('A' for Active; 'I' for Inactive)
REMARK    1  A    between atoms: C_5  and  N_7
REMARK    2  A    between atoms: C_8  and  C_9
REMARK                            x       y       z     vdW  Elec       q    Type
REMARK                         _______ _______ _______ _____ _____    ______ ____
ROOT
ATOM      1  C   UNL     1       0.022   1.361   0.274  0.00  0.00    +0.003 A 
ATOM      2  C   UNL     1       1.173   2.096  -0.002  0.00  0.00    +0.014 A 
ATOM      3  C   UNL     1       2.357   1.438  -0.286  0.00  0.00    +0.054 A 
ATOM      4  C   UNL     1       2.396   0.024  -0.296  0.00  0.00    +0.077 A 
ATOM      5  C   UNL     1       1.229  -0.705  -0.016  0.00  0.00    +0.077 A 
ATOM      6  C   UNL     1       0.038  -0.003   0.270  0.00  0.00    +0.028 A 
ATOM      7  C   UNL     1       3.682  -0.607  -0.604  0.00  0.00    +0.286 C 
ATOM      8  O   UNL     1       3.788  -1.819  -0.630  0.00  0.00    -0.267 OA
ATOM      9  N   UNL     1       4.746   0.180  -0.859  0.00  0.00    -0.084 NA
ATOM     10  N   UNL     1       4.718   1.408  -0.851  0.00  0.00    -0.084 NA
ATOM     11  C   UNL     1       3.619   2.142  -0.588  0.00  0.00    +0.284 C 
ATOM     12  O   UNL     1       3.665   3.356  -0.598  0.00  0.00    -0.267 OA
ENDROOT
BRANCH   5  13
ATOM     13  N   UNL     1       1.245  -2.054  -0.021  0.00  0.00    -0.254 NA
ATOM     14  C   UNL     1       0.315  -2.721  -0.669  0.00  0.00    +0.126 C 
BRANCH  14  15
ATOM     15  C   UNL     1       0.272  -4.127  -0.591  0.00  0.00    +0.031 A 
ATOM     16  C   UNL     1      -0.617  -5.016  -1.198  0.00  0.00    +0.018 A 
ATOM     17  C   UNL     1      -0.404  -6.342  -0.931  0.00  0.00    +0.023 A 
ATOM     18  C   UNL     1       0.628  -6.696  -0.117  0.00  0.00    +0.055 A 
ATOM     19  S   UNL     1       1.344  -5.236   0.304  0.00  0.00    -0.081 S 
ATOM     20 BR   UNL     1       1.144  -8.437   0.413  0.00  0.00    -0.043 Br
ENDBRANCH  14  15
ENDBRANCH   5  13
TORSDOF 2
