REMARK  Name = ZINC03346725
REMARK  14 active torsions:
REMARK  status: ('A' for Active; 'I' for Inactive)
REMARK    1  A    between atoms: C_1  and  C_2
REMARK    2  A    between atoms: C_2  and  O_3
REMARK    3  A    between atoms: O_3  and  C_4
REMARK    4  A    between atoms: C_4  and  C_6
REMARK    5  A    between atoms: C_10  and  N_11
REMARK    6  A    between atoms: C_12  and  C_14
REMARK    7  A    between atoms: C_14  and  N_62
REMARK    8  A    between atoms: C_15  and  N_62
REMARK    9  A    between atoms: C_16  and  C_17
REMARK   10  A    between atoms: C_16  and  N_62
REMARK   11  A    between atoms: C_23  and  C_28
REMARK   12  A    between atoms: C_23  and  C_29
REMARK   13  A    between atoms: C_24  and  C_26
REMARK   14  A    between atoms: C_24  and  C_27
REMARK                            x       y       z     vdW  Elec       q    Type
REMARK                         _______ _______ _______ _____ _____    ______ ____
ROOT
ATOM      1  C   UNL     1       1.284   1.991   0.001  0.00  0.00    +0.091 A 
ATOM      2  C   UNL     1      -0.016   1.349   0.009  0.00  0.00    -0.024 A 
ATOM      3  C   UNL     1       0.002  -0.004   0.002  0.00  0.00    -0.016 A 
ATOM      4  S   UNL     1       1.721  -0.428  -0.030  0.00  0.00    -0.079 S 
ATOM      5  C   UNL     1       2.405   1.164  -0.028  0.00  0.00    +0.086 A 
ATOM      6  C   UNL     1      -1.184  -0.911   0.025  0.00  0.00    -0.041 C 
ATOM      7  C   UNL     1      -2.380   1.160  -0.681  0.00  0.00    -0.069 C 
ATOM      8  C   UNL     1      -1.357   2.067   0.007  0.00  0.00    +0.024 C 
ATOM      9  C   UNL     1      -2.059   1.085  -2.177  0.00  0.00    -0.010 C 
ATOM     10  C   UNL     1      -3.767   1.813  -0.529  0.00  0.00    -0.010 C 
ATOM     11  C   UNL     1      -1.062  -1.936  -1.108  0.00  0.00    -0.005 C 
ATOM     12  C   UNL     1      -1.177  -1.676   1.361  0.00  0.00    -0.005 C 
ATOM     13  N   UNL     1      -2.483  -0.188  -0.066  0.00  0.00    +0.389 N 
ATOM     14  H   UNL     1      -2.861  -0.082   0.882  0.00  0.00    -0.084 HD
ATOM     15  H   UNL     1      -3.128  -0.752  -0.631  0.00  0.00    -0.084 HD
ENDROOT
BRANCH   5  16
ATOM     16  N   UNL     1       3.742   1.531  -0.048  0.00  0.00    -0.281 N 
ATOM     17  C   UNL     1       4.700   0.584  -0.074  0.00  0.00    +0.201 C 
ATOM     18  O   UNL     1       4.394  -0.590  -0.079  0.00  0.00    -0.278 OA
ATOM     19  H   UNL     1       3.987   2.469  -0.044  0.00  0.00    +0.155 HD
BRANCH  17  20
ATOM     20  C   UNL     1       6.153   0.983  -0.096  0.00  0.00    +0.019 C 
BRANCH  20  22
ATOM     21  C   UNL     1       6.813  -0.962  -1.378  0.00  0.00    -0.095 C 
ATOM     22  N   UNL     1       6.984  -0.240  -0.100  0.00  0.00    +0.386 N 
ATOM     23  H   UNL     1       6.683  -0.850   0.670  0.00  0.00    -0.081 HD
BRANCH  22  24
ATOM     24  C   UNL     1       8.405   0.113   0.095  0.00  0.00    -0.043 C 
BRANCH  24  25
ATOM     25  C   UNL     1       9.196  -1.152   0.307  0.00  0.00    -0.064 A 
ATOM     26  C   UNL     1       9.366  -1.655   1.584  0.00  0.00    +0.002 A 
ATOM     27  C   UNL     1      10.088  -2.818   1.778  0.00  0.00    +0.000 A 
ATOM     28  C   UNL     1      10.648  -3.472   0.697  0.00  0.00    +0.000 A 
ATOM     29  C   UNL     1      10.483  -2.966  -0.579  0.00  0.00    +0.000 A 
ATOM     30  C   UNL     1       9.757  -1.806  -0.773  0.00  0.00    +0.002 A 
ENDBRANCH  24  25
ENDBRANCH  22  24
ENDBRANCH  20  22
ENDBRANCH  17  20
ENDBRANCH   5  16
BRANCH   1  31
ATOM     31  C   UNL     1       1.425   3.448   0.033  0.00  0.00    +0.342 C 
ATOM     32  O   UNL     1       1.503   4.028   1.099  0.00  0.00    -0.245 OA
BRANCH  31  33
ATOM     33  O   UNL     1       1.468   4.147  -1.120  0.00  0.00    -0.461 OA
BRANCH  33  35
ATOM     34  C   UNL     1       1.638   6.204  -2.412  0.00  0.00    +0.048 C 
ATOM     35  C   UNL     1       1.608   5.588  -1.012  0.00  0.00    +0.229 C 
ENDBRANCH  33  35
ENDBRANCH  31  33
ENDBRANCH   1  31
TORSDOF 8
