REMARK  Name = ZINC19994963
REMARK  5 active torsions:
REMARK  status: ('A' for Active; 'I' for Inactive)
REMARK    1  A    between atoms: C_6  and  N_7
REMARK    2  A    between atoms: C_11  and  N_12
REMARK    3  A    between atoms: N_12  and  C_13
REMARK    4  A    between atoms: C_13  and  C_14
REMARK    5  A    between atoms: C_14  and  N_15
REMARK                            x       y       z     vdW  Elec       q    Type
REMARK                         _______ _______ _______ _____ _____    ______ ____
ROOT
ATOM      1  N   UNL     1      -1.205  -0.720  -0.004  0.00  0.00    -0.190 N 
ATOM      2  C   UNL     1      -1.171  -2.064  -0.122  0.00  0.00    +0.265 C 
ATOM      3  O   UNL     1      -0.115  -2.651  -0.264  0.00  0.00    -0.269 OA
ATOM      4  C   UNL     1      -2.446  -2.800  -0.073  0.00  0.00    +0.113 C 
ATOM      5  C   UNL     1      -2.489  -4.178  -0.186  0.00  0.00    +0.085 C 
ATOM      6  C   UNL     1      -3.674  -2.005   0.103  0.00  0.00    +0.258 C 
ATOM      7  O   UNL     1      -4.765  -2.542   0.154  0.00  0.00    -0.270 OA
ATOM      8  N   UNL     1      -3.557  -0.665   0.208  0.00  0.00    -0.235 N 
ATOM      9  C   UNL     1      -2.361  -0.061   0.160  0.00  0.00    +0.320 C 
ATOM     10  O   UNL     1      -2.323   1.149   0.266  0.00  0.00    -0.251 OA
ATOM     11  H   UNL     1      -4.355  -0.127   0.324  0.00  0.00    +0.159 HD
ENDROOT
BRANCH   1  17
ATOM     12  C   UNL     1       0.475   0.623   1.098  0.00  0.00    +0.025 A 
ATOM     13  C   UNL     1       1.658   1.334   1.052  0.00  0.00    +0.022 A 
ATOM     14  C   UNL     1       2.366   1.427  -0.133  0.00  0.00    +0.041 A 
ATOM     15  C   UNL     1       1.889   0.809  -1.276  0.00  0.00    +0.022 A 
ATOM     16  C   UNL     1       0.706   0.098  -1.236  0.00  0.00    +0.025 A 
ATOM     17  C   UNL     1      -0.005   0.002  -0.047  0.00  0.00    +0.046 A 
ATOM     18 CL   UNL     1       3.853   2.321  -0.187  0.00  0.00    -0.084 Cl
ENDBRANCH   1  17
BRANCH   5  19
ATOM     19  N   UNL     1      -3.676  -4.810  -0.275  0.00  0.00    -0.351 N 
ATOM     20  H   UNL     1      -4.496  -4.296  -0.339  0.00  0.00    +0.145 HD
BRANCH  19  21
ATOM     21  C   UNL     1      -3.728  -6.274  -0.273  0.00  0.00    +0.082 C 
BRANCH  21  22
ATOM     22  C   UNL     1      -5.183  -6.733  -0.383  0.00  0.00    -0.060 C 
BRANCH  22  23
ATOM     23  N   UNL     1      -5.235  -8.201  -0.381  0.00  0.00    +0.381 N 
ATOM     24  C   UNL     1      -4.566  -8.714  -1.582  0.00  0.00    -0.079 C 
ATOM     25  C   UNL     1      -4.546 -10.244  -1.546  0.00  0.00    -0.019 C 
ATOM     26  C   UNL     1      -5.984 -10.767  -1.498  0.00  0.00    -0.004 C 
ATOM     27  C   UNL     1      -6.696 -10.166  -0.282  0.00  0.00    -0.019 C 
ATOM     28  C   UNL     1      -6.636  -8.640  -0.365  0.00  0.00    -0.079 C 
ATOM     29  H   UNL     1      -4.765  -8.553   0.440  0.00  0.00    -0.082 HD
ENDBRANCH  22  23
ENDBRANCH  21  22
ENDBRANCH  19  21
ENDBRANCH   5  19
TORSDOF 5
