REMARK  Name = ZINC13570618
REMARK  11 active torsions:
REMARK  status: ('A' for Active; 'I' for Inactive)
REMARK    1  A    between atoms: C_1  and  C_2
REMARK    2  A    between atoms: C_2  and  O_3
REMARK    3  A    between atoms: O_3  and  C_4
REMARK    4  A    between atoms: C_7  and  C_10
REMARK    5  A    between atoms: C_10  and  C_11
REMARK    6  A    between atoms: N_13  and  C_14
REMARK    7  A    between atoms: C_14  and  C_16
REMARK    8  A    between atoms: C_14  and  C_20
REMARK    9  A    between atoms: C_16  and  C_17
REMARK   10  A    between atoms: C_17  and  S_18
REMARK   11  A    between atoms: S_18  and  C_19
REMARK                            x       y       z     vdW  Elec       q    Type
REMARK                         _______ _______ _______ _____ _____    ______ ____
ROOT
ATOM      1  C   UNL     1      -1.357  -8.358  -3.635  0.00  0.00    +0.160 C 
ENDROOT
BRANCH   1   2
ATOM      2  C   UNL     1      -1.473  -9.823  -3.304  0.00  0.00    +0.236 C 
ATOM      3  O   UNL     1      -0.559 -10.393  -2.747  0.00  0.00    -0.274 OA
ATOM      4  N   UNL     1      -2.592 -10.500  -3.627  0.00  0.00    -0.300 N 
ATOM      5  C   UNL     1      -3.660  -9.855  -4.404  0.00  0.00    +0.110 C 
ATOM      6  C   UNL     1      -3.973 -10.722  -5.627  0.00  0.00    +0.047 C 
ATOM      7  C   UNL     1      -4.297 -12.145  -5.171  0.00  0.00    +0.064 C 
ATOM      8  C   UNL     1      -3.091 -12.744  -4.447  0.00  0.00    +0.047 C 
ATOM      9  C   UNL     1      -2.766 -11.900  -3.216  0.00  0.00    +0.110 C 
ATOM     10  C   UNL     1      -4.648 -12.994  -6.364  0.00  0.00    +0.057 A 
ATOM     11  C   UNL     1      -5.693 -13.852  -6.393  0.00  0.00    +0.039 A 
ATOM     12  N   UNL     1      -5.716 -14.434  -7.591  0.00  0.00    -0.349 N 
ATOM     13  C   UNL     1      -4.724 -13.974  -8.310  0.00  0.00    +0.171 A 
ATOM     14  N   UNL     1      -4.034 -13.072  -7.574  0.00  0.00    -0.348 N 
ATOM     15  H   UNL     1      -3.251 -12.574  -7.857  0.00  0.00    +0.166 HD
ATOM     16  C   UNL     1      -6.622 -14.055  -5.221  0.00  0.00    +0.070 C 
ATOM     17  C   UNL     1      -5.942 -13.475  -3.974  0.00  0.00    +0.088 C 
ATOM     18  N   UNL     1      -5.454 -12.119  -4.261  0.00  0.00    -0.305 NA
ATOM     19  H   UNL     1      -5.233 -11.626  -3.409  0.00  0.00    +0.123 HD
ATOM     20  H   UNL     1      -6.364 -15.094  -7.884  0.00  0.00    +0.166 HD
ENDBRANCH   1   2
BRANCH   1  23
ATOM     21  C   UNL     1      -0.534  -6.396  -2.447  0.00  0.00    +0.218 C 
ATOM     22  O   UNL     1      -1.389  -5.738  -3.001  0.00  0.00    -0.275 OA
ATOM     23  N   UNL     1      -0.433  -7.717  -2.696  0.00  0.00    -0.304 N 
ATOM     24  H   UNL     1       0.251  -8.243  -2.253  0.00  0.00    +0.149 HD
BRANCH  21  25
ATOM     25  C   UNL     1       0.416  -5.736  -1.481  0.00  0.00    +0.130 C 
BRANCH  25  29
ATOM     26  C   UNL     1      -0.500  -1.572  -1.200  0.00  0.00    +0.121 A 
ATOM     27  C   UNL     1      -1.111  -2.477  -0.344  0.00  0.00    +0.046 A 
ATOM     28  C   UNL     1      -0.813  -3.823  -0.437  0.00  0.00    +0.007 A 
ATOM     29  C   UNL     1       0.093  -4.268  -1.382  0.00  0.00    -0.038 A 
ATOM     30  C   UNL     1       0.702  -3.368  -2.236  0.00  0.00    +0.007 A 
ATOM     31  C   UNL     1       0.404  -2.022  -2.151  0.00  0.00    +0.046 A 
BRANCH  26  32
ATOM     32  O   UNL     1      -0.792  -0.247  -1.111  0.00  0.00    -0.492 OA
BRANCH  32  34
ATOM     33  C   UNL     1      -1.931   1.660  -0.159  0.00  0.00    +0.048 C 
ATOM     34  C   UNL     1      -1.732   0.144  -0.107  0.00  0.00    +0.225 C 
ENDBRANCH  32  34
ENDBRANCH  26  32
ENDBRANCH  25  29
ENDBRANCH  21  25
ENDBRANCH   1  23
BRANCH   1  35
ATOM     35  C   UNL     1      -0.826  -8.197  -5.061  0.00  0.00    +0.042 C 
BRANCH  35  36
ATOM     36  C   UNL     1      -0.843  -6.718  -5.449  0.00  0.00    +0.071 C 
BRANCH  36  37
ATOM     37  S   UNL     1      -0.214  -6.528  -7.140  0.00  0.00    -0.164 S 
ATOM     38  C   UNL     1      -0.299  -4.741  -7.441  0.00  0.00    +0.084 C 
ENDBRANCH  36  37
ENDBRANCH  35  36
ENDBRANCH   1  35
TORSDOF 9
