REMARK  Name = ZINC20151266
REMARK  15 active torsions:
REMARK  status: ('A' for Active; 'I' for Inactive)
REMARK    1  A    between atoms: C_1  and  C_2
REMARK    2  A    between atoms: C_4  and  C_27
REMARK    3  A    between atoms: C_9  and  C_25
REMARK    4  A    between atoms: C_10  and  N_12
REMARK    5  A    between atoms: N_12  and  C_13
REMARK    6  A    between atoms: C_13  and  C_14
REMARK    7  A    between atoms: C_14  and  N_15
REMARK    8  A    between atoms: N_15  and  C_16
REMARK    9  A    between atoms: C_16  and  N_18
REMARK   10  A    between atoms: N_18  and  C_19
REMARK   11  A    between atoms: C_19  and  C_20
REMARK   12  A    between atoms: C_20  and  C_21
REMARK   13  A    between atoms: C_21  and  N_22
REMARK   14  A    between atoms: N_22  and  C_23
REMARK   15  A    between atoms: N_22  and  C_24
REMARK                            x       y       z     vdW  Elec       q    Type
REMARK                         _______ _______ _______ _____ _____    ______ ____
ROOT
ATOM      1  N   UNL     1       0.002  -0.004   0.002  0.00  0.00    -0.327 N 
ATOM      2  H   UNL     1      -0.943  -0.567   0.008  0.00  0.00    +0.148 HD
ENDROOT
BRANCH   1  12
ATOM      3  C   UNL     1       1.269   7.662   0.033  0.00  0.00    +0.044 C 
ATOM      4  C   UNL     1       1.214   6.156   0.025  0.00  0.00    -0.050 A 
ATOM      5  C   UNL     1       2.399   5.424   0.010  0.00  0.00    +0.008 A 
ATOM      6  C   UNL     1       2.384   4.062   0.002  0.00  0.00    -0.024 A 
ATOM      7  C   UNL     1       1.157   3.377   0.009  0.00  0.00    +0.076 A 
ATOM      8  C   UNL     1      -0.048   4.123   0.025  0.00  0.00    +0.002 A 
ATOM      9  C   UNL     1       0.005   5.528   0.033  0.00  0.00    +0.013 A 
ATOM     10  C   UNL     1      -1.279   3.444   0.032  0.00  0.00    +0.032 A 
ATOM     11  C   UNL     1      -1.260   2.055   0.019  0.00  0.00    +0.092 A 
ATOM     12  C   UNL     1      -0.017   1.379   0.010  0.00  0.00    +0.137 A 
ATOM     13  N   UNL     1       1.121   2.039   0.002  0.00  0.00    -0.231 NA
ATOM     14  C   UNL     1       3.679   3.292  -0.015  0.00  0.00    +0.046 C 
BRANCH  11  15
ATOM     15  C   UNL     1      -2.485   1.315   0.021  0.00  0.00    +0.103 C 
ATOM     16  N   UNL     1      -3.458   0.728   0.022  0.00  0.00    -0.191 NA
ENDBRANCH  11  15
ENDBRANCH   1  12
BRANCH   1  17
ATOM     17  C   UNL     1       1.281  -0.719  -0.014  0.00  0.00    +0.121 C 
BRANCH  17  18
ATOM     18  C   UNL     1       1.021  -2.227  -0.020  0.00  0.00    +0.122 C 
BRANCH  18  19
ATOM     19  N   UNL     1       2.300  -2.942  -0.036  0.00  0.00    -0.325 N 
ATOM     20  H   UNL     1       3.245  -2.379  -0.042  0.00  0.00    +0.148 HD
BRANCH  19  21
ATOM     21  C   UNL     1       2.318  -4.290  -0.043  0.00  0.00    +0.130 C 
ATOM     22  S   UNL     1       0.847  -5.166  -0.034  0.00  0.00    -0.019 S 
BRANCH  21  23
ATOM     23  N   UNL     1       3.494  -4.948  -0.058  0.00  0.00    -0.327 N 
ATOM     24  H   UNL     1       4.439  -4.385  -0.064  0.00  0.00    +0.148 HD
BRANCH  23  25
ATOM     25  C   UNL     1       3.514  -6.413  -0.066  0.00  0.00    +0.101 C 
BRANCH  25  26
ATOM     26  C   UNL     1       4.963  -6.903  -0.082  0.00  0.00    +0.000 C 
BRANCH  26  27
ATOM     27  C   UNL     1       4.984  -8.433  -0.091  0.00  0.00    -0.078 C 
BRANCH  27  28
ATOM     28  N   UNL     1       6.376  -8.903  -0.107  0.00  0.00    +0.376 N 
ATOM     29  C   UNL     1       6.444 -10.353   0.123  0.00  0.00    -0.097 C 
ATOM     30  C   UNL     1       7.041  -8.538  -1.364  0.00  0.00    -0.097 C 
ATOM     31  H   UNL     1       6.910  -8.405   0.716  0.00  0.00    -0.083 HD
ENDBRANCH  27  28
ENDBRANCH  26  27
ENDBRANCH  25  26
ENDBRANCH  23  25
ENDBRANCH  21  23
ENDBRANCH  19  21
ENDBRANCH  18  19
ENDBRANCH  17  18
ENDBRANCH   1  17
TORSDOF 11
