REMARK  Name = ZINC63941325
REMARK  11 active torsions:
REMARK  status: ('A' for Active; 'I' for Inactive)
REMARK    1  A    between atoms: C_1  and  C_2
REMARK    2  A    between atoms: C_2  and  C_3
REMARK    3  A    between atoms: C_3  and  C_4
REMARK    4  A    between atoms: C_4  and  C_5
REMARK    5  A    between atoms: C_9  and  N_12
REMARK    6  A    between atoms: C_13  and  C_15
REMARK    7  A    between atoms: N_20  and  C_22
REMARK    8  A    between atoms: C_22  and  C_23
REMARK    9  A    between atoms: C_23  and  C_24
REMARK   10  A    between atoms: C_27  and  O_33
REMARK   11  A    between atoms: O_33  and  C_34
REMARK                            x       y       z     vdW  Elec       q    Type
REMARK                         _______ _______ _______ _____ _____    ______ ____
ROOT
ATOM      1  C   UNL     1      -0.880  -6.224   7.056  0.00  0.00    +0.101 C 
ATOM      2  C   UNL     1      -1.709  -5.290   7.968  0.00  0.00    +0.110 C 
ATOM      3  C   UNL     1      -2.100  -6.166   9.138  0.00  0.00    +0.216 C 
ATOM      4  O   UNL     1      -2.977  -5.910   9.935  0.00  0.00    -0.276 OA
ATOM      5  N   UNL     1      -1.333  -7.270   9.165  0.00  0.00    -0.300 N 
ATOM      6  C   UNL     1      -0.361  -7.272   8.065  0.00  0.00    +0.121 C 
ENDROOT
BRANCH   1   8
ATOM      7  N   UNL     1       0.014  -4.475   5.552  0.00  0.00    -0.290 N 
ATOM      8  C   UNL     1       0.264  -5.478   6.418  0.00  0.00    +0.220 C 
ATOM      9  O   UNL     1       1.408  -5.779   6.683  0.00  0.00    -0.275 OA
ATOM     10  H   UNL     1      -0.901  -4.234   5.340  0.00  0.00    +0.151 HD
BRANCH   7  14
ATOM     11  C   UNL     1       1.503  -2.548   2.473  0.00  0.00    +0.130 C 
ATOM     12  N   UNL     1       1.558  -4.042   2.507  0.00  0.00    -0.241 NA
ATOM     13  N   UNL     1       1.744  -4.553   3.849  0.00  0.00    -0.227 NA
ATOM     14  C   UNL     1       1.126  -3.750   4.932  0.00  0.00    +0.216 C 
ATOM     15  S   UNL     1       0.518  -2.270   4.013  0.00  0.00    -0.102 S 
ATOM     16  H   UNL     1       2.271  -4.392   1.885  0.00  0.00    +0.142 HD
ATOM     17  H   UNL     1       2.720  -4.725   4.039  0.00  0.00    +0.143 HD
BRANCH  11  18
ATOM     18  C   UNL     1       0.763  -2.041   1.233  0.00  0.00    +0.031 C 
BRANCH  18  19
ATOM     19  C   UNL     1       0.742  -0.511   1.242  0.00  0.00    +0.002 C 
BRANCH  19  21
ATOM     20  C   UNL     1      -0.019   1.526   0.010  0.00  0.00    +0.004 C 
ATOM     21  C   UNL     1       0.002  -0.004   0.002  0.00  0.00    -0.003 C 
ENDBRANCH  19  21
ENDBRANCH  18  19
ENDBRANCH  11  18
ENDBRANCH   7  14
ENDBRANCH   1   8
BRANCH   5  22
ATOM     22  C   UNL     1      -1.452  -8.335  10.165  0.00  0.00    +0.112 C 
BRANCH  22  23
ATOM     23  C   UNL     1      -2.446  -9.388   9.671  0.00  0.00    +0.052 C 
BRANCH  23  24
ATOM     24  C   UNL     1      -2.569 -10.483  10.699  0.00  0.00    -0.040 C 
ATOM     25  C   UNL     1      -3.505 -10.586  11.670  0.00  0.00    +0.002 A 
ATOM     26  C   UNL     1      -4.644  -9.742  12.047  0.00  0.00    +0.055 A 
ATOM     27  C   UNL     1      -5.426 -10.106  13.091  0.00  0.00    +0.121 A 
ATOM     28  C   UNL     1      -5.187 -11.274  13.837  0.00  0.00    +0.047 A 
ATOM     29  C   UNL     1      -4.164 -12.113  13.567  0.00  0.00    +0.029 A 
ATOM     30  C   UNL     1      -3.254 -11.816  12.456  0.00  0.00    +0.043 A 
ATOM     31  N   UNL     1      -2.206 -12.448  11.990  0.00  0.00    -0.380 N 
ATOM     32  C   UNL     1      -1.675 -11.694  10.849  0.00  0.00    +0.144 C 
ATOM     33  H   UNL     1      -1.844 -13.278  12.338  0.00  0.00    +0.160 HD
BRANCH  27  34
ATOM     34  O   UNL     1      -6.478  -9.315  13.430  0.00  0.00    -0.495 OA
ATOM     35  C   UNL     1      -7.276  -9.736  14.538  0.00  0.00    +0.277 C 
ENDBRANCH  27  34
ENDBRANCH  23  24
ENDBRANCH  22  23
ENDBRANCH   5  22
TORSDOF 9
