REMARK  Name = ZINC21803343
REMARK  8 active torsions:
REMARK  status: ('A' for Active; 'I' for Inactive)
REMARK    1  A    between atoms: C_1  and  O_2
REMARK    2  A    between atoms: O_2  and  C_3
REMARK    3  A    between atoms: C_6  and  N_21
REMARK    4  A    between atoms: C_8  and  S_9
REMARK    5  A    between atoms: S_9  and  N_12
REMARK    6  A    between atoms: N_12  and  C_13
REMARK    7  A    between atoms: C_16  and  S_19
REMARK    8  A    between atoms: S_19  and  C_20
REMARK                            x       y       z     vdW  Elec       q    Type
REMARK                         _______ _______ _______ _____ _____    ______ ____
ROOT
ATOM      1  S   UNL     1      -2.562   0.144   0.281  0.00  0.00    +0.076 S 
ATOM      2  O   UNL     1      -2.519   1.037  -0.823  0.00  0.00    -0.150 OA
ATOM      3  O   UNL     1      -3.592  -0.823   0.439  0.00  0.00    -0.150 OA
ENDROOT
BRANCH   1   9
ATOM      4  C   UNL     1       0.162  -0.053   0.178  0.00  0.00    +0.147 A 
ATOM      5  C   UNL     1       1.363  -0.748   0.176  0.00  0.00    +0.049 A 
ATOM      6  C   UNL     1       1.363  -2.126   0.262  0.00  0.00    +0.026 A 
ATOM      7  C   UNL     1       0.162  -2.816   0.350  0.00  0.00    +0.027 A 
ATOM      8  C   UNL     1      -1.040  -2.120   0.352  0.00  0.00    +0.055 A 
ATOM      9  C   UNL     1      -1.038  -0.741   0.271  0.00  0.00    +0.152 A 
BRANCH   7  10
ATOM     10  N   UNL     1       0.161  -4.213   0.437  0.00  0.00    -0.358 N 
ATOM     11  H   UNL     1      -0.791  -4.759   0.507  0.00  0.00    +0.142 HD
ATOM     12  H   UNL     1       1.113  -4.764   0.436  0.00  0.00    +0.142 HD
ENDBRANCH   7  10
BRANCH   4  14
ATOM     13  C   UNL     1       1.434   1.956   0.125  0.00  0.00    +0.277 C 
ATOM     14  O   UNL     1       0.163   1.305   0.094  0.00  0.00    -0.493 OA
ENDBRANCH   4  14
ENDBRANCH   1   9
BRANCH   1  15
ATOM     15  N   UNL     1      -2.577   1.079   1.647  0.00  0.00    -0.216 N 
ATOM     16  H   UNL     1      -2.599   2.176   1.562  0.00  0.00    +0.174 HD
BRANCH  15  17
ATOM     17  C   UNL     1      -2.561   0.475   2.909  0.00  0.00    +0.048 A 
ATOM     18  C   UNL     1      -3.405  -0.596   3.177  0.00  0.00    +0.025 A 
ATOM     19  C   UNL     1      -3.386  -1.195   4.421  0.00  0.00    +0.016 A 
ATOM     20  C   UNL     1      -2.530  -0.721   5.407  0.00  0.00    +0.008 A 
ATOM     21  C   UNL     1      -1.690   0.353   5.141  0.00  0.00    +0.016 A 
ATOM     22  C   UNL     1      -1.706   0.949   3.896  0.00  0.00    +0.025 A 
BRANCH  20  23
ATOM     23  S   UNL     1      -2.510  -1.482   6.996  0.00  0.00    -0.129 S 
ATOM     24  C   UNL     1      -3.746  -2.804   6.865  0.00  0.00    +0.090 C 
ENDBRANCH  20  23
ENDBRANCH  15  17
ENDBRANCH   1  15
TORSDOF 6
