REMARK  Name = ZINC11041566
REMARK  7 active torsions:
REMARK  status: ('A' for Active; 'I' for Inactive)
REMARK    1  A    between atoms: C_1  and  C_2
REMARK    2  A    between atoms: C_2  and  C_4
REMARK    3  A    between atoms: C_2  and  N_43
REMARK    4  A    between atoms: N_6  and  C_7
REMARK    5  A    between atoms: C_14  and  C_16
REMARK    6  A    between atoms: C_14  and  C_23
REMARK    7  A    between atoms: C_14  and  N_43
REMARK                            x       y       z     vdW  Elec       q    Type
REMARK                         _______ _______ _______ _____ _____    ______ ____
ROOT
ATOM      1  N   UNL     1      -0.709   1.971   1.226  0.00  0.00    +0.394 N 
ATOM      2  H   UNL     1      -0.035   2.010   2.000  0.00  0.00    -0.083 HD
ATOM      3  H   UNL     1      -1.464   1.317   1.463  0.00  0.00    -0.083 HD
ENDROOT
BRANCH   1   5
ATOM      4  C   UNL     1       1.409   2.039  -0.012  0.00  0.00    -0.004 C 
ATOM      5  C   UNL     1      -0.024   1.503   0.007  0.00  0.00    +0.014 C 
BRANCH   5   6
ATOM      6  C   UNL     1       0.004  -0.004   0.003  0.00  0.00    +0.203 C 
ATOM      7  O   UNL     1      -0.497  -0.622   0.918  0.00  0.00    -0.277 OA
ATOM      8  N   UNL     1       0.585  -0.664  -1.018  0.00  0.00    -0.287 N 
ATOM      9  H   UNL     1       0.926  -0.173  -1.782  0.00  0.00    +0.155 HD
BRANCH   8  10
ATOM     10  C   UNL     1       0.697  -2.059  -0.976  0.00  0.00    +0.033 A 
ATOM     11  C   UNL     1       1.808  -2.684  -1.526  0.00  0.00    +0.025 A 
ATOM     12  C   UNL     1       1.919  -4.060  -1.478  0.00  0.00    +0.022 A 
ATOM     13  C   UNL     1       0.918  -4.816  -0.893  0.00  0.00    +0.041 A 
ATOM     14  C   UNL     1      -0.193  -4.196  -0.349  0.00  0.00    +0.022 A 
ATOM     15  C   UNL     1      -0.305  -2.820  -0.389  0.00  0.00    +0.025 A 
ATOM     16 CL   UNL     1       1.057  -6.546  -0.841  0.00  0.00    -0.084 Cl
ENDBRANCH   8  10
ENDBRANCH   5   6
ENDBRANCH   1   5
BRANCH   1  17
ATOM     17  C   UNL     1      -1.279   3.314   1.010  0.00  0.00    -0.002 C 
BRANCH  17  18
ATOM     18  C   UNL     1      -2.436   3.519   1.953  0.00  0.00    -0.056 A 
ATOM     19  C   UNL     1      -2.359   3.052   3.252  0.00  0.00    +0.005 A 
ATOM     20  C   UNL     1      -3.418   3.244   4.120  0.00  0.00    +0.038 A 
ATOM     21  C   UNL     1      -4.561   3.893   3.684  0.00  0.00    +0.123 A 
ATOM     22  C   UNL     1      -4.639   4.354   2.381  0.00  0.00    +0.038 A 
ATOM     23  C   UNL     1      -3.577   4.167   1.517  0.00  0.00    +0.005 A 
ATOM     24  F   UNL     1      -5.598   4.075   4.529  0.00  0.00    -0.205 F 
ENDBRANCH  17  18
BRANCH  17  25
ATOM     25  C   UNL     1      -0.224   4.357   1.276  0.00  0.00    -0.020 A 
ATOM     26  C   UNL     1       0.030   5.505   0.602  0.00  0.00    +0.010 A 
ATOM     27  C   UNL     1       1.059   6.322   1.033  0.00  0.00    +0.008 A 
ATOM     28  C   UNL     1       1.790   5.945   2.111  0.00  0.00    +0.045 A 
ATOM     29  S   UNL     1       1.019   4.398   2.556  0.00  0.00    -0.103 S 
ENDBRANCH  17  25
ENDBRANCH   1  17
TORSDOF 6
