REMARK  Name = ZINC42453261
REMARK  10 active torsions:
REMARK  status: ('A' for Active; 'I' for Inactive)
REMARK    1  A    between atoms: C_1  and  C_2
REMARK    2  A    between atoms: C_2  and  N_3
REMARK    3  A    between atoms: N_3  and  C_4
REMARK    4  A    between atoms: N_3  and  C_10
REMARK    5  A    between atoms: C_4  and  C_5
REMARK    6  A    between atoms: C_5  and  C_6
REMARK    7  A    between atoms: N_7  and  O_8
REMARK    8  A    between atoms: C_10  and  C_11
REMARK    9  A    between atoms: C_16  and  O_17
REMARK   10  A    between atoms: O_17  and  C_18
REMARK                            x       y       z     vdW  Elec       q    Type
REMARK                         _______ _______ _______ _____ _____    ______ ____
ROOT
ATOM      1  N   UNL     1       0.580  -0.468  -1.264  0.00  0.00    +0.383 N 
ATOM      2  H   UNL     1       0.120   0.055  -1.994  0.00  0.00    -0.081 HD
ENDROOT
BRANCH   1   4
ATOM      3  C   UNL     1       0.109   1.433   0.205  0.00  0.00    -0.017 C 
ATOM      4  C   UNL     1       0.021  -0.085   0.039  0.00  0.00    -0.082 C 
ENDBRANCH   1   4
BRANCH   1   5
ATOM      5  C   UNL     1       2.019  -0.176  -1.285  0.00  0.00    -0.071 C 
BRANCH   5   6
ATOM      6  C   UNL     1       2.573  -0.440  -2.687  0.00  0.00    +0.056 C 
BRANCH   6   7
ATOM      7  C   UNL     1       4.017  -0.013  -2.744  0.00  0.00    +0.130 C 
ATOM      8  N   UNL     1       4.586   0.486  -1.697  0.00  0.00    -0.077 NA
ATOM      9  N   UNL     1       4.731  -0.156  -3.914  0.00  0.00    -0.344 N 
ATOM     10  H   UNL     1       4.304  -0.530  -4.700  0.00  0.00    +0.143 HD
ATOM     11  H   UNL     1       5.661   0.119  -3.951  0.00  0.00    +0.143 HD
BRANCH   8  12
ATOM     12  O   UNL     1       5.943   0.886  -1.752  0.00  0.00    -0.408 OA
ATOM     13  H   UNL     1       6.280   1.248  -0.920  0.00  0.00    +0.328 HD
ENDBRANCH   8  12
ENDBRANCH   6   7
ENDBRANCH   5   6
ENDBRANCH   1   5
BRANCH   1  14
ATOM     14  C   UNL     1       0.369  -1.905  -1.484  0.00  0.00    -0.039 C 
BRANCH  14  15
ATOM     15  C   UNL     1      -1.108  -2.187  -1.585  0.00  0.00    -0.021 A 
ATOM     16  C   UNL     1      -1.794  -2.683  -0.493  0.00  0.00    +0.020 A 
ATOM     17  C   UNL     1      -3.150  -2.941  -0.586  0.00  0.00    +0.018 A 
ATOM     18  C   UNL     1      -3.822  -2.703  -1.772  0.00  0.00    +0.019 A 
ATOM     19  C   UNL     1      -3.140  -2.206  -2.865  0.00  0.00    +0.047 A 
ATOM     20  C   UNL     1      -1.782  -1.942  -2.773  0.00  0.00    +0.121 A 
ATOM     21 BR   UNL     1      -4.085  -3.622   0.910  0.00  0.00    -0.050 Br
BRANCH  20  22
ATOM     22  O   UNL     1      -1.110  -1.448  -3.847  0.00  0.00    -0.495 OA
ATOM     23  C   UNL     1      -1.867  -1.220  -5.037  0.00  0.00    +0.277 C 
ENDBRANCH  20  22
ENDBRANCH  14  15
ENDBRANCH   1  14
TORSDOF 8
