REMARK  Name = ZINC09541477
REMARK  10 active torsions:
REMARK  status: ('A' for Active; 'I' for Inactive)
REMARK    1  A    between atoms: C_1  and  C_2
REMARK    2  A    between atoms: C_2  and  O_3
REMARK    3  A    between atoms: O_3  and  C_4
REMARK    4  A    between atoms: C_7  and  C_10
REMARK    5  A    between atoms: C_12  and  C_27
REMARK    6  A    between atoms: C_14  and  C_17
REMARK    7  A    between atoms: C_21  and  O_24
REMARK    8  A    between atoms: C_22  and  O_23
REMARK    9  A    between atoms: O_24  and  C_25
REMARK   10  A    between atoms: C_25  and  C_26
REMARK                            x       y       z     vdW  Elec       q    Type
REMARK                         _______ _______ _______ _____ _____    ______ ____
ROOT
ATOM      1  C   UNL     1       1.130   7.474   1.528  0.00  0.00    +0.040 C 
ATOM      2  N   UNL     1       1.119   6.497   0.701  0.00  0.00    -0.299 NA
ATOM      3  C   UNL     1      -0.079   6.003   0.034  0.00  0.00    +0.081 C 
ATOM      4  C   UNL     1      -1.231   7.926   0.926  0.00  0.00    -0.028 C 
ATOM      5  C   UNL     1      -0.108   8.230   1.922  0.00  0.00    +0.044 C 
ATOM      6  N   UNL     1      -1.290   6.464   0.730  0.00  0.00    +0.401 N 
ATOM      7  H   UNL     1      -1.355   6.000   1.644  0.00  0.00    -0.081 HD
ATOM      8  H   UNL     1      -2.117   6.229   0.167  0.00  0.00    -0.081 HD
ENDROOT
BRANCH   3   9
ATOM      9  C   UNL     1      -0.059   4.497   0.026  0.00  0.00    -0.040 A 
ATOM     10  C   UNL     1       1.148   3.822   0.012  0.00  0.00    +0.005 A 
ATOM     11  C   UNL     1       1.167   2.440   0.004  0.00  0.00    +0.020 A 
ATOM     12  C   UNL     1      -0.021   1.732   0.012  0.00  0.00    +0.041 A 
ATOM     13  C   UNL     1      -1.229   2.407   0.021  0.00  0.00    +0.020 A 
ATOM     14  C   UNL     1      -1.247   3.789   0.034  0.00  0.00    +0.005 A 
ATOM     15 CL   UNL     1       0.002  -0.004   0.002  0.00  0.00    -0.084 Cl
ENDBRANCH   3   9
BRANCH   1  19
ATOM     16  C   UNL     1       4.838   8.633   3.239  0.00  0.00    +0.121 A 
ATOM     17  C   UNL     1       4.791   7.576   2.338  0.00  0.00    +0.046 A 
ATOM     18  C   UNL     1       3.590   7.197   1.781  0.00  0.00    +0.013 A 
ATOM     19  C   UNL     1       2.418   7.877   2.123  0.00  0.00    -0.004 A 
ATOM     20  C   UNL     1       2.471   8.942   3.025  0.00  0.00    +0.013 A 
ATOM     21  C   UNL     1       3.675   9.312   3.582  0.00  0.00    +0.046 A 
BRANCH  16  22
ATOM     22  O   UNL     1       6.024   9.004   3.786  0.00  0.00    -0.492 OA
BRANCH  22  24
ATOM     23  C   UNL     1       7.419  10.368   5.213  0.00  0.00    +0.048 C 
ATOM     24  C   UNL     1       6.001  10.098   4.705  0.00  0.00    +0.225 C 
ENDBRANCH  22  24
ENDBRANCH  16  22
ENDBRANCH   1  19
BRANCH   4  25
ATOM     25  C   UNL     1      -2.546   8.414   1.477  0.00  0.00    -0.016 A 
ATOM     26  C   UNL     1      -3.376   7.544   2.160  0.00  0.00    +0.006 A 
ATOM     27  C   UNL     1      -4.579   7.990   2.672  0.00  0.00    +0.004 A 
ATOM     28  C   UNL     1      -4.965   9.306   2.493  0.00  0.00    +0.049 A 
ATOM     29  C   UNL     1      -4.141  10.182   1.805  0.00  0.00    +0.162 A 
ATOM     30  C   UNL     1      -2.926   9.734   1.294  0.00  0.00    +0.160 A 
BRANCH  30  31
ATOM     31  O   UNL     1      -2.114  10.589   0.618  0.00  0.00    -0.503 OA
ATOM     32  H   UNL     1      -2.278  10.617  -0.334  0.00  0.00    +0.292 HD
ENDBRANCH  30  31
BRANCH  29  33
ATOM     33  O   UNL     1      -4.519  11.476   1.628  0.00  0.00    -0.489 OA
BRANCH  33  34
ATOM     34  C   UNL     1      -5.778  11.866   2.179  0.00  0.00    +0.226 C 
ATOM     35  C   UNL     1      -6.029  13.345   1.883  0.00  0.00    +0.048 C 
ENDBRANCH  33  34
ENDBRANCH  29  33
ENDBRANCH   4  25
TORSDOF 8
