REMARK  Name = ZINC66115394
REMARK  11 active torsions:
REMARK  status: ('A' for Active; 'I' for Inactive)
REMARK    1  A    between atoms: C_1  and  C_2
REMARK    2  A    between atoms: C_2  and  O_3
REMARK    3  A    between atoms: O_3  and  C_4
REMARK    4  A    between atoms: C_4  and  C_5
REMARK    5  A    between atoms: C_5  and  O_6
REMARK    6  A    between atoms: O_6  and  C_7
REMARK    7  A    between atoms: C_10  and  C_13
REMARK    8  A    between atoms: C_13  and  N_14
REMARK    9  A    between atoms: C_20  and  C_22
REMARK   10  A    between atoms: C_22  and  C_23
REMARK   11  A    between atoms: N_25  and  N_26
REMARK                            x       y       z     vdW  Elec       q    Type
REMARK                         _______ _______ _______ _____ _____    ______ ____
ROOT
ATOM      1  N   UNL     1      -9.689  -2.324  -1.409  0.00  0.00    +0.391 N 
ATOM      2  C   UNL     1      -9.469  -2.333   0.046  0.00  0.00    -0.058 C 
ATOM      3  C   UNL     1      -9.810  -0.950   0.604  0.00  0.00    +0.085 C 
ATOM      4  N   UNL     1     -11.133  -0.539   0.140  0.00  0.00    -0.318 N 
ATOM      5  C   UNL     1     -11.742  -1.115  -0.903  0.00  0.00    +0.200 C 
ATOM      6  O   UNL     1     -12.830  -0.701  -1.243  0.00  0.00    -0.278 OA
ATOM      7  C   UNL     1     -11.132  -2.254  -1.671  0.00  0.00    +0.028 C 
ATOM      8  H   UNL     1     -11.588   0.180   0.606  0.00  0.00    +0.149 HD
ATOM      9  H   UNL     1      -9.232  -1.523  -1.817  0.00  0.00    -0.080 HD
ENDROOT
BRANCH   1  10
ATOM     10  C   UNL     1      -9.142  -3.554  -1.996  0.00  0.00    -0.042 C 
BRANCH  10  14
ATOM     11  C   UNL     1      -4.887  -3.555  -1.597  0.00  0.00    +0.121 A 
ATOM     12  C   UNL     1      -5.678  -4.106  -0.600  0.00  0.00    +0.046 A 
ATOM     13  C   UNL     1      -7.054  -4.105  -0.732  0.00  0.00    +0.005 A 
ATOM     14  C   UNL     1      -7.641  -3.554  -1.856  0.00  0.00    -0.064 A 
ATOM     15  C   UNL     1      -6.855  -3.005  -2.851  0.00  0.00    +0.005 A 
ATOM     16  C   UNL     1      -5.479  -2.998  -2.721  0.00  0.00    +0.046 A 
BRANCH  11  17
ATOM     17  O   UNL     1      -3.534  -3.555  -1.470  0.00  0.00    -0.490 OA
BRANCH  17  18
ATOM     18  C   UNL     1      -2.994  -4.145  -0.286  0.00  0.00    +0.257 C 
BRANCH  18  19
ATOM     19  C   UNL     1      -1.467  -4.052  -0.321  0.00  0.00    +0.200 C 
BRANCH  19  20
ATOM     20  O   UNL     1      -1.072  -2.679  -0.274  0.00  0.00    -0.377 OA
BRANCH  20  22
ATOM     21  C   UNL     1       0.648  -0.982  -0.246  0.00  0.00    +0.034 C 
ATOM     22  C   UNL     1       0.343  -2.480  -0.301  0.00  0.00    +0.156 C 
ENDBRANCH  20  22
ENDBRANCH  19  20
ENDBRANCH  18  19
ENDBRANCH  17  18
ENDBRANCH  11  17
ENDBRANCH  10  14
ENDBRANCH   1  10
BRANCH   7  23
ATOM     23  C   UNL     1     -11.366  -2.039  -3.167  0.00  0.00    +0.091 C 
BRANCH  23  24
ATOM     24  C   UNL     1     -10.818  -0.695  -3.574  0.00  0.00    +0.225 C 
ATOM     25  O   UNL     1     -10.268   0.009  -2.754  0.00  0.00    -0.275 OA
ATOM     26  N   UNL     1     -10.938  -0.276  -4.849  0.00  0.00    -0.254 N 
ATOM     27  H   UNL     1     -11.378  -0.840  -5.505  0.00  0.00    +0.169 HD
BRANCH  26  28
ATOM     28  N   UNL     1     -10.442   0.942  -5.218  0.00  0.00    -0.254 NA
ATOM     29  H   UNL     1      -9.460   1.014  -4.997  0.00  0.00    +0.140 HD
ATOM     30  H   UNL     1     -10.605   1.117  -6.198  0.00  0.00    +0.140 HD
ENDBRANCH  26  28
ENDBRANCH  23  24
ENDBRANCH   7  23
TORSDOF 10
