REMARK  Name = ZINC64623127
REMARK  8 active torsions:
REMARK  status: ('A' for Active; 'I' for Inactive)
REMARK    1  A    between atoms: C_1  and  O_2
REMARK    2  A    between atoms: O_2  and  C_3
REMARK    3  A    between atoms: C_6  and  C_9
REMARK    4  A    between atoms: N_27  and  C_28
REMARK    5  A    between atoms: C_31  and  O_36
REMARK    6  A    between atoms: C_33  and  O_34
REMARK    7  A    between atoms: O_34  and  C_35
REMARK    8  A    between atoms: O_36  and  C_37
REMARK                            x       y       z     vdW  Elec       q    Type
REMARK                         _______ _______ _______ _____ _____    ______ ____
ROOT
ATOM      1  C   UNL     1       3.535  -2.323   4.277  0.00  0.00    +0.134 C 
ATOM      2  C   UNL     1       2.361  -2.314   5.261  0.00  0.00    +0.131 C 
ATOM      3  C   UNL     1       2.630  -3.425   6.268  0.00  0.00    -0.035 C 
ATOM      4  C   UNL     1       2.609  -2.857   7.468  0.00  0.00    +0.001 A 
ATOM      5  C   UNL     1       2.734  -3.422   8.821  0.00  0.00    +0.030 A 
ATOM      6  C   UNL     1       2.679  -2.534   9.849  0.00  0.00    +0.042 A 
ATOM      7  C   UNL     1       2.513  -1.156   9.668  0.00  0.00    +0.022 A 
ATOM      8  C   UNL     1       2.384  -0.552   8.460  0.00  0.00    +0.027 A 
ATOM      9  C   UNL     1       2.424  -1.383   7.302  0.00  0.00    +0.043 A 
ATOM     10  N   UNL     1       2.300  -1.067   6.025  0.00  0.00    -0.375 N 
ATOM     11 CL   UNL     1       2.821  -3.139  11.470  0.00  0.00    -0.084 Cl
ATOM     12  C   UNL     1       2.929  -4.844   5.849  0.00  0.00    +0.052 C 
ATOM     13  C   UNL     1       4.051  -4.768   4.798  0.00  0.00    +0.114 C 
ATOM     14  N   UNL     1       3.742  -3.709   3.830  0.00  0.00    -0.276 N 
ATOM     15  C   UNL     1       3.644  -4.011   2.520  0.00  0.00    +0.307 C 
ATOM     16  O   UNL     1       3.526  -3.121   1.699  0.00  0.00    -0.252 OA
ATOM     17  N   UNL     1       3.677  -5.297   2.120  0.00  0.00    -0.266 N 
ATOM     18  H   UNL     1       3.688  -6.010   2.778  0.00  0.00    +0.156 HD
ATOM     19  H   UNL     1       2.195  -0.178   5.652  0.00  0.00    +0.160 HD
ENDROOT
BRANCH   1  23
ATOM     20  C   UNL     1       2.625   0.157   0.917  0.00  0.00    +0.120 A 
ATOM     21  C   UNL     1       3.884   0.210   1.499  0.00  0.00    +0.046 A 
ATOM     22  C   UNL     1       4.175  -0.593   2.585  0.00  0.00    +0.009 A 
ATOM     23  C   UNL     1       3.215  -1.448   3.092  0.00  0.00    -0.024 A 
ATOM     24  C   UNL     1       1.960  -1.503   2.514  0.00  0.00    +0.009 A 
ATOM     25  C   UNL     1       1.661  -0.698   1.431  0.00  0.00    +0.046 A 
BRANCH  20  27
ATOM     26  C   UNL     1       3.377   1.801  -0.627  0.00  0.00    +0.277 C 
ATOM     27  O   UNL     1       2.336   0.946  -0.151  0.00  0.00    -0.495 OA
ENDBRANCH  20  27
ENDBRANCH   1  23
BRANCH  17  28
ATOM     28  C   UNL     1       3.694  -5.606   0.751  0.00  0.00    +0.077 A 
ATOM     29  C   UNL     1       3.100  -4.748  -0.162  0.00  0.00    +0.030 A 
ATOM     30  C   UNL     1       3.116  -5.052  -1.510  0.00  0.00    +0.047 A 
ATOM     31  C   UNL     1       3.728  -6.216  -1.953  0.00  0.00    +0.124 A 
ATOM     32  C   UNL     1       4.323  -7.077  -1.044  0.00  0.00    +0.093 A 
ATOM     33  C   UNL     1       4.314  -6.772   0.307  0.00  0.00    +0.145 A 
BRANCH  33  34
ATOM     34  O   UNL     1       4.902  -7.612   1.200  0.00  0.00    -0.493 OA
ATOM     35  C   UNL     1       5.518  -8.789   0.673  0.00  0.00    +0.277 C 
ENDBRANCH  33  34
BRANCH  31  36
ATOM     36  O   UNL     1       3.742  -6.513  -3.280  0.00  0.00    -0.495 OA
ATOM     37  C   UNL     1       3.109  -5.582  -4.160  0.00  0.00    +0.277 C 
ENDBRANCH  31  36
ENDBRANCH  17  28
TORSDOF 5
