REMARK  Name = ZINC62848529
REMARK  7 active torsions:
REMARK  status: ('A' for Active; 'I' for Inactive)
REMARK    1  A    between atoms: C_1  and  C_2
REMARK    2  A    between atoms: C_2  and  C_3
REMARK    3  A    between atoms: C_3  and  C_4
REMARK    4  A    between atoms: C_4  and  C_10
REMARK    5  A    between atoms: N_12  and  C_13
REMARK    6  A    between atoms: C_13  and  C_15
REMARK    7  A    between atoms: C_13  and  C_16
REMARK                            x       y       z     vdW  Elec       q    Type
REMARK                         _______ _______ _______ _____ _____    ______ ____
ROOT
ATOM      1  C   UNL     1       1.389  -2.627  -0.175  0.00  0.00    +0.220 C 
ATOM      2  O   UNL     1       2.433  -3.234  -0.287  0.00  0.00    -0.275 OA
ATOM      3  N   UNL     1       0.809  -2.499   1.035  0.00  0.00    -0.308 N 
ATOM      4  H   UNL     1       0.011  -1.958   1.136  0.00  0.00    +0.149 HD
ENDROOT
BRANCH   1   5
ATOM      5  C   UNL     1       0.740  -2.014  -1.390  0.00  0.00    +0.044 C 
ATOM      6  C   UNL     1      -0.714  -2.485  -1.488  0.00  0.00    -0.003 C 
ATOM      7  C   UNL     1      -0.741  -4.002  -1.681  0.00  0.00    -0.082 C 
ATOM      8  N   UNL     1      -0.027  -4.355  -2.914  0.00  0.00    +0.379 N 
ATOM      9  C   UNL     1       1.385  -3.971  -2.799  0.00  0.00    -0.082 C 
ATOM     10  C   UNL     1       1.494  -2.452  -2.649  0.00  0.00    -0.003 C 
ATOM     11  H   UNL     1      -0.093  -5.350  -3.067  0.00  0.00    -0.086 HD
ATOM     12  H   UNL     1      -0.445  -3.868  -3.694  0.00  0.00    -0.086 HD
BRANCH   5  13
ATOM     13  C   UNL     1       0.778  -0.489  -1.275  0.00  0.00    +0.016 C 
BRANCH  13  15
ATOM     14  C   UNL     1       2.270   1.514  -1.227  0.00  0.00    +0.004 C 
ATOM     15  C   UNL     1       2.232  -0.015  -1.257  0.00  0.00    -0.002 C 
ENDBRANCH  13  15
ENDBRANCH   5  13
ENDBRANCH   1   5
BRANCH   3  16
ATOM     16  C   UNL     1       1.385  -3.179   2.198  0.00  0.00    +0.101 C 
ATOM     17  C   UNL     1       0.860  -4.615   2.261  0.00  0.00    +0.033 C 
BRANCH  16  18
ATOM     18  C   UNL     1       0.992  -2.446   3.454  0.00  0.00    -0.014 A 
ATOM     19  C   UNL     1      -0.159  -1.680   3.476  0.00  0.00    +0.006 A 
ATOM     20  C   UNL     1      -0.520  -1.007   4.628  0.00  0.00    +0.000 A 
ATOM     21  C   UNL     1       0.269  -1.100   5.760  0.00  0.00    +0.001 A 
ATOM     22  C   UNL     1       1.420  -1.866   5.739  0.00  0.00    +0.015 A 
ATOM     23  C   UNL     1       1.779  -2.543   4.587  0.00  0.00    +0.023 A 
ATOM     24 BR   UNL     1       3.349  -3.596   4.560  0.00  0.00    -0.050 Br
ENDBRANCH  16  18
ENDBRANCH   3  16
TORSDOF 5
