REMARK  Name = ZINC12882687
REMARK  6 active torsions:
REMARK  status: ('A' for Active; 'I' for Inactive)
REMARK    1  A    between atoms: C_1  and  C_2
REMARK    2  A    between atoms: C_2  and  C_4
REMARK    3  A    between atoms: C_2  and  O_34
REMARK    4  A    between atoms: N_12  and  C_15
REMARK    5  A    between atoms: C_15  and  C_16
REMARK    6  A    between atoms: C_16  and  C_17
REMARK                            x       y       z     vdW  Elec       q    Type
REMARK                         _______ _______ _______ _____ _____    ______ ____
ROOT
ATOM      1  C   UNL     1       1.960   1.943   1.340  0.00  0.00    -0.028 C 
ATOM      2  C   UNL     1       1.077   2.147   0.091  0.00  0.00    +0.075 C 
ATOM      3  C   UNL     1       0.542   3.603   0.195  0.00  0.00    +0.088 C 
ATOM      4  C   UNL     1      -0.950   3.414   0.356  0.00  0.00    +0.225 C 
ATOM      5  O   UNL     1      -1.761   4.309   0.466  0.00  0.00    -0.275 OA
ATOM      6  N   UNL     1      -1.236   2.107   0.353  0.00  0.00    -0.241 N 
ATOM      7  C   UNL     1      -0.173   1.306   0.219  0.00  0.00    +0.224 C 
ATOM      8  O   UNL     1      -0.207   0.095   0.199  0.00  0.00    -0.275 OA
ATOM      9  C   UNL     1       1.137   4.139   1.503  0.00  0.00    +0.050 C 
ATOM     10  C   UNL     1       2.364   4.968   1.252  0.00  0.00    -0.026 A 
ATOM     11  C   UNL     1       3.579   4.707   0.660  0.00  0.00    +0.004 A 
ATOM     12  C   UNL     1       4.537   5.703   0.574  0.00  0.00    +0.002 A 
ATOM     13  C   UNL     1       4.270   6.960   1.084  0.00  0.00    +0.022 A 
ATOM     14  C   UNL     1       3.053   7.226   1.679  0.00  0.00    +0.062 A 
ATOM     15  C   UNL     1       2.084   6.229   1.770  0.00  0.00    +0.054 A 
ATOM     16  N   UNL     1       0.799   6.251   2.319  0.00  0.00    -0.285 N 
ATOM     17  C   UNL     1       0.177   5.062   2.204  0.00  0.00    +0.211 C 
ATOM     18  O   UNL     1      -0.940   4.789   2.590  0.00  0.00    -0.277 OA
ATOM     19 CL   UNL     1       2.730   8.809   2.316  0.00  0.00    -0.082 Cl
ATOM     20  H   UNL     1       0.401   7.032   2.734  0.00  0.00    +0.155 HD
ATOM     21  N   UNL     1       1.446   2.957   2.289  0.00  0.00    +0.396 N 
ATOM     22  H   UNL     1       2.160   3.177   2.994  0.00  0.00    -0.083 HD
ATOM     23  H   UNL     1       0.600   2.610   2.756  0.00  0.00    -0.083 HD
ENDROOT
BRANCH   1  25
ATOM     24  C   UNL     1       2.367  -0.477   0.869  0.00  0.00    +0.036 C 
ATOM     25  C   UNL     1       1.798   0.520   1.880  0.00  0.00    +0.098 C 
BRANCH  25  26
ATOM     26  O   UNL     1       2.501   0.397   3.118  0.00  0.00    -0.394 OA
ATOM     27  H   UNL     1       2.442  -0.481   3.518  0.00  0.00    +0.210 HD
ENDBRANCH  25  26
ENDBRANCH   1  25
BRANCH   6  28
ATOM     28  C   UNL     1      -2.602   1.595   0.490  0.00  0.00    +0.121 C 
BRANCH  28  29
ATOM     29  C   UNL     1      -2.921   1.385   1.972  0.00  0.00    +0.054 C 
BRANCH  29  30
ATOM     30  C   UNL     1      -4.326   0.858   2.112  0.00  0.00    -0.046 A 
ATOM     31  C   UNL     1      -5.384   1.737   2.252  0.00  0.00    +0.004 A 
ATOM     32  C   UNL     1      -6.673   1.254   2.377  0.00  0.00    +0.000 A 
ATOM     33  C   UNL     1      -6.904  -0.109   2.372  0.00  0.00    +0.000 A 
ATOM     34  C   UNL     1      -5.846  -0.988   2.236  0.00  0.00    +0.000 A 
ATOM     35  C   UNL     1      -4.557  -0.505   2.107  0.00  0.00    +0.004 A 
ENDBRANCH  29  30
ENDBRANCH  28  29
ENDBRANCH   6  28
TORSDOF 5
