REMARK  Name = ZINC43527636
REMARK  12 active torsions:
REMARK  status: ('A' for Active; 'I' for Inactive)
REMARK    1  A    between atoms: C_1  and  O_2
REMARK    2  A    between atoms: O_2  and  C_3
REMARK    3  A    between atoms: C_3  and  C_4
REMARK    4  A    between atoms: N_9  and  C_10
REMARK    5  A    between atoms: C_10  and  C_11
REMARK    6  A    between atoms: C_20  and  C_22
REMARK    7  A    between atoms: C_22  and  N_23
REMARK    8  A    between atoms: N_23  and  C_24
REMARK    9  A    between atoms: C_24  and  N_26
REMARK   10  A    between atoms: N_26  and  C_27
REMARK   11  A    between atoms: C_27  and  C_28
REMARK   12  A    between atoms: C_28  and  N_29
REMARK                            x       y       z     vdW  Elec       q    Type
REMARK                         _______ _______ _______ _____ _____    ______ ____
ROOT
ATOM      1  C   UNL     1      -2.421  -3.841  -2.411  0.00  0.00    -0.041 C 
ATOM      2  C   UNL     1      -3.249  -2.597  -2.740  0.00  0.00    -0.076 C 
ATOM      3  N   UNL     1      -3.925  -2.770  -4.027  0.00  0.00    +0.383 N 
ATOM      4  C   UNL     1      -2.946  -2.943  -5.104  0.00  0.00    -0.078 C 
ATOM      5  C   UNL     1      -2.108  -4.199  -4.854  0.00  0.00    -0.015 C 
ATOM      6  C   UNL     1      -2.579  -4.859  -3.548  0.00  0.00    -0.015 C 
ATOM      7  C   UNL     1      -4.069  -5.199  -3.689  0.00  0.00    -0.010 C 
ATOM      8  C   UNL     1      -4.844  -3.909  -3.978  0.00  0.00    -0.051 C 
ATOM      9  H   UNL     1      -4.459  -1.937  -4.222  0.00  0.00    -0.081 HD
ENDROOT
BRANCH   1  10
ATOM     10  C   UNL     1      -0.947  -3.454  -2.271  0.00  0.00    -0.076 C 
BRANCH  10  15
ATOM     11  C   UNL     1       0.613  -2.097  -1.041  0.00  0.00    -0.043 C 
ATOM     12  C   UNL     1       1.186  -2.551   0.318  0.00  0.00    -0.015 C 
ATOM     13  C   UNL     1      -0.086  -2.760   1.181  0.00  0.00    -0.020 C 
ATOM     14  C   UNL     1      -1.087  -3.311   0.135  0.00  0.00    -0.078 C 
ATOM     15  N   UNL     1      -0.782  -2.568  -1.110  0.00  0.00    +0.383 N 
ATOM     16  H   UNL     1      -1.404  -1.778  -1.197  0.00  0.00    -0.081 HD
BRANCH  11  17
ATOM     17  C   UNL     1       0.652  -0.570  -1.138  0.00  0.00    +0.144 C 
BRANCH  17  19
ATOM     18  C   UNL     1      -0.017   1.425   0.010  0.00  0.00    +0.193 C 
ATOM     19  O   UNL     1       0.002  -0.004   0.002  0.00  0.00    -0.385 OA
ENDBRANCH  17  19
ENDBRANCH  11  17
ENDBRANCH  10  15
ENDBRANCH   1  10
BRANCH   8  20
ATOM     20  C   UNL     1      -5.564  -4.039  -5.322  0.00  0.00    +0.088 C 
BRANCH  20  21
ATOM     21  N   UNL     1      -6.220  -2.771  -5.649  0.00  0.00    -0.328 N 
ATOM     22  H   UNL     1      -6.151  -2.018  -5.041  0.00  0.00    +0.148 HD
BRANCH  21  23
ATOM     23  C   UNL     1      -6.920  -2.649  -6.795  0.00  0.00    +0.130 C 
ATOM     24  S   UNL     1      -7.041  -3.977  -7.868  0.00  0.00    -0.019 S 
BRANCH  23  25
ATOM     25  N   UNL     1      -7.523  -1.482  -7.096  0.00  0.00    -0.325 N 
ATOM     26  H   UNL     1      -7.454  -0.730  -6.487  0.00  0.00    +0.148 HD
BRANCH  25  27
ATOM     27  C   UNL     1      -8.284  -1.351  -8.341  0.00  0.00    +0.118 C 
BRANCH  27  28
ATOM     28  C   UNL     1      -8.862   0.063  -8.438  0.00  0.00    +0.103 C 
BRANCH  28  29
ATOM     29  N   UNL     1      -9.624   0.195  -9.687  0.00  0.00    -0.297 NA
ATOM     30  C   UNL     1      -8.739   0.105 -10.857  0.00  0.00    +0.112 C 
ATOM     31  C   UNL     1      -9.579   0.188 -12.134  0.00  0.00    +0.175 C 
ATOM     32  O   UNL     1     -10.338   1.399 -12.121  0.00  0.00    -0.377 OA
ATOM     33  C   UNL     1     -11.213   1.519 -10.996  0.00  0.00    +0.175 C 
ATOM     34  C   UNL     1     -10.389   1.450  -9.707  0.00  0.00    +0.112 C 
ENDBRANCH  28  29
ENDBRANCH  27  28
ENDBRANCH  25  27
ENDBRANCH  23  25
ENDBRANCH  21  23
ENDBRANCH  20  21
ENDBRANCH   8  20
TORSDOF 11
