REMARK  Name = ZINC63557257
REMARK  8 active torsions:
REMARK  status: ('A' for Active; 'I' for Inactive)
REMARK    1  A    between atoms: C_1  and  C_2
REMARK    2  A    between atoms: C_2  and  C_3
REMARK    3  A    between atoms: C_2  and  C_4
REMARK    4  A    between atoms: C_8  and  N_11
REMARK    5  A    between atoms: C_12  and  C_14
REMARK    6  A    between atoms: N_19  and  C_21
REMARK    7  A    between atoms: C_21  and  C_22
REMARK    8  A    between atoms: C_22  and  C_23
REMARK                            x       y       z     vdW  Elec       q    Type
REMARK                         _______ _______ _______ _____ _____    ______ ____
ROOT
ATOM      1  C   UNL     1       5.852  -3.657   0.014  0.00  0.00    +0.101 C 
ATOM      2  C   UNL     1       5.025  -4.260  -1.145  0.00  0.00    +0.110 C 
ATOM      3  C   UNL     1       5.808  -5.486  -1.561  0.00  0.00    +0.216 C 
ATOM      4  O   UNL     1       5.660  -6.083  -2.607  0.00  0.00    -0.276 OA
ATOM      5  N   UNL     1       6.693  -5.816  -0.605  0.00  0.00    -0.300 N 
ATOM      6  C   UNL     1       6.614  -4.896   0.536  0.00  0.00    +0.121 C 
ENDROOT
BRANCH   1   8
ATOM      7  N   UNL     1       4.154  -2.039   0.799  0.00  0.00    -0.290 N 
ATOM      8  C   UNL     1       4.952  -3.089   1.081  0.00  0.00    +0.220 C 
ATOM      9  O   UNL     1       4.945  -3.575   2.191  0.00  0.00    -0.275 OA
ATOM     10  H   UNL     1       4.159  -1.650  -0.089  0.00  0.00    +0.151 HD
BRANCH   7  14
ATOM     11  C   UNL     1       0.742  -0.511   1.242  0.00  0.00    +0.132 C 
ATOM     12  N   UNL     1       0.984  -1.986   1.168  0.00  0.00    -0.241 NA
ATOM     13  N   UNL     1       2.087  -2.355   2.049  0.00  0.00    -0.227 NA
ATOM     14  C   UNL     1       3.278  -1.487   1.836  0.00  0.00    +0.216 C 
ATOM     15  S   UNL     1       2.490   0.082   1.272  0.00  0.00    -0.102 S 
ATOM     16  H   UNL     1       0.148  -2.502   1.400  0.00  0.00    +0.142 HD
ATOM     17  H   UNL     1       1.798  -2.341   3.015  0.00  0.00    +0.143 HD
BRANCH  11  19
ATOM     18  C   UNL     1      -0.019   1.526   0.010  0.00  0.00    +0.009 C 
ATOM     19  C   UNL     1       0.002  -0.004   0.002  0.00  0.00    +0.011 C 
ATOM     20  C   UNL     1       0.718  -0.497  -1.257  0.00  0.00    +0.009 C 
ENDBRANCH  11  19
ENDBRANCH   7  14
ENDBRANCH   1   8
BRANCH   5  21
ATOM     21  C   UNL     1       7.619  -6.948  -0.690  0.00  0.00    +0.112 C 
BRANCH  21  22
ATOM     22  C   UNL     1       8.927  -6.490  -1.337  0.00  0.00    +0.052 C 
BRANCH  22  23
ATOM     23  C   UNL     1       9.879  -7.654  -1.425  0.00  0.00    -0.040 C 
ATOM     24  C   UNL     1      10.068  -8.472  -2.486  0.00  0.00    +0.002 A 
ATOM     25  C   UNL     1       9.466  -8.519  -3.824  0.00  0.00    +0.048 A 
ATOM     26  C   UNL     1       9.868  -9.478  -4.691  0.00  0.00    +0.124 A 
ATOM     27  C   UNL     1      10.844 -10.425  -4.342  0.00  0.00    +0.040 A 
ATOM     28  C   UNL     1      11.441 -10.445  -3.132  0.00  0.00    +0.029 A 
ATOM     29  C   UNL     1      11.095  -9.482  -2.144  0.00  0.00    +0.043 A 
ATOM     30  N   UNL     1      11.524  -9.296  -0.919  0.00  0.00    -0.380 N 
ATOM     31  C   UNL     1      10.822  -8.142  -0.347  0.00  0.00    +0.144 C 
ATOM     32  F   UNL     1       9.316  -9.525  -5.923  0.00  0.00    -0.205 F 
ATOM     33  H   UNL     1      12.196  -9.831  -0.467  0.00  0.00    +0.160 HD
ENDBRANCH  22  23
ENDBRANCH  21  22
ENDBRANCH   5  21
TORSDOF 6
