REMARK  Name = ZINC13570057
REMARK  5 active torsions:
REMARK  status: ('A' for Active; 'I' for Inactive)
REMARK    1  A    between atoms: C_4  and  C_7
REMARK    2  A    between atoms: C_7  and  C_8
REMARK    3  A    between atoms: C_8  and  C_10
REMARK    4  A    between atoms: C_8  and  N_27
REMARK    5  A    between atoms: C_28  and  C_30
REMARK                            x       y       z     vdW  Elec       q    Type
REMARK                         _______ _______ _______ _____ _____    ______ ____
ROOT
ATOM      1  C   UNL     1       4.171  -0.964   1.402  0.00  0.00    +0.164 C 
ENDROOT
BRANCH   1   2
ATOM      2  C   UNL     1       5.348  -1.904   1.389  0.00  0.00    +0.236 C 
ATOM      3  O   UNL     1       6.466  -1.480   1.593  0.00  0.00    -0.274 OA
ATOM      4  N   UNL     1       5.159  -3.217   1.151  0.00  0.00    -0.300 N 
ATOM      5  C   UNL     1       3.831  -3.728   0.787  0.00  0.00    +0.110 C 
ATOM      6  C   UNL     1       3.460  -4.865   1.745  0.00  0.00    +0.047 C 
ATOM      7  C   UNL     1       4.567  -5.920   1.732  0.00  0.00    +0.064 C 
ATOM      8  C   UNL     1       5.881  -5.297   2.204  0.00  0.00    +0.047 C 
ATOM      9  C   UNL     1       6.279  -4.164   1.246  0.00  0.00    +0.110 C 
ATOM     10  C   UNL     1       4.190  -7.061   2.641  0.00  0.00    +0.057 A 
ATOM     11  C   UNL     1       3.731  -8.250   2.186  0.00  0.00    +0.039 A 
ATOM     12  N   UNL     1       3.497  -9.032   3.272  0.00  0.00    -0.349 N 
ATOM     13  H   UNL     1       3.163  -9.942   3.266  0.00  0.00    +0.166 HD
ATOM     14  C   UNL     1       3.818  -8.298   4.363  0.00  0.00    +0.171 A 
ATOM     15  N   UNL     1       4.232  -7.120   3.973  0.00  0.00    -0.348 N 
ATOM     16  C   UNL     1       3.541  -8.562   0.724  0.00  0.00    +0.070 C 
ATOM     17  C   UNL     1       3.566  -7.236  -0.050  0.00  0.00    +0.088 C 
ATOM     18  N   UNL     1       4.732  -6.444   0.367  0.00  0.00    -0.305 NA
ATOM     19  H   UNL     1       4.915  -5.698  -0.287  0.00  0.00    +0.123 HD
ATOM     20  H   UNL     1       4.523  -6.404   4.559  0.00  0.00    +0.166 HD
ENDBRANCH   1   2
BRANCH   1  21
ATOM     21  N   UNL     1       4.503   0.224   2.193  0.00  0.00    -0.300 N 
ATOM     22  C   UNL     1       3.522   0.945   2.770  0.00  0.00    +0.245 C 
ATOM     23  O   UNL     1       2.361   0.611   2.633  0.00  0.00    -0.270 OA
ATOM     24  H   UNL     1       5.429   0.490   2.302  0.00  0.00    +0.150 HD
BRANCH  22  25
ATOM     25  C   UNL     1       3.856   2.142   3.567  0.00  0.00    +0.040 A 
ATOM     26  C   UNL     1       5.189   2.531   3.720  0.00  0.00    +0.017 A 
ATOM     27  C   UNL     1       5.499   3.648   4.464  0.00  0.00    +0.050 A 
ATOM     28  C   UNL     1       4.491   4.391   5.064  0.00  0.00    +0.166 A 
ATOM     29  C   UNL     1       3.157   4.007   4.915  0.00  0.00    +0.167 A 
ATOM     30  C   UNL     1       2.840   2.891   4.165  0.00  0.00    +0.062 A 
ATOM     31  O   UNL     1       2.371   4.893   5.594  0.00  0.00    -0.453 OA
ATOM     32  C   UNL     1       3.259   5.582   6.494  0.00  0.00    +0.466 C 
ATOM     33  O   UNL     1       4.536   5.515   5.834  0.00  0.00    -0.453 OA
ENDBRANCH  22  25
ENDBRANCH   1  21
BRANCH   1  34
ATOM     34  C   UNL     1       3.838  -0.544  -0.032  0.00  0.00    +0.067 C 
BRANCH  34  38
ATOM     35  C   UNL     1       0.271   1.806  -0.037  0.00  0.00    +0.000 A 
ATOM     36  C   UNL     1       1.502   2.419   0.103  0.00  0.00    +0.000 A 
ATOM     37  C   UNL     1       2.657   1.658   0.105  0.00  0.00    +0.004 A 
ATOM     38  C   UNL     1       2.580   0.285  -0.033  0.00  0.00    -0.045 A 
ATOM     39  C   UNL     1       1.348  -0.328  -0.172  0.00  0.00    +0.004 A 
ATOM     40  C   UNL     1       0.194   0.433  -0.176  0.00  0.00    +0.000 A 
ENDBRANCH  34  38
ENDBRANCH   1  34
TORSDOF 5
