REMARK  Name = ZINC47329258
REMARK  4 active torsions:
REMARK  status: ('A' for Active; 'I' for Inactive)
REMARK    1  A    between atoms: C_3  and  N_9
REMARK    2  A    between atoms: C_6  and  C_7
REMARK    3  A    between atoms: N_9  and  S_10
REMARK    4  A    between atoms: S_10  and  C_13
REMARK                            x       y       z     vdW  Elec       q    Type
REMARK                         _______ _______ _______ _____ _____    ______ ____
ROOT
ATOM      1  C   UNL     1       6.297   2.541  -0.045  0.00  0.00    +0.146 A 
ATOM      2  C   UNL     1       7.160   2.642   1.030  0.00  0.00    +0.037 A 
ATOM      3  C   UNL     1       8.160   3.594   1.028  0.00  0.00    -0.024 A 
ATOM      4  C   UNL     1       8.300   4.451  -0.056  0.00  0.00    +0.039 A 
ATOM      5  C   UNL     1       7.434   4.350  -1.135  0.00  0.00    +0.064 A 
ATOM      6  C   UNL     1       6.436   3.390  -1.130  0.00  0.00    +0.152 A 
ATOM      7  F   UNL     1       5.595   3.286  -2.182  0.00  0.00    -0.203 F 
ATOM      8  N   UNL     1       9.315   5.414  -0.057  0.00  0.00    -0.285 N 
ATOM      9  C   UNL     1      10.368   5.295   0.771  0.00  0.00    +0.218 C 
ATOM     10  O   UNL     1      11.232   6.147   0.767  0.00  0.00    -0.275 OA
ATOM     11  C   UNL     1      10.488   4.119   1.702  0.00  0.00    +0.101 C 
ATOM     12  C   UNL     1       9.102   3.705   2.198  0.00  0.00    +0.046 C 
ATOM     13  H   UNL     1       9.258   6.172  -0.659  0.00  0.00    +0.155 HD
ENDROOT
BRANCH   1  14
ATOM     14  S   UNL     1       5.022   1.325  -0.039  0.00  0.00    +0.094 S 
ATOM     15  O   UNL     1       5.121   0.639   1.202  0.00  0.00    -0.148 OA
ATOM     16  O   UNL     1       5.097   0.652  -1.289  0.00  0.00    -0.148 OA
BRANCH  14  17
ATOM     17  N   UNL     1       3.576   2.131  -0.021  0.00  0.00    -0.098 NA
BRANCH  17  20
ATOM     18  C   UNL     1      -0.017   1.394   0.010  0.00  0.00    +0.021 A 
ATOM     19  C   UNL     1       1.167   2.097   0.002  0.00  0.00    +0.028 A 
ATOM     20  C   UNL     1       2.381   1.417  -0.013  0.00  0.00    +0.074 A 
ATOM     21  C   UNL     1       2.404   0.026  -0.021  0.00  0.00    +0.028 A 
ATOM     22  C   UNL     1       1.224  -0.683  -0.014  0.00  0.00    +0.021 A 
ATOM     23  C   UNL     1       0.002  -0.004   0.002  0.00  0.00    +0.052 A 
BRANCH  23  24
ATOM     24  C   UNL     1      -1.227  -0.739   0.010  0.00  0.00    +0.099 C 
ATOM     25  N   UNL     1      -2.202  -1.321   0.017  0.00  0.00    -0.191 NA
ENDBRANCH  23  24
ENDBRANCH  17  20
ENDBRANCH  14  17
ENDBRANCH   1  14
TORSDOF 4
