REMARK  Name = ZINC23540702
REMARK  8 active torsions:
REMARK  status: ('A' for Active; 'I' for Inactive)
REMARK    1  A    between atoms: C_4  and  O_23
REMARK    2  A    between atoms: C_5  and  C_7
REMARK    3  A    between atoms: C_7  and  N_8
REMARK    4  A    between atoms: C_12  and  C_15
REMARK    5  A    between atoms: C_15  and  N_16
REMARK    6  A    between atoms: C_18  and  C_21
REMARK    7  A    between atoms: C_21  and  N_22
REMARK    8  A    between atoms: O_23  and  C_24
REMARK                            x       y       z     vdW  Elec       q    Type
REMARK                         _______ _______ _______ _____ _____    ______ ____
ROOT
ATOM      1  N   UNL     1       0.926   4.078   1.378  0.00  0.00    +0.383 N 
ATOM      2  C   UNL     1      -0.415   3.706   1.845  0.00  0.00    -0.078 C 
ATOM      3  C   UNL     1      -0.570   4.092   3.318  0.00  0.00    -0.018 C 
ATOM      4  C   UNL     1      -0.356   5.601   3.470  0.00  0.00    +0.002 C 
ATOM      5  C   UNL     1       1.029   5.969   2.932  0.00  0.00    -0.006 C 
ATOM      6  C   UNL     1       1.137   5.528   1.470  0.00  0.00    -0.073 C 
ATOM      7  H   UNL     1       1.658   3.590   2.039  0.00  0.00    -0.081 HD
ENDROOT
BRANCH   1   8
ATOM      8  C   UNL     1       1.160   3.598   0.010  0.00  0.00    -0.039 C 
BRANCH   8  13
ATOM      9  C   UNL     1       2.396   0.030  -0.021  0.00  0.00    +0.000 A 
ATOM     10  C   UNL     1       1.208  -0.677  -0.013  0.00  0.00    +0.004 A 
ATOM     11  C   UNL     1       0.002  -0.004   0.002  0.00  0.00    +0.046 A 
ATOM     12  C   UNL     1      -0.017   1.383   0.010  0.00  0.00    +0.128 A 
ATOM     13  C   UNL     1       1.176   2.091   0.002  0.00  0.00    -0.022 A 
ATOM     14  C   UNL     1       2.380   1.413  -0.013  0.00  0.00    +0.005 A 
BRANCH  12  15
ATOM     15  O   UNL     1      -1.202   2.048   0.019  0.00  0.00    -0.434 OA
BRANCH  15  16
ATOM     16  C   UNL     1      -2.391   1.255   0.020  0.00  0.00    +0.541 C 
ATOM     17  F   UNL     1      -2.418   0.453  -1.126  0.00  0.00    -0.166 F 
ATOM     18  F   UNL     1      -2.407   0.441   1.158  0.00  0.00    -0.166 F 
ENDBRANCH  15  16
ENDBRANCH  12  15
ENDBRANCH   8  13
ENDBRANCH   1   8
BRANCH   5  19
ATOM     19  C   UNL     1       1.228   7.483   3.025  0.00  0.00    +0.147 C 
BRANCH  19  20
ATOM     20  N   UNL     1       1.244   7.888   4.433  0.00  0.00    -0.251 N 
ATOM     21  C   UNL     1       2.229   8.583   5.047  0.00  0.00    +0.131 A 
ATOM     22  C   UNL     1       1.835   8.739   6.333  0.00  0.00    +0.066 A 
ATOM     23  N   UNL     1       0.647   8.133   6.442  0.00  0.00    -0.136 NA
ATOM     24  N   UNL     1       0.325   7.639   5.299  0.00  0.00    -0.066 NA
BRANCH  22  25
ATOM     25  C   UNL     1       2.589   9.450   7.427  0.00  0.00    -0.027 C 
BRANCH  25  26
ATOM     26  N   UNL     1       2.113  10.836   7.528  0.00  0.00    +0.382 N 
ATOM     27  H   UNL     1       2.664  11.356   8.326  0.00  0.00    -0.090 HD
ATOM     28  H   UNL     1       1.038  10.839   7.761  0.00  0.00    -0.090 HD
ATOM     29  H   UNL     1       2.282  11.352   6.571  0.00  0.00    -0.090 HD
ENDBRANCH  25  26
ENDBRANCH  22  25
ENDBRANCH  19  20
ENDBRANCH   5  19
TORSDOF 8
