REMARK  Name = ZINC45511336
REMARK  7 active torsions:
REMARK  status: ('A' for Active; 'I' for Inactive)
REMARK    1  A    between atoms: C_1  and  C_2
REMARK    2  A    between atoms: C_2  and  C_4
REMARK    3  A    between atoms: C_2  and  N_18
REMARK    4  A    between atoms: N_6  and  C_7
REMARK    5  A    between atoms: C_8  and  C_15
REMARK    6  A    between atoms: N_21  and  C_24
REMARK    7  A    between atoms: C_24  and  C_25
REMARK                            x       y       z     vdW  Elec       q    Type
REMARK                         _______ _______ _______ _____ _____    ______ ____
ROOT
ATOM      1  C   UNL     1       1.015  -0.326   1.103  0.00  0.00    +0.034 C 
ATOM      2  C   UNL     1       0.002  -0.004   0.002  0.00  0.00    +0.140 C 
ENDROOT
BRANCH   2   3
ATOM      3  N   UNL     1       0.470  -0.564  -1.273  0.00  0.00    -0.295 NA
ATOM      4  C   UNL     1       0.265  -2.019  -1.316  0.00  0.00    +0.066 C 
ATOM      5  C   UNL     1       0.709  -2.554  -2.679  0.00  0.00    -0.063 C 
ATOM      6  N   UNL     1       2.126  -2.235  -2.893  0.00  0.00    +0.384 N 
ATOM      7  C   UNL     1       2.311  -0.778  -2.872  0.00  0.00    -0.063 C 
ATOM      8  C   UNL     1       1.881  -0.228  -1.510  0.00  0.00    +0.066 C 
ATOM      9  H   UNL     1       2.679  -2.654  -2.160  0.00  0.00    -0.081 HD
BRANCH   6  10
ATOM     10  C   UNL     1       2.557  -2.764  -4.194  0.00  0.00    -0.040 C 
BRANCH  10  11
ATOM     11  C   UNL     1       4.038  -2.546  -4.360  0.00  0.00    -0.029 A 
ATOM     12  C   UNL     1       4.501  -1.484  -5.114  0.00  0.00    +0.004 A 
ATOM     13  C   UNL     1       5.860  -1.283  -5.267  0.00  0.00    +0.000 A 
ATOM     14  C   UNL     1       6.758  -2.145  -4.665  0.00  0.00    +0.003 A 
ATOM     15  C   UNL     1       6.299  -3.207  -3.910  0.00  0.00    +0.038 A 
ATOM     16  C   UNL     1       4.937  -3.405  -3.752  0.00  0.00    +0.125 A 
ATOM     17  F   UNL     1       4.487  -4.441  -3.010  0.00  0.00    -0.205 F 
ENDBRANCH  10  11
ENDBRANCH   6  10
ENDBRANCH   2   3
BRANCH   2  18
ATOM     18  C   UNL     1      -0.140   1.491  -0.128  0.00  0.00    +0.235 C 
ATOM     19  O   UNL     1       0.368   2.069  -1.065  0.00  0.00    -0.274 OA
ATOM     20  N   UNL     1      -0.832   2.185   0.797  0.00  0.00    -0.278 N 
ATOM     21  H   UNL     1      -1.238   1.722   1.547  0.00  0.00    +0.155 HD
BRANCH  20  22
ATOM     22  C   UNL     1      -0.963   3.560   0.678  0.00  0.00    +0.084 A 
ATOM     23  C   UNL     1      -1.625   4.428   1.526  0.00  0.00    +0.068 A 
ATOM     24  C   UNL     1      -1.615   5.847   1.174  0.00  0.00    -0.023 A 
ATOM     25  C   UNL     1      -0.947   6.126   0.040  0.00  0.00    -0.004 A 
ATOM     26  S   UNL     1      -0.348   4.554  -0.525  0.00  0.00    -0.077 S 
ATOM     27  C   UNL     1      -0.972   7.596  -0.278  0.00  0.00    +0.043 C 
ATOM     28  C   UNL     1      -2.117   8.164   0.589  0.00  0.00    +0.010 C 
ATOM     29  C   UNL     1      -2.167   7.149   1.750  0.00  0.00    +0.037 C 
BRANCH  23  30
ATOM     30  C   UNL     1      -2.309   3.945   2.729  0.00  0.00    +0.244 C 
ATOM     31  O   UNL     1      -1.708   3.877   3.785  0.00  0.00    -0.270 OA
ATOM     32  N   UNL     1      -3.604   3.577   2.667  0.00  0.00    -0.325 N 
ATOM     33  H   UNL     1      -4.083   3.631   1.825  0.00  0.00    +0.145 HD
ATOM     34  H   UNL     1      -4.057   3.257   3.463  0.00  0.00    +0.145 HD
ENDBRANCH  23  30
ENDBRANCH  20  22
ENDBRANCH   2  18
TORSDOF 6
