REMARK  Name = ZINC43260702
REMARK  10 active torsions:
REMARK  status: ('A' for Active; 'I' for Inactive)
REMARK    1  A    between atoms: C_1  and  C_2
REMARK    2  A    between atoms: C_2  and  C_3
REMARK    3  A    between atoms: C_3  and  N_4
REMARK    4  A    between atoms: N_4  and  C_5
REMARK    5  A    between atoms: N_4  and  C_12
REMARK    6  A    between atoms: C_5  and  C_6
REMARK    7  A    between atoms: C_12  and  C_14
REMARK    8  A    between atoms: C_12  and  C_20
REMARK    9  A    between atoms: C_20  and  C_22
REMARK   10  A    between atoms: C_20  and  N_23
REMARK                            x       y       z     vdW  Elec       q    Type
REMARK                         _______ _______ _______ _____ _____    ______ ____
ROOT
ATOM      1  N   UNL     1       0.578  -1.881   1.070  0.00  0.00    +0.388 N 
ATOM      2  H   UNL     1      -0.410  -1.785   0.889  0.00  0.00    -0.080 HD
ENDROOT
BRANCH   1   3
ATOM      3  C   UNL     1       1.287  -0.704   0.550  0.00  0.00    -0.078 C 
BRANCH   3   5
ATOM      4  C   UNL     1       1.525   0.824  -1.412  0.00  0.00    +0.002 C 
ATOM      5  C   UNL     1       0.896  -0.478  -0.912  0.00  0.00    -0.022 C 
ENDBRANCH   3   5
ENDBRANCH   1   3
BRANCH   1   6
ATOM      6  C   UNL     1       1.083  -3.090   0.406  0.00  0.00    -0.042 C 
BRANCH   6   7
ATOM      7  C   UNL     1       0.252  -4.276   0.822  0.00  0.00    -0.064 A 
ATOM      8  C   UNL     1       0.681  -5.095   1.849  0.00  0.00    +0.002 A 
ATOM      9  C   UNL     1      -0.082  -6.183   2.230  0.00  0.00    +0.000 A 
ATOM     10  C   UNL     1      -1.274  -6.452   1.585  0.00  0.00    +0.000 A 
ATOM     11  C   UNL     1      -1.704  -5.632   0.558  0.00  0.00    +0.000 A 
ATOM     12  C   UNL     1      -0.944  -4.541   0.180  0.00  0.00    +0.002 A 
ENDBRANCH   6   7
ENDBRANCH   1   6
BRANCH   1  13
ATOM     13  C   UNL     1       0.802  -1.987   2.518  0.00  0.00    -0.014 C 
BRANCH  13  14
ATOM     14  C   UNL     1       2.270  -2.198   2.785  0.00  0.00    -0.021 A 
ATOM     15  C   UNL     1       2.876  -3.179   3.496  0.00  0.00    +0.011 A 
ATOM     16  C   UNL     1       4.253  -3.173   3.610  0.00  0.00    +0.023 A 
ATOM     17  C   UNL     1       4.958  -2.183   3.006  0.00  0.00    +0.055 A 
ATOM     18  S   UNL     1       3.662  -1.223   2.240  0.00  0.00    -0.088 S 
ATOM     19 BR   UNL     1       6.827  -1.899   2.976  0.00  0.00    -0.043 Br
ENDBRANCH  13  14
BRANCH  13  20
ATOM     20  C   UNL     1       0.338  -0.700   3.202  0.00  0.00    +0.039 C 
ATOM     21  C   UNL     1      -1.141  -0.460   2.890  0.00  0.00    +0.022 C 
BRANCH  20  22
ATOM     22  N   UNL     1       0.518  -0.825   4.654  0.00  0.00    -0.329 NA
ATOM     23  H   UNL     1       0.280   0.036   5.124  0.00  0.00    +0.118 HD
ATOM     24  H   UNL     1      -0.018  -1.597   5.021  0.00  0.00    +0.118 HD
ENDBRANCH  20  22
ENDBRANCH  13  20
ENDBRANCH   1  13
TORSDOF 8
