REMARK  Name = ZINC38547687
REMARK  8 active torsions:
REMARK  status: ('A' for Active; 'I' for Inactive)
REMARK    1  A    between atoms: C_1  and  C_2
REMARK    2  A    between atoms: N_8  and  C_9
REMARK    3  A    between atoms: C_9  and  C_11
REMARK    4  A    between atoms: C_9  and  C_20
REMARK    5  A    between atoms: C_21  and  C_34
REMARK    6  A    between atoms: C_22  and  C_33
REMARK    7  A    between atoms: C_24  and  N_25
REMARK    8  A    between atoms: C_26  and  C_28
REMARK                            x       y       z     vdW  Elec       q    Type
REMARK                         _______ _______ _______ _____ _____    ______ ____
ROOT
ATOM      1  C   UNL     1      -0.242  -1.857   3.866  0.00  0.00    +0.135 C 
ENDROOT
BRANCH   1   9
ATOM      2  C   UNL     1      -2.727   1.297   0.682  0.00  0.00    +0.044 C 
ATOM      3  C   UNL     1      -2.275  -0.140   0.623  0.00  0.00    -0.046 A 
ATOM      4  C   UNL     1      -2.523  -0.916  -0.502  0.00  0.00    +0.021 A 
ATOM      5  C   UNL     1      -2.096  -2.228  -0.525  0.00  0.00    +0.084 A 
ATOM      6  N   UNL     1      -1.457  -2.751   0.506  0.00  0.00    -0.350 N 
ATOM      7  C   UNL     1      -1.202  -2.043   1.595  0.00  0.00    +0.097 A 
ATOM      8  C   UNL     1      -1.599  -0.713   1.685  0.00  0.00    +0.045 A 
ATOM      9  N   UNL     1      -0.527  -2.634   2.658  0.00  0.00    -0.320 N 
ATOM     10  H   UNL     1      -0.245  -3.560   2.598  0.00  0.00    +0.148 HD
ATOM     11  H   UNL     1      -1.168  -3.675   0.464  0.00  0.00    +0.166 HD
ENDBRANCH   1   9
BRANCH   1  12
ATOM     12  C   UNL     1      -1.510  -1.679   4.660  0.00  0.00    -0.019 A 
ATOM     13  C   UNL     1      -2.512  -2.629   4.583  0.00  0.00    +0.009 A 
ATOM     14  C   UNL     1      -3.677  -2.470   5.310  0.00  0.00    +0.050 A 
ATOM     15  C   UNL     1      -3.844  -1.357   6.117  0.00  0.00    +0.166 A 
ATOM     16  C   UNL     1      -2.836  -0.399   6.194  0.00  0.00    +0.167 A 
ATOM     17  C   UNL     1      -1.668  -0.568   5.468  0.00  0.00    +0.055 A 
ATOM     18  O   UNL     1      -3.237   0.589   7.046  0.00  0.00    -0.453 OA
ATOM     19  C   UNL     1      -4.663   0.434   7.171  0.00  0.00    +0.466 C 
ATOM     20  O   UNL     1      -4.877  -0.968   6.920  0.00  0.00    -0.453 OA
ENDBRANCH   1  12
BRANCH   1  21
ATOM     21  C   UNL     1       0.776  -2.587   4.704  0.00  0.00    +0.009 A 
ATOM     22  C   UNL     1       1.855  -1.913   5.247  0.00  0.00    -0.033 A 
ATOM     23  C   UNL     1       2.751  -2.600   5.995  0.00  0.00    -0.008 A 
ATOM     24  S   UNL     1       2.082  -4.255   5.954  0.00  0.00    -0.078 S 
ATOM     25  C   UNL     1       0.647  -3.922   4.945  0.00  0.00    +0.078 A 
ATOM     26  C   UNL     1       3.993  -2.097   6.685  0.00  0.00    +0.052 C 
ATOM     27  C   UNL     1       2.031  -0.436   5.009  0.00  0.00    +0.045 C 
BRANCH  25  28
ATOM     28  N   UNL     1      -0.347  -4.802   4.513  0.00  0.00    -0.273 N 
ATOM     29  C   UNL     1      -0.358  -6.076   4.953  0.00  0.00    +0.284 C 
ATOM     30  O   UNL     1       0.499  -6.459   5.728  0.00  0.00    -0.266 OA
ATOM     31  H   UNL     1      -1.031  -4.496   3.896  0.00  0.00    +0.156 HD
BRANCH  29  32
ATOM     32  C   UNL     1      -1.402  -6.999   4.500  0.00  0.00    +0.189 A 
ATOM     33  C   UNL     1      -1.533  -8.307   4.870  0.00  0.00    +0.054 A 
ATOM     34  C   UNL     1      -2.662  -8.805   4.202  0.00  0.00    +0.042 A 
ATOM     35  C   UNL     1      -3.165  -7.792   3.462  0.00  0.00    +0.196 A 
ATOM     36  O   UNL     1      -2.406  -6.705   3.648  0.00  0.00    -0.458 OA
ENDBRANCH  29  32
ENDBRANCH  25  28
ENDBRANCH   1  21
TORSDOF 5
