REMARK  Name = ZINC26805638
REMARK  7 active torsions:
REMARK  status: ('A' for Active; 'I' for Inactive)
REMARK    1  A    between atoms: C_5  and  C_7
REMARK    2  A    between atoms: N_9  and  C_10
REMARK    3  A    between atoms: C_10  and  C_19
REMARK    4  A    between atoms: C_11  and  C_12
REMARK    5  A    between atoms: N_21  and  C_22
REMARK    6  A    between atoms: C_22  and  C_23
REMARK    7  A    between atoms: C_23  and  N_24
REMARK                            x       y       z     vdW  Elec       q    Type
REMARK                         _______ _______ _______ _____ _____    ______ ____
ROOT
ATOM      1  C   UNL     1      -3.654   1.673   0.143  0.00  0.00    +0.097 C 
ATOM      2  C   UNL     1      -2.484   1.014  -0.028  0.00  0.00    +0.036 C 
ENDROOT
BRANCH   2   3
ATOM      3  C   UNL     1      -1.217   1.759  -0.053  0.00  0.00    -0.023 A 
ATOM      4  C   UNL     1      -0.085   1.201  -0.658  0.00  0.00    +0.009 A 
ATOM      5  C   UNL     1       1.097   1.909  -0.684  0.00  0.00    +0.020 A 
ATOM      6  C   UNL     1       1.169   3.167  -0.108  0.00  0.00    +0.041 A 
ATOM      7  C   UNL     1       0.054   3.723   0.497  0.00  0.00    +0.020 A 
ATOM      8  C   UNL     1      -1.135   3.028   0.531  0.00  0.00    +0.009 A 
ATOM      9 CL   UNL     1       2.663   4.050  -0.146  0.00  0.00    -0.084 Cl
ENDBRANCH   2   3
BRANCH   1  12
ATOM     10  C   UNL     1      -4.189   3.733   1.203  0.00  0.00    +0.250 C 
ATOM     11  O   UNL     1      -4.722   3.118   2.106  0.00  0.00    -0.270 OA
ATOM     12  N   UNL     1      -3.674   3.071   0.148  0.00  0.00    -0.277 N 
ATOM     13  H   UNL     1      -3.269   3.630  -0.708  0.00  0.00    +0.155 HD
BRANCH  10  18
ATOM     14  C   UNL     1      -3.538   7.301   0.231  0.00  0.00    +0.001 A 
ATOM     15  C   UNL     1      -3.955   7.971   1.368  0.00  0.00    +0.001 A 
ATOM     16  C   UNL     1      -4.447   7.268   2.452  0.00  0.00    +0.021 A 
ATOM     17  C   UNL     1      -4.526   5.889   2.406  0.00  0.00    +0.053 A 
ATOM     18  C   UNL     1      -4.108   5.207   1.260  0.00  0.00    +0.055 A 
ATOM     19  C   UNL     1      -3.606   5.925   0.173  0.00  0.00    +0.014 A 
ATOM     20 CL   UNL     1      -5.144   5.007   3.767  0.00  0.00    -0.083 Cl
ENDBRANCH  10  18
ENDBRANCH   1  12
BRANCH   1  21
ATOM     21  C   UNL     1      -4.903   0.919   0.323  0.00  0.00    +0.258 C 
ATOM     22  O   UNL     1      -5.954   1.512   0.477  0.00  0.00    -0.269 OA
ATOM     23  N   UNL     1      -4.883  -0.428   0.318  0.00  0.00    -0.309 N 
ATOM     24  H   UNL     1      -3.933  -0.964   0.179  0.00  0.00    +0.149 HD
BRANCH  23  25
ATOM     25  C   UNL     1      -6.128  -1.180   0.498  0.00  0.00    +0.120 C 
BRANCH  25  26
ATOM     26  C   UNL     1      -5.830  -2.680   0.452  0.00  0.00    +0.103 C 
BRANCH  26  27
ATOM     27  N   UNL     1      -7.078  -3.433   0.632  0.00  0.00    -0.304 NA
ATOM     28  C   UNL     1      -8.150  -2.886  -0.212  0.00  0.00    +0.065 C 
ATOM     29  C   UNL     1      -9.450  -3.645   0.062  0.00  0.00    -0.067 C 
ATOM     30  N   UNL     1      -9.246  -5.075  -0.210  0.00  0.00    +0.381 N 
ATOM     31  C   UNL     1      -8.175  -5.622   0.634  0.00  0.00    -0.067 C 
ATOM     32  C   UNL     1      -6.875  -4.862   0.359  0.00  0.00    +0.065 C 
ATOM     33  H   UNL     1     -10.176  -5.624  -0.001  0.00  0.00    -0.086 HD
ATOM     34  H   UNL     1      -8.969  -5.211  -1.266  0.00  0.00    -0.086 HD
ENDBRANCH  26  27
ENDBRANCH  25  26
ENDBRANCH  23  25
ENDBRANCH   1  21
TORSDOF 7
