REMARK  Name = ZINC04328532
REMARK  9 active torsions:
REMARK  status: ('A' for Active; 'I' for Inactive)
REMARK    1  A    between atoms: C_1  and  C_2
REMARK    2  A    between atoms: C_2  and  S_3
REMARK    3  A    between atoms: S_3  and  C_4
REMARK    4  A    between atoms: C_4  and  S_26
REMARK    5  A    between atoms: C_5  and  C_24
REMARK    6  A    between atoms: C_11  and  C_18
REMARK    7  A    between atoms: C_13  and  C_16
REMARK    8  A    between atoms: S_26  and  C_27
REMARK    9  A    between atoms: C_27  and  C_28
REMARK                            x       y       z     vdW  Elec       q    Type
REMARK                         _______ _______ _______ _____ _____    ______ ____
ROOT
ATOM      1  C   UNL     1      -0.171   0.030  -0.089  0.00  0.00    +0.157 C 
ATOM      2  C   UNL     1      -1.640  -0.486  -0.092  0.00  0.00    +0.148 C 
ATOM      3  C   UNL     1      -1.593  -1.958   0.248  0.00  0.00    -0.029 C 
ATOM      4  C   UNL     1      -1.996  -2.927  -0.557  0.00  0.00    -0.011 C 
ATOM      5  C   UNL     1      -1.809  -4.280   0.079  0.00  0.00    +0.049 C 
ATOM      6  C   UNL     1      -1.614  -3.983   1.584  0.00  0.00    +0.010 C 
ATOM      7  C   UNL     1      -1.079  -2.534   1.548  0.00  0.00    +0.034 C 
ATOM      8  C   UNL     1      -2.995  -1.305  -2.075  0.00  0.00    +0.113 C 
ATOM      9  C   UNL     1      -1.958  -0.303  -1.595  0.00  0.00    +0.156 C 
ATOM     10  C   UNL     1      -0.622  -0.532  -2.263  0.00  0.00    +0.092 C 
ATOM     11  N   UNL     1      -0.454  -0.883  -3.577  0.00  0.00    -0.347 N 
ATOM     12  H   UNL     1      -1.227  -1.002  -4.150  0.00  0.00    +0.143 HD
ATOM     13  H   UNL     1       0.439  -1.012  -3.933  0.00  0.00    +0.143 HD
ATOM     14  N   UNL     1      -2.525  -2.709  -1.859  0.00  0.00    -0.401 NA
ATOM     15  H   UNL     1      -3.318  -3.346  -2.000  0.00  0.00    +0.124 HD
ATOM     16  H   UNL     1      -1.792  -2.919  -2.548  0.00  0.00    +0.124 HD
ATOM     17  N   UNL     1       0.354  -0.350  -1.420  0.00  0.00    -0.351 N 
ATOM     18  H   UNL     1       1.350  -0.457  -1.647  0.00  0.00    +0.163 HD
ENDROOT
BRANCH   8  19
ATOM     19  C   UNL     1      -4.289  -1.080  -1.336  0.00  0.00    -0.027 A 
ATOM     20  C   UNL     1      -4.451  -1.583  -0.059  0.00  0.00    +0.005 A 
ATOM     21  C   UNL     1      -5.636  -1.373   0.622  0.00  0.00    +0.000 A 
ATOM     22  C   UNL     1      -6.662  -0.667   0.021  0.00  0.00    +0.000 A 
ATOM     23  C   UNL     1      -6.502  -0.169  -1.258  0.00  0.00    +0.000 A 
ATOM     24  C   UNL     1      -5.315  -0.375  -1.937  0.00  0.00    +0.005 A 
ENDBRANCH   8  19
BRANCH   9  25
ATOM     25  C   UNL     1      -2.432   1.068  -1.844  0.00  0.00    +0.081 C 
ATOM     26  N   UNL     1      -2.797   2.127  -2.037  0.00  0.00    -0.195 NA
ENDBRANCH   9  25
BRANCH   2  27
ATOM     27  C   UNL     1      -2.531   0.290   0.786  0.00  0.00    +0.080 C 
ATOM     28  N   UNL     1      -3.218   0.889   1.463  0.00  0.00    -0.195 NA
ENDBRANCH   2  27
BRANCH   1  29
ATOM     29  S   UNL     1      -0.130   1.832   0.119  0.00  0.00    -0.121 S 
BRANCH  29  31
ATOM     30  C   UNL     1       1.810   3.760   0.135  0.00  0.00    +0.015 C 
ATOM     31  C   UNL     1       1.625   2.254  -0.063  0.00  0.00    +0.069 C 
ENDBRANCH  29  31
ENDBRANCH   1  29
BRANCH   1  32
ATOM     32  S   UNL     1       0.787  -0.783   1.220  0.00  0.00    -0.121 S 
BRANCH  32  33
ATOM     33  C   UNL     1       2.344  -1.235   0.407  0.00  0.00    +0.069 C 
ATOM     34  C   UNL     1       3.313  -1.807   1.444  0.00  0.00    +0.015 C 
ENDBRANCH  32  33
ENDBRANCH   1  32
TORSDOF 7
