REMARK  Name = ZINC64237187
REMARK  8 active torsions:
REMARK  status: ('A' for Active; 'I' for Inactive)
REMARK    1  A    between atoms: C_1  and  C_2
REMARK    2  A    between atoms: C_5  and  C_8
REMARK    3  A    between atoms: C_8  and  C_9
REMARK    4  A    between atoms: C_8  and  N_25
REMARK    5  A    between atoms: C_9  and  N_10
REMARK    6  A    between atoms: N_13  and  N_14
REMARK    7  A    between atoms: N_17  and  C_18
REMARK    8  A    between atoms: C_23  and  C_24
REMARK                            x       y       z     vdW  Elec       q    Type
REMARK                         _______ _______ _______ _____ _____    ______ ____
ROOT
ATOM      1  N   UNL     1      -2.381  -4.264  -0.843  0.00  0.00    -0.299 N 
ATOM      2  C   UNL     1      -3.711  -4.484  -0.871  0.00  0.00    +0.316 C 
ATOM      3  O   UNL     1      -4.243  -5.107   0.027  0.00  0.00    -0.251 OA
ATOM      4  N   UNL     1      -4.451  -4.013  -1.894  0.00  0.00    -0.217 N 
ATOM      5  H   UNL     1      -1.957  -3.767  -1.560  0.00  0.00    +0.150 HD
ATOM      6  H   UNL     1      -5.407  -4.171  -1.914  0.00  0.00    +0.174 HD
ENDROOT
BRANCH   4   7
ATOM      7  N   UNL     1      -3.838  -3.294  -2.929  0.00  0.00    -0.217 N 
ATOM      8  C   UNL     1      -4.577  -2.823  -3.953  0.00  0.00    +0.320 C 
ATOM      9  O   UNL     1      -4.045  -2.200  -4.851  0.00  0.00    -0.251 OA
ATOM     10  N   UNL     1      -5.907  -3.043  -3.980  0.00  0.00    -0.268 N 
ATOM     11  H   UNL     1      -2.881  -3.136  -2.909  0.00  0.00    +0.174 HD
ATOM     12  H   UNL     1      -6.318  -3.612  -3.312  0.00  0.00    +0.156 HD
BRANCH  10  13
ATOM     13  C   UNL     1      -6.694  -2.449  -4.974  0.00  0.00    +0.038 A 
ATOM     14  C   UNL     1      -6.268  -1.281  -5.593  0.00  0.00    +0.023 A 
ATOM     15  C   UNL     1      -7.047  -0.698  -6.573  0.00  0.00    +0.002 A 
ATOM     16  C   UNL     1      -8.250  -1.275  -6.937  0.00  0.00    +0.000 A 
ATOM     17  C   UNL     1      -8.677  -2.437  -6.322  0.00  0.00    +0.005 A 
ATOM     18  C   UNL     1      -7.899  -3.029  -5.346  0.00  0.00    -0.029 A 
ATOM     19  C   UNL     1      -8.361  -4.300  -4.681  0.00  0.00    +0.045 C 
ENDBRANCH  10  13
ENDBRANCH   4   7
BRANCH   1  20
ATOM     20  C   UNL     1      -1.577  -4.776   0.269  0.00  0.00    +0.095 C 
BRANCH  20  21
ATOM     21  C   UNL     1      -0.135  -4.286   0.124  0.00  0.00    -0.020 C 
BRANCH  21  26
ATOM     22  C   UNL     1      -0.041   1.489   0.284  0.00  0.00    +0.044 C 
ATOM     23  C   UNL     1      -0.065  -0.017   0.242  0.00  0.00    -0.050 A 
ATOM     24  C   UNL     1       0.001  -0.676  -0.971  0.00  0.00    +0.003 A 
ATOM     25  C   UNL     1      -0.021  -2.057  -1.009  0.00  0.00    +0.002 A 
ATOM     26  C   UNL     1      -0.110  -2.780   0.166  0.00  0.00    -0.059 A 
ATOM     27  C   UNL     1      -0.175  -2.121   1.379  0.00  0.00    +0.002 A 
ATOM     28  C   UNL     1      -0.149  -0.740   1.418  0.00  0.00    +0.003 A 
ENDBRANCH  21  26
BRANCH  21  29
ATOM     29  N   UNL     1       0.677  -4.821   1.225  0.00  0.00    +0.385 N 
ATOM     30  C   UNL     1       0.829  -6.291   1.083  0.00  0.00    -0.078 C 
ATOM     31  C   UNL     1       2.100  -6.598   1.914  0.00  0.00    -0.020 C 
ATOM     32  C   UNL     1       3.006  -5.380   1.624  0.00  0.00    -0.020 C 
ATOM     33  C   UNL     1       2.046  -4.266   1.165  0.00  0.00    -0.078 C 
ATOM     34  H   UNL     1       0.250  -4.598   2.112  0.00  0.00    -0.081 HD
ENDBRANCH  21  29
ENDBRANCH  20  21
ENDBRANCH   1  20
TORSDOF 6
