REMARK  Name = ZINC39404033
REMARK  1 active torsions:
REMARK  status: ('A' for Active; 'I' for Inactive)
REMARK    1  A    between atoms: C_12  and  C_15
REMARK                            x       y       z     vdW  Elec       q    Type
REMARK                         _______ _______ _______ _____ _____    ______ ____
ROOT
ATOM      1  C   UNL     1      -0.017   1.373   0.010  0.00  0.00    +0.002 A 
ATOM      2  C   UNL     1       1.170   2.091   0.002  0.00  0.00    +0.002 A 
ATOM      3  C   UNL     1       2.384   1.436  -0.012  0.00  0.00    +0.028 A 
ATOM      4  C   UNL     1       2.425   0.050  -0.019  0.00  0.00    +0.072 A 
ATOM      5  C   UNL     1       1.223  -0.684  -0.014  0.00  0.00    +0.091 A 
ATOM      6  C   UNL     1       0.002  -0.004   0.002  0.00  0.00    +0.030 A 
ATOM      7  N   UNL     1       1.550  -2.004  -0.030  0.00  0.00    -0.212 NA
ATOM      8  C   UNL     1       2.851  -2.135  -0.047  0.00  0.00    +0.213 A 
ATOM      9  N   UNL     1       3.601  -3.261  -0.065  0.00  0.00    -0.302 N 
ATOM     10  C   UNL     1       4.898  -3.149  -0.294  0.00  0.00    +0.160 C 
ATOM     11  N   UNL     1       5.473  -1.938  -0.571  0.00  0.00    -0.294 N 
ATOM     12  C   UNL     1       4.891  -0.704  -0.012  0.00  0.00    +0.212 C 
ATOM     13  N   UNL     1       3.434  -0.882  -0.029  0.00  0.00    -0.286 N 
ATOM     14  N   UNL     1       5.684  -4.269  -0.253  0.00  0.00    -0.332 N 
ATOM     15  H   UNL     1       5.289  -5.132  -0.058  0.00  0.00    +0.145 HD
ATOM     16  H   UNL     1       6.638  -4.198  -0.420  0.00  0.00    +0.145 HD
ATOM     17  H   UNL     1       6.261  -1.891  -1.135  0.00  0.00    +0.151 HD
ATOM     18  H   UNL     1       3.197  -4.130   0.086  0.00  0.00    +0.171 HD
ENDROOT
BRANCH  12  19
ATOM     19  C   UNL     1       5.372  -0.501   1.401  0.00  0.00    +0.031 A 
ATOM     20  C   UNL     1       5.881  -1.568   2.117  0.00  0.00    +0.013 A 
ATOM     21  C   UNL     1       6.323  -1.384   3.414  0.00  0.00    +0.042 A 
ATOM     22  C   UNL     1       6.256  -0.131   3.998  0.00  0.00    +0.161 A 
ATOM     23  C   UNL     1       5.746   0.940   3.282  0.00  0.00    +0.194 A 
ATOM     24  C   UNL     1       5.308   0.755   1.980  0.00  0.00    +0.168 A 
ATOM     25  F   UNL     1       4.816   1.799   1.277  0.00  0.00    -0.202 F 
ATOM     26  F   UNL     1       5.679   2.164   3.851  0.00  0.00    -0.199 F 
ATOM     27  F   UNL     1       6.688   0.048   5.266  0.00  0.00    -0.202 F 
ENDBRANCH  12  19
TORSDOF 1
