REMARK  Name = ZINC23466155
REMARK  7 active torsions:
REMARK  status: ('A' for Active; 'I' for Inactive)
REMARK    1  A    between atoms: C_1  and  C_2
REMARK    2  A    between atoms: C_2  and  C_3
REMARK    3  A    between atoms: C_2  and  C_4
REMARK    4  A    between atoms: C_2  and  N_30
REMARK    5  A    between atoms: N_6  and  C_9
REMARK    6  A    between atoms: C_9  and  C_10
REMARK    7  A    between atoms: N_19  and  C_20
REMARK                            x       y       z     vdW  Elec       q    Type
REMARK                         _______ _______ _______ _____ _____    ______ ____
ROOT
ATOM      1  C   UNL     1      -0.035   7.170   0.392  0.00  0.00    +0.028 C 
ATOM      2  C   UNL     1      -0.286   8.357   1.324  0.00  0.00    +0.008 C 
ATOM      3  C   UNL     1       0.978   9.217   1.409  0.00  0.00    +0.019 C 
ATOM      4  C   UNL     1       1.318   9.758   0.016  0.00  0.00    +0.109 C 
ATOM      5  N   UNL     1       1.418   8.628  -0.918  0.00  0.00    -0.285 N 
ATOM      6  C   UNL     1       0.293   7.687  -1.012  0.00  0.00    +0.114 C 
ATOM      7  C   UNL     1       2.520   8.458  -1.674  0.00  0.00    +0.303 C 
ATOM      8  O   UNL     1       2.632   7.469  -2.372  0.00  0.00    -0.253 OA
ATOM      9  N   UNL     1       3.499   9.384  -1.657  0.00  0.00    -0.294 N 
ATOM     10  H   UNL     1       3.436  10.238  -0.966  0.00  0.00    +0.151 HD
ENDROOT
BRANCH   9  11
ATOM     11  C   UNL     1       4.647   9.255  -2.558  0.00  0.00    +0.037 C 
ATOM     12  C   UNL     1       5.376   7.941  -2.269  0.00  0.00    +0.029 C 
ATOM     13  C   UNL     1       6.575   7.806  -3.210  0.00  0.00    -0.008 C 
ATOM     14  C   UNL     1       7.532   8.979  -2.990  0.00  0.00    +0.007 C 
ATOM     15  C   UNL     1       6.802  10.293  -3.279  0.00  0.00    -0.008 C 
ATOM     16  C   UNL     1       5.604  10.428  -2.337  0.00  0.00    +0.029 C 
ATOM     17  C   UNL     1       6.315  10.298  -4.729  0.00  0.00    +0.007 C 
ATOM     18  C   UNL     1       5.358   9.124  -4.949  0.00  0.00    -0.008 C 
ATOM     19  C   UNL     1       6.088   7.810  -4.660  0.00  0.00    +0.007 C 
ATOM     20  C   UNL     1       4.160   9.259  -4.008  0.00  0.00    +0.029 C 
ENDBRANCH   9  11
BRANCH   1  21
ATOM     21  C   UNL     1      -1.288   6.294   0.333  0.00  0.00    +0.150 C 
BRANCH  21  24
ATOM     22  C   UNL     1      -0.805   3.038  -1.100  0.00  0.00    +0.071 A 
ATOM     23  C   UNL     1      -1.181   3.817  -0.059  0.00  0.00    +0.132 A 
ATOM     24  N   UNL     1      -1.010   5.097  -0.464  0.00  0.00    -0.251 N 
ATOM     25  N   UNL     1      -0.561   5.081  -1.670  0.00  0.00    -0.065 NA
ATOM     26  N   UNL     1      -0.422   3.869  -2.076  0.00  0.00    -0.136 NA
BRANCH  22  28
ATOM     27  C   UNL     1      -0.193   1.061  -2.466  0.00  0.00    -0.004 C 
ATOM     28  C   UNL     1      -0.811   1.532  -1.148  0.00  0.00    -0.030 C 
ATOM     29  C   UNL     1      -2.251   1.024  -1.050  0.00  0.00    -0.004 C 
BRANCH  28  30
ATOM     30  N   UNL     1      -0.028   1.003  -0.023  0.00  0.00    +0.385 N 
ATOM     31  H   UNL     1      -0.472   1.342   0.924  0.00  0.00    -0.089 HD
ATOM     32  H   UNL     1       1.008   1.369  -0.094  0.00  0.00    -0.089 HD
ATOM     33  H   UNL     1      -0.032  -0.096  -0.058  0.00  0.00    -0.089 HD
ENDBRANCH  28  30
ENDBRANCH  22  28
ENDBRANCH  21  24
ENDBRANCH   1  21
TORSDOF 5
