REMARK  Name = ZINC39479093
REMARK  4 active torsions:
REMARK  status: ('A' for Active; 'I' for Inactive)
REMARK    1  A    between atoms: C_4  and  N_7
REMARK    2  A    between atoms: C_10  and  N_16
REMARK    3  A    between atoms: C_12  and  O_15
REMARK    4  A    between atoms: C_19  and  O_22
REMARK                            x       y       z     vdW  Elec       q    Type
REMARK                         _______ _______ _______ _____ _____    ______ ____
ROOT
ATOM      1  N   UNL     1       2.841  -0.442  -2.476  0.00  0.00    +0.383 N 
ATOM      2  C   UNL     1       2.853  -1.909  -2.487  0.00  0.00    -0.077 C 
ATOM      3  C   UNL     1       3.496  -2.409  -3.783  0.00  0.00    +0.003 C 
ATOM      4  C   UNL     1       4.932  -1.885  -3.868  0.00  0.00    +0.082 C 
ATOM      5  C   UNL     1       4.914  -0.356  -3.781  0.00  0.00    +0.115 C 
ATOM      6  C   UNL     1       4.218   0.067  -2.485  0.00  0.00    -0.045 C 
ATOM      7  H   UNL     1       2.354  -0.105  -3.293  0.00  0.00    -0.081 HD
ENDROOT
BRANCH   1  11
ATOM      8  C   UNL     1      -0.019   1.526   0.010  0.00  0.00    -0.000 C 
ATOM      9  C   UNL     1       1.417   2.055  -0.000  0.00  0.00    -0.002 C 
ATOM     10  C   UNL     1       2.133   1.562  -1.259  0.00  0.00    -0.015 C 
ATOM     11  C   UNL     1       2.154   0.032  -1.268  0.00  0.00    -0.068 C 
ATOM     12  C   UNL     1       0.718  -0.497  -1.257  0.00  0.00    -0.015 C 
ATOM     13  C   UNL     1       0.002  -0.004   0.002  0.00  0.00    -0.002 C 
ENDBRANCH   1  11
BRANCH   4  14
ATOM     14  N   UNL     1       5.531  -2.298  -5.144  0.00  0.00    -0.297 NA
ATOM     15  C   UNL     1       4.757  -1.781  -6.281  0.00  0.00    +0.087 C 
ATOM     16  C   UNL     1       5.487  -2.106  -7.586  0.00  0.00    +0.046 C 
ATOM     17  C   UNL     1       5.655  -3.623  -7.707  0.00  0.00    +0.117 C 
ATOM     18  C   UNL     1       6.421  -4.143  -6.488  0.00  0.00    +0.046 C 
ATOM     19  C   UNL     1       5.665  -3.759  -5.214  0.00  0.00    +0.087 C 
BRANCH  17  20
ATOM     20  O   UNL     1       6.386  -3.929  -8.896  0.00  0.00    -0.392 OA
ATOM     21  H   UNL     1       6.529  -4.875  -9.037  0.00  0.00    +0.210 HD
ENDBRANCH  17  20
ENDBRANCH   4  14
BRANCH   5  22
ATOM     22  O   UNL     1       6.254   0.139  -3.787  0.00  0.00    -0.392 OA
ATOM     23  H   UNL     1       6.318   1.102  -3.734  0.00  0.00    +0.210 HD
ENDBRANCH   5  22
TORSDOF 4
