REMARK  Name = ZINC63480000
REMARK  6 active torsions:
REMARK  status: ('A' for Active; 'I' for Inactive)
REMARK    1  A    between atoms: C_1  and  C_2
REMARK    2  A    between atoms: C_16  and  C_19
REMARK    3  A    between atoms: C_19  and  C_20
REMARK    4  A    between atoms: N_31  and  C_34
REMARK    5  A    between atoms: C_38  and  O_40
REMARK    6  A    between atoms: O_40  and  C_41
REMARK                            x       y       z     vdW  Elec       q    Type
REMARK                         _______ _______ _______ _____ _____    ______ ____
ROOT
ATOM      1  C   UNL     1      -0.992   0.861  -0.592  0.00  0.00    +0.045 C 
ATOM      2  C   UNL     1      -0.726  -0.613  -0.421  0.00  0.00    -0.029 A 
ATOM      3  C   UNL     1      -0.641  -1.429  -1.530  0.00  0.00    +0.005 A 
ATOM      4  C   UNL     1      -0.398  -2.782  -1.384  0.00  0.00    +0.001 A 
ATOM      5  C   UNL     1      -0.239  -3.321  -0.119  0.00  0.00    +0.008 A 
ATOM      6  C   UNL     1      -0.323  -2.510   0.990  0.00  0.00    +0.004 A 
ATOM      7  C   UNL     1      -0.562  -1.145   0.855  0.00  0.00    +0.042 A 
ATOM      8  N   UNL     1      -0.597  -0.534   2.110  0.00  0.00    -0.283 N 
ATOM      9  C   UNL     1      -0.389  -1.413   3.109  0.00  0.00    +0.243 C 
ATOM     10  O   UNL     1      -0.364  -1.167   4.296  0.00  0.00    -0.273 OA
ATOM     11  C   UNL     1      -0.204  -2.761   2.467  0.00  0.00    +0.136 C 
ATOM     12  C   UNL     1       1.158  -3.362   2.830  0.00  0.00    +0.123 C 
ATOM     13  C   UNL     1       0.892  -4.889   2.955  0.00  0.00    +0.107 C 
ATOM     14  C   UNL     1      -0.611  -5.054   2.647  0.00  0.00    +0.072 C 
ATOM     15  N   UNL     1      -1.212  -3.732   2.932  0.00  0.00    -0.295 NA
ATOM     16  C   UNL     1       1.712  -5.479   1.830  0.00  0.00    +0.232 C 
ATOM     17  O   UNL     1       1.793  -6.659   1.566  0.00  0.00    -0.274 OA
ATOM     18  N   UNL     1       2.334  -4.495   1.170  0.00  0.00    -0.210 N 
ATOM     19  C   UNL     1       2.098  -3.253   1.650  0.00  0.00    +0.233 C 
ATOM     20  O   UNL     1       2.556  -2.219   1.213  0.00  0.00    -0.274 OA
ATOM     21  H   UNL     1      -0.753   0.414   2.247  0.00  0.00    +0.155 HD
ATOM     22  H   UNL     1      -1.384  -3.629   3.921  0.00  0.00    +0.124 HD
ENDROOT
BRANCH  18  23
ATOM     23  C   UNL     1       3.171  -4.731   0.070  0.00  0.00    +0.047 A 
ATOM     24  C   UNL     1       4.533  -4.481   0.166  0.00  0.00    +0.024 A 
ATOM     25  C   UNL     1       5.358  -4.713  -0.917  0.00  0.00    +0.005 A 
ATOM     26  C   UNL     1       4.829  -5.194  -2.100  0.00  0.00    +0.046 A 
ATOM     27  C   UNL     1       3.468  -5.446  -2.203  0.00  0.00    +0.122 A 
ATOM     28  C   UNL     1       2.639  -5.219  -1.115  0.00  0.00    +0.069 A 
BRANCH  27  29
ATOM     29  O   UNL     1       2.950  -5.918  -3.366  0.00  0.00    -0.495 OA
ATOM     30  C   UNL     1       3.864  -6.134  -4.444  0.00  0.00    +0.277 C 
ENDBRANCH  27  29
ENDBRANCH  18  23
BRANCH  14  31
ATOM     31  C   UNL     1      -1.221  -6.139   3.537  0.00  0.00    +0.052 C 
BRANCH  31  32
ATOM     32  C   UNL     1      -2.655  -6.370   3.137  0.00  0.00    -0.040 C 
ATOM     33  C   UNL     1      -3.121  -7.317   2.291  0.00  0.00    -0.001 A 
ATOM     34  C   UNL     1      -2.457  -8.374   1.519  0.00  0.00    +0.010 A 
ATOM     35  C   UNL     1      -3.207  -9.188   0.741  0.00  0.00    +0.001 A 
ATOM     36  C   UNL     1      -4.598  -9.046   0.653  0.00  0.00    +0.002 A 
ATOM     37  C   UNL     1      -5.279  -8.099   1.332  0.00  0.00    +0.026 A 
ATOM     38  C   UNL     1      -4.592  -7.189   2.181  0.00  0.00    +0.043 A 
ATOM     39  N   UNL     1      -5.018  -6.201   2.930  0.00  0.00    -0.380 N 
ATOM     40  C   UNL     1      -3.866  -5.594   3.605  0.00  0.00    +0.144 C 
ATOM     41  H   UNL     1      -5.942  -5.921   3.025  0.00  0.00    +0.160 HD
ENDBRANCH  31  32
ENDBRANCH  14  31
TORSDOF 4
