REMARK  Name = ZINC43261357
REMARK  10 active torsions:
REMARK  status: ('A' for Active; 'I' for Inactive)
REMARK    1  A    between atoms: C_1  and  C_2
REMARK    2  A    between atoms: C_2  and  C_3
REMARK    3  A    between atoms: C_3  and  C_5
REMARK    4  A    between atoms: C_3  and  N_23
REMARK    5  A    between atoms: C_5  and  C_7
REMARK    6  A    between atoms: C_5  and  N_13
REMARK    7  A    between atoms: N_13  and  C_14
REMARK    8  A    between atoms: N_13  and  C_15
REMARK    9  A    between atoms: C_15  and  C_16
REMARK   10  A    between atoms: C_20  and  C_22
REMARK                            x       y       z     vdW  Elec       q    Type
REMARK                         _______ _______ _______ _____ _____    ______ ____
ROOT
ATOM      1  C   UNL     1       0.631  -2.012   1.187  0.00  0.00    -0.014 C 
ENDROOT
BRANCH   1   2
ATOM      2  C   UNL     1       1.253  -2.535   2.456  0.00  0.00    -0.021 A 
ATOM      3  C   UNL     1       2.491  -3.051   2.649  0.00  0.00    +0.011 A 
ATOM      4  C   UNL     1       2.851  -3.473   3.916  0.00  0.00    +0.023 A 
ATOM      5  C   UNL     1       1.954  -3.358   4.926  0.00  0.00    +0.055 A 
ATOM      6  S   UNL     1       0.553  -2.628   4.096  0.00  0.00    -0.088 S 
ATOM      7 BR   UNL     1       2.142  -3.840   6.745  0.00  0.00    -0.043 Br
ENDBRANCH   1   2
BRANCH   1   8
ATOM      8  N   UNL     1      -0.777  -2.428   1.124  0.00  0.00    +0.386 N 
ATOM      9  C   UNL     1      -1.376  -1.942  -0.126  0.00  0.00    -0.095 C 
ATOM     10  H   UNL     1      -1.277  -2.041   1.909  0.00  0.00    -0.081 HD
BRANCH   8  11
ATOM     11  C   UNL     1      -0.856  -3.895   1.167  0.00  0.00    -0.042 C 
BRANCH  11  12
ATOM     12  C   UNL     1      -2.301  -4.318   1.226  0.00  0.00    -0.064 A 
ATOM     13  C   UNL     1      -2.926  -4.474   2.450  0.00  0.00    +0.002 A 
ATOM     14  C   UNL     1      -4.252  -4.862   2.504  0.00  0.00    +0.000 A 
ATOM     15  C   UNL     1      -4.952  -5.094   1.335  0.00  0.00    +0.003 A 
ATOM     16  C   UNL     1      -4.328  -4.938   0.112  0.00  0.00    -0.050 A 
ATOM     17  C   UNL     1      -3.003  -4.545   0.058  0.00  0.00    +0.005 A 
ATOM     18  C   UNL     1      -5.091  -5.192  -1.162  0.00  0.00    +0.044 C 
ENDBRANCH  11  12
ENDBRANCH   8  11
ENDBRANCH   1   8
BRANCH   1  19
ATOM     19  C   UNL     1       0.712  -0.484   1.171  0.00  0.00    +0.042 C 
BRANCH  19  20
ATOM     20  N   UNL     1       0.069   0.053   2.378  0.00  0.00    -0.328 NA
ATOM     21  H   UNL     1      -0.916  -0.165   2.390  0.00  0.00    +0.118 HD
ATOM     22  H   UNL     1       0.525  -0.287   3.212  0.00  0.00    +0.118 HD
ENDBRANCH  19  20
BRANCH  19  24
ATOM     23  C   UNL     1       2.259   1.467   0.974  0.00  0.00    +0.005 C 
ATOM     24  C   UNL     1       2.179  -0.052   1.139  0.00  0.00    +0.014 C 
ENDBRANCH  19  24
ENDBRANCH   1  19
TORSDOF 7
