REMARK  Name = ZINC40683566
REMARK  12 active torsions:
REMARK  status: ('A' for Active; 'I' for Inactive)
REMARK    1  A    between atoms: C_1  and  C_2
REMARK    2  A    between atoms: C_2  and  N_3
REMARK    3  A    between atoms: N_3  and  C_4
REMARK    4  A    between atoms: C_15  and  N_33
REMARK    5  A    between atoms: C_16  and  N_20
REMARK    6  A    between atoms: N_20  and  C_21
REMARK    7  A    between atoms: C_21  and  C_22
REMARK    8  A    between atoms: C_22  and  C_23
REMARK    9  A    between atoms: C_26  and  O_31
REMARK   10  A    between atoms: C_27  and  O_29
REMARK   11  A    between atoms: O_29  and  C_30
REMARK   12  A    between atoms: O_31  and  C_32
REMARK                            x       y       z     vdW  Elec       q    Type
REMARK                         _______ _______ _______ _____ _____    ______ ____
ROOT
ATOM      1  N   UNL     1       0.670  -0.555  -1.178  0.00  0.00    -0.285 N 
ATOM      2  C   UNL     1      -0.130  -0.723  -2.302  0.00  0.00    +0.129 A 
ATOM      3  C   UNL     1      -1.486  -0.391  -2.263  0.00  0.00    +0.104 A 
ATOM      4  C   UNL     1      -2.244  -0.579  -3.420  0.00  0.00    +0.145 A 
ATOM      5  N   UNL     1      -1.651  -1.065  -4.507  0.00  0.00    -0.221 NA
ATOM      6  C   UNL     1      -0.368  -1.367  -4.502  0.00  0.00    +0.200 A 
ATOM      7  N   UNL     1       0.385  -1.199  -3.433  0.00  0.00    -0.332 N 
ATOM      8  H   UNL     1       1.326  -1.429  -3.471  0.00  0.00    +0.168 HD
ENDROOT
BRANCH   1   9
ATOM      9  C   UNL     1       0.911  -1.632  -0.326  0.00  0.00    +0.043 A 
ATOM     10  C   UNL     1       0.067  -1.881   0.737  0.00  0.00    +0.024 A 
ATOM     11  C   UNL     1       0.298  -2.953   1.593  0.00  0.00    +0.002 A 
ATOM     12  C   UNL     1       1.360  -3.785   1.407  0.00  0.00    +0.008 A 
ATOM     13  C   UNL     1       2.244  -3.567   0.336  0.00  0.00    -0.016 A 
ATOM     14  C   UNL     1       2.016  -2.482  -0.546  0.00  0.00    +0.003 A 
ATOM     15  C   UNL     1       2.897  -2.268  -1.618  0.00  0.00    +0.010 A 
ATOM     16  C   UNL     1       3.953  -3.108  -1.799  0.00  0.00    +0.001 A 
ATOM     17  C   UNL     1       4.175  -4.179  -0.936  0.00  0.00    +0.001 A 
ATOM     18  C   UNL     1       3.348  -4.409   0.121  0.00  0.00    +0.008 A 
ENDBRANCH   1   9
BRANCH   3  19
ATOM     19  N   UNL     1      -2.070   0.119  -1.092  0.00  0.00    -0.353 N 
ATOM     20  H   UNL     1      -1.514   0.340  -0.329  0.00  0.00    +0.143 HD
ATOM     21  H   UNL     1      -3.030   0.250  -1.047  0.00  0.00    +0.143 HD
ENDBRANCH   3  19
BRANCH   1  23
ATOM     22  C   UNL     1       2.646   0.842  -1.534  0.00  0.00    +0.025 C 
ATOM     23  C   UNL     1       1.262   0.753  -0.888  0.00  0.00    +0.109 C 
ENDBRANCH   1  23
BRANCH   4  24
ATOM     24  N   UNL     1      -3.598  -0.265  -3.435  0.00  0.00    -0.327 N 
ATOM     25  H   UNL     1      -4.023   0.089  -2.638  0.00  0.00    +0.148 HD
BRANCH  24  26
ATOM     26  C   UNL     1      -4.383  -0.467  -4.655  0.00  0.00    +0.107 C 
BRANCH  26  27
ATOM     27  C   UNL     1      -5.832  -0.045  -4.405  0.00  0.00    +0.054 C 
BRANCH  27  28
ATOM     28  C   UNL     1      -6.640  -0.253  -5.660  0.00  0.00    -0.042 A 
ATOM     29  C   UNL     1      -6.742   0.764  -6.591  0.00  0.00    +0.007 A 
ATOM     30  C   UNL     1      -7.482   0.578  -7.744  0.00  0.00    +0.049 A 
ATOM     31  C   UNL     1      -8.123  -0.630  -7.969  0.00  0.00    +0.161 A 
ATOM     32  C   UNL     1      -8.019  -1.654  -7.032  0.00  0.00    +0.162 A 
ATOM     33  C   UNL     1      -7.272  -1.462  -5.881  0.00  0.00    +0.053 A 
BRANCH  32  34
ATOM     34  O   UNL     1      -8.647  -2.841  -7.248  0.00  0.00    -0.491 OA
ATOM     35  C   UNL     1      -8.497  -3.846  -6.243  0.00  0.00    +0.277 C 
ENDBRANCH  32  34
BRANCH  31  36
ATOM     36  O   UNL     1      -8.851  -0.814  -9.102  0.00  0.00    -0.491 OA
ATOM     37  C   UNL     1      -8.913   0.280 -10.019  0.00  0.00    +0.277 C 
ENDBRANCH  31  36
ENDBRANCH  27  28
ENDBRANCH  26  27
ENDBRANCH  24  26
ENDBRANCH   4  24
TORSDOF 9
