REMARK  Name = ZINC67006194
REMARK  11 active torsions:
REMARK  status: ('A' for Active; 'I' for Inactive)
REMARK    1  A    between atoms: C_1  and  C_2
REMARK    2  A    between atoms: C_2  and  N_3
REMARK    3  A    between atoms: C_4  and  C_6
REMARK    4  A    between atoms: C_8  and  N_12
REMARK    5  A    between atoms: N_12  and  C_13
REMARK    6  A    between atoms: C_13  and  C_14
REMARK    7  A    between atoms: C_14  and  C_15
REMARK    8  A    between atoms: C_14  and  C_16
REMARK    9  A    between atoms: C_14  and  N_17
REMARK   10  A    between atoms: N_17  and  S_18
REMARK   11  A    between atoms: S_18  and  C_21
REMARK                            x       y       z     vdW  Elec       q    Type
REMARK                         _______ _______ _______ _____ _____    ______ ____
ROOT
ATOM      1  C   UNL     1      -2.815  -2.255   0.255  0.00  0.00    +0.103 A 
ATOM      2  C   UNL     1      -3.026  -3.629   0.266  0.00  0.00    +0.053 A 
ATOM      3  C   UNL     1      -4.317  -4.115   0.061  0.00  0.00    +0.031 A 
ATOM      4  C   UNL     1      -5.345  -3.196  -0.146  0.00  0.00    +0.040 A 
ATOM      5  C   UNL     1      -5.054  -1.845  -0.142  0.00  0.00    +0.085 A 
ATOM      6  N   UNL     1      -3.826  -1.416   0.058  0.00  0.00    -0.357 N 
ATOM      7  H   UNL     1      -3.654  -0.461   0.059  0.00  0.00    +0.165 HD
ENDROOT
BRANCH   1   9
ATOM      8  N   UNL     1      -1.238  -0.389   0.467  0.00  0.00    -0.310 N 
ATOM      9  C   UNL     1      -1.450  -1.720   0.471  0.00  0.00    +0.260 C 
ATOM     10  O   UNL     1      -0.520  -2.482   0.651  0.00  0.00    -0.269 OA
ATOM     11  H   UNL     1      -1.980   0.219   0.323  0.00  0.00    +0.149 HD
BRANCH   8  13
ATOM     12  C   UNL     1       0.074   1.668   0.629  0.00  0.00    +0.024 C 
ATOM     13  C   UNL     1       0.111   0.139   0.680  0.00  0.00    +0.101 C 
ENDBRANCH   8  13
ENDBRANCH   1   9
BRANCH   3  14
ATOM     14  N   UNL     1      -4.572  -5.483   0.064  0.00  0.00    -0.342 N 
ATOM     15  H   UNL     1      -3.848  -6.112   0.209  0.00  0.00    +0.146 HD
BRANCH  14  16
ATOM     16  C   UNL     1      -5.936  -5.974  -0.153  0.00  0.00    +0.124 C 
BRANCH  16  17
ATOM     17  C   UNL     1      -5.941  -7.503  -0.102  0.00  0.00    +0.049 C 
ATOM     18  C   UNL     1      -7.365  -8.016  -0.328  0.00  0.00    +0.030 C 
ATOM     19  C   UNL     1      -5.022  -8.053  -1.194  0.00  0.00    +0.030 C 
BRANCH  17  20
ATOM     20  N   UNL     1      -5.464  -7.950   1.209  0.00  0.00    -0.188 NA
ATOM     21  H   UNL     1      -4.911  -7.364   1.749  0.00  0.00    +0.148 HD
BRANCH  20  22
ATOM     22  S   UNL     1      -5.868  -9.455   1.769  0.00  0.00    +0.027 S 
ATOM     23  O   UNL     1      -5.172  -9.583   3.001  0.00  0.00    -0.158 OA
ATOM     24  O   UNL     1      -7.289  -9.486   1.732  0.00  0.00    -0.158 OA
ATOM     25  C   UNL     1      -5.187 -10.607   0.544  0.00  0.00    +0.214 C 
ENDBRANCH  20  22
ENDBRANCH  17  20
ENDBRANCH  16  17
ENDBRANCH  14  16
ENDBRANCH   3  14
TORSDOF 7
