REMARK  Name = ZINC23232249
REMARK  3 active torsions:
REMARK  status: ('A' for Active; 'I' for Inactive)
REMARK    1  A    between atoms: C_6  and  C_7
REMARK    2  A    between atoms: C_7  and  C_8
REMARK    3  A    between atoms: C_16  and  C_18
REMARK                            x       y       z     vdW  Elec       q    Type
REMARK                         _______ _______ _______ _____ _____    ______ ____
ROOT
ATOM      1  C   UNL     1      -1.740  -1.022  -1.407  0.00  0.00    +0.027 A 
ATOM      2  C   UNL     1      -1.433  -2.188  -2.018  0.00  0.00    +0.093 A 
ATOM      3  C   UNL     1      -1.852  -2.417  -3.344  0.00  0.00    +0.275 A 
ATOM      4  O   UNL     1      -1.578  -3.467  -3.899  0.00  0.00    -0.266 OA
ATOM      5  N   UNL     1      -2.558  -1.473  -3.996  0.00  0.00    -0.180 N 
ATOM      6  C   UNL     1      -2.865  -0.298  -3.373  0.00  0.00    +0.138 A 
ATOM      7  N   UNL     1      -2.459  -0.074  -2.071  0.00  0.00    -0.343 N 
ATOM      8  C   UNL     1      -3.574   0.459  -4.257  0.00  0.00    +0.071 A 
ATOM      9  C   UNL     1      -3.701  -0.271  -5.440  0.00  0.00    +0.069 A 
ATOM     10  N   UNL     1      -3.096  -1.423  -5.288  0.00  0.00    -0.167 NA
ATOM     11  H   UNL     1      -2.682   0.761  -1.631  0.00  0.00    +0.167 HD
ENDROOT
BRANCH   9  12
ATOM     12  C   UNL     1      -4.415   0.190  -6.685  0.00  0.00    +0.040 C 
ATOM     13  C   UNL     1      -4.761   1.688  -6.678  0.00  0.00    +0.010 C 
ATOM     14  C   UNL     1      -6.105   1.300  -7.318  0.00  0.00    +0.001 C 
ATOM     15  C   UNL     1      -5.928  -0.081  -6.663  0.00  0.00    +0.010 C 
ENDBRANCH   9  12
BRANCH   1  16
ATOM     16  C   UNL     1      -1.294  -0.773   0.011  0.00  0.00    +0.088 C 
BRANCH  16  22
ATOM     17  C   UNL     1      -0.017   1.378   0.010  0.00  0.00    +0.008 A 
ATOM     18  C   UNL     1       1.169   2.091   0.002  0.00  0.00    +0.048 A 
ATOM     19  C   UNL     1       2.378   1.419  -0.013  0.00  0.00    +0.142 A 
ATOM     20  C   UNL     1       2.397   0.025  -0.021  0.00  0.00    +0.076 A 
ATOM     21  C   UNL     1       1.207  -0.684  -0.013  0.00  0.00    +0.031 A 
ATOM     22  C   UNL     1       0.002  -0.004   0.002  0.00  0.00    -0.040 A 
ATOM     23  N   UNL     1       3.629  -0.644  -0.038  0.00  0.00    -0.280 N 
ATOM     24  C   UNL     1       4.751   0.043   0.269  0.00  0.00    +0.255 C 
ATOM     25  O   UNL     1       5.831  -0.507   0.231  0.00  0.00    -0.272 OA
ATOM     26  C   UNL     1       4.655   1.496   0.659  0.00  0.00    +0.325 C 
ATOM     27  O   UNL     1       3.552   2.104  -0.020  0.00  0.00    -0.481 OA
ATOM     28  H   UNL     1       3.675  -1.586  -0.267  0.00  0.00    +0.155 HD
ENDBRANCH  16  22
ENDBRANCH   1  16
TORSDOF 3
