REMARK  Name = ZINC38546969
REMARK  8 active torsions:
REMARK  status: ('A' for Active; 'I' for Inactive)
REMARK    1  A    between atoms: C_1  and  C_2
REMARK    2  A    between atoms: C_6  and  N_8
REMARK    3  A    between atoms: N_8  and  C_9
REMARK    4  A    between atoms: C_9  and  C_11
REMARK    5  A    between atoms: C_9  and  C_18
REMARK    6  A    between atoms: C_20  and  C_31
REMARK    7  A    between atoms: C_22  and  N_23
REMARK    8  A    between atoms: C_24  and  C_26
REMARK                            x       y       z     vdW  Elec       q    Type
REMARK                         _______ _______ _______ _____ _____    ______ ____
ROOT
ATOM      1  C   UNL     1       0.069  -4.101   2.466  0.00  0.00    +0.135 C 
ENDROOT
BRANCH   1   2
ATOM      2  C   UNL     1       1.553  -4.332   2.347  0.00  0.00    -0.023 A 
ATOM      3  C   UNL     1       2.439  -3.443   2.928  0.00  0.00    +0.008 A 
ATOM      4  C   UNL     1       3.800  -3.654   2.820  0.00  0.00    +0.038 A 
ATOM      5  C   UNL     1       4.277  -4.756   2.131  0.00  0.00    +0.123 A 
ATOM      6  C   UNL     1       3.389  -5.645   1.550  0.00  0.00    +0.038 A 
ATOM      7  C   UNL     1       2.028  -5.435   1.663  0.00  0.00    +0.008 A 
ATOM      8  F   UNL     1       5.608  -4.963   2.025  0.00  0.00    -0.205 F 
ENDBRANCH   1   2
BRANCH   1   9
ATOM      9  C   UNL     1      -0.405  -4.562   3.820  0.00  0.00    +0.006 A 
ATOM     10  C   UNL     1      -0.481  -3.675   4.879  0.00  0.00    +0.018 A 
ATOM     11  C   UNL     1      -0.911  -4.123   6.083  0.00  0.00    -0.011 A 
ATOM     12  S   UNL     1      -1.229  -5.847   5.748  0.00  0.00    -0.078 S 
ATOM     13  C   UNL     1      -0.772  -5.858   4.022  0.00  0.00    +0.078 A 
ATOM     14  C   UNL     1      -1.078  -3.361   7.372  0.00  0.00    +0.051 C 
BRANCH  13  15
ATOM     15  N   UNL     1      -0.786  -6.920   3.115  0.00  0.00    -0.273 N 
ATOM     16  C   UNL     1      -1.188  -8.143   3.516  0.00  0.00    +0.284 C 
ATOM     17  O   UNL     1      -1.540  -8.321   4.667  0.00  0.00    -0.266 OA
ATOM     18  H   UNL     1      -0.505  -6.778   2.198  0.00  0.00    +0.156 HD
BRANCH  16  19
ATOM     19  C   UNL     1      -1.202  -9.258   2.564  0.00  0.00    +0.189 A 
ATOM     20  C   UNL     1      -1.589 -10.539   2.834  0.00  0.00    +0.054 A 
ATOM     21  C   UNL     1      -1.443 -11.265   1.642  0.00  0.00    +0.042 A 
ATOM     22  C   UNL     1      -0.979 -10.406   0.708  0.00  0.00    +0.196 A 
ATOM     23  O   UNL     1      -0.840  -9.197   1.266  0.00  0.00    -0.458 OA
ENDBRANCH  16  19
ENDBRANCH  13  15
ENDBRANCH   1   9
BRANCH   1  24
ATOM     24  N   UNL     1      -0.218  -2.673   2.308  0.00  0.00    -0.320 N 
ATOM     25  H   UNL     1      -0.308  -2.107   3.091  0.00  0.00    +0.148 HD
BRANCH  24  31
ATOM     26  C   UNL     1      -1.054   1.194  -0.387  0.00  0.00    +0.063 C 
ATOM     27  C   UNL     1      -0.760  -0.280  -0.286  0.00  0.00    +0.014 A 
ATOM     28  C   UNL     1      -0.642  -1.031  -1.438  0.00  0.00    +0.021 A 
ATOM     29  C   UNL     1      -0.371  -2.389  -1.340  0.00  0.00    +0.005 A 
ATOM     30  C   UNL     1      -0.228  -2.945  -0.081  0.00  0.00    +0.041 A 
ATOM     31  C   UNL     1      -0.359  -2.128   1.037  0.00  0.00    +0.097 A 
ATOM     32  N   UNL     1      -0.613  -0.835   0.902  0.00  0.00    -0.347 N 
ATOM     33  H   UNL     1      -0.696  -0.284   1.695  0.00  0.00    +0.167 HD
ENDBRANCH  24  31
ENDBRANCH   1  24
TORSDOF 6
