REMARK  Name = ZINC25864403
REMARK  10 active torsions:
REMARK  status: ('A' for Active; 'I' for Inactive)
REMARK    1  A    between atoms: C_1  and  C_2
REMARK    2  A    between atoms: C_2  and  C_3
REMARK    3  A    between atoms: C_3  and  C_5
REMARK    4  A    between atoms: C_3  and  N_6
REMARK    5  A    between atoms: C_7  and  S_9
REMARK    6  A    between atoms: S_9  and  C_10
REMARK    7  A    between atoms: C_10  and  C_11
REMARK    8  A    between atoms: C_19  and  C_23
REMARK    9  A    between atoms: C_23  and  O_25
REMARK   10  A    between atoms: O_25  and  C_26
REMARK                            x       y       z     vdW  Elec       q    Type
REMARK                         _______ _______ _______ _____ _____    ______ ____
ROOT
ATOM      1  C   UNL     1      -5.730  -1.245   1.268  0.00  0.00    +0.121 A 
ATOM      2  N   UNL     1      -5.693  -2.603   1.277  0.00  0.00    -0.310 N 
ATOM      3  H   UNL     1      -4.727  -3.127   1.329  0.00  0.00    +0.170 HD
ATOM      4  C   UNL     1      -6.837  -3.324   1.222  0.00  0.00    +0.259 A 
ATOM      5  O   UNL     1      -6.818  -4.541   1.229  0.00  0.00    -0.267 OA
ATOM      6  C   UNL     1      -8.105  -2.579   1.153  0.00  0.00    +0.065 A 
ATOM      7  C   UNL     1      -9.336  -3.230   1.093  0.00  0.00    +0.016 A 
ATOM      8  C   UNL     1     -10.489  -2.500   1.029  0.00  0.00    +0.016 A 
ATOM      9  C   UNL     1     -10.446  -1.100   1.025  0.00  0.00    +0.061 A 
ATOM     10  C   UNL     1      -9.229  -0.432   1.084  0.00  0.00    +0.043 A 
ATOM     11  C   UNL     1      -8.044  -1.169   1.149  0.00  0.00    +0.079 A 
ATOM     12  N   UNL     1      -6.832  -0.561   1.213  0.00  0.00    -0.233 NA
ENDROOT
BRANCH   9  13
ATOM     13  C   UNL     1     -11.705  -0.327   0.956  0.00  0.00    +0.339 C 
ATOM     14  O   UNL     1     -11.673   0.887   0.952  0.00  0.00    -0.245 OA
BRANCH  13  15
ATOM     15  O   UNL     1     -12.888  -0.969   0.898  0.00  0.00    -0.464 OA
ATOM     16  C   UNL     1     -14.082  -0.147   0.833  0.00  0.00    +0.280 C 
ENDBRANCH  13  15
ENDBRANCH   9  13
BRANCH   1  17
ATOM     17  C   UNL     1      -4.426  -0.494   1.333  0.00  0.00    +0.151 C 
BRANCH  17  18
ATOM     18  S   UNL     1      -4.753   1.286   1.307  0.00  0.00    -0.085 S 
BRANCH  18  20
ATOM     19  N   UNL     1      -2.100   1.071   1.446  0.00  0.00    -0.366 N 
ATOM     20  C   UNL     1      -3.103   1.902   1.390  0.00  0.00    +0.126 C 
ATOM     21  N   UNL     1      -2.875   3.258   1.395  0.00  0.00    -0.339 N 
ATOM     22  H   UNL     1      -3.722   3.959   1.348  0.00  0.00    +0.144 HD
ATOM     23  H   UNL     1      -1.845   3.642   1.447  0.00  0.00    +0.144 HD
ATOM     24  H   UNL     1      -2.270  -0.008   1.314  0.00  0.00    +0.162 HD
BRANCH  19  25
ATOM     25  C   UNL     1      -0.745   1.574   1.685  0.00  0.00    +0.078 C 
ATOM     26  C   UNL     1       0.111   1.346   0.437  0.00  0.00    +0.030 C 
BRANCH  25  28
ATOM     27  C   UNL     1      -0.910   1.160   4.143  0.00  0.00    +0.006 C 
ATOM     28  C   UNL     1      -0.126   0.832   2.871  0.00  0.00    +0.021 C 
ENDBRANCH  25  28
ENDBRANCH  19  25
ENDBRANCH  18  20
ENDBRANCH  17  18
ENDBRANCH   1  17
TORSDOF 7
