REMARK  Name = ZINC43261813
REMARK  9 active torsions:
REMARK  status: ('A' for Active; 'I' for Inactive)
REMARK    1  A    between atoms: C_1  and  C_2
REMARK    2  A    between atoms: C_2  and  N_3
REMARK    3  A    between atoms: N_3  and  C_4
REMARK    4  A    between atoms: N_3  and  C_10
REMARK    5  A    between atoms: C_4  and  C_5
REMARK    6  A    between atoms: C_10  and  C_12
REMARK    7  A    between atoms: C_10  and  C_18
REMARK    8  A    between atoms: C_18  and  C_20
REMARK    9  A    between atoms: C_18  and  N_21
REMARK                            x       y       z     vdW  Elec       q    Type
REMARK                         _______ _______ _______ _____ _____    ______ ____
ROOT
ATOM      1  C   UNL     1      -0.169  -0.425  -2.506  0.00  0.00    +0.079 C 
ENDROOT
BRANCH   1   2
ATOM      2  C   UNL     1      -0.273   0.980  -3.042  0.00  0.00    +0.006 A 
ATOM      3  C   UNL     1      -0.336   1.400  -4.329  0.00  0.00    +0.014 A 
ATOM      4  C   UNL     1      -0.428   2.755  -4.588  0.00  0.00    +0.023 A 
ATOM      5  C   UNL     1      -0.454   3.623  -3.547  0.00  0.00    +0.055 A 
ATOM      6  S   UNL     1      -0.354   2.522  -2.145  0.00  0.00    -0.085 S 
ATOM      7 BR   UNL     1      -0.574   5.510  -3.572  0.00  0.00    -0.043 Br
ENDBRANCH   1   2
BRANCH   1   8
ATOM      8  C   UNL     1      -1.478  -0.803  -1.809  0.00  0.00    -0.056 C 
ATOM      9  C   UNL     1      -2.597  -0.907  -2.847  0.00  0.00    -0.012 C 
BRANCH   8  10
ATOM     10  N   UNL     1      -1.316  -2.096  -1.132  0.00  0.00    +0.381 N 
ATOM     11  H   UNL     1      -0.639  -2.005  -0.389  0.00  0.00    -0.090 HD
ATOM     12  H   UNL     1      -2.202  -2.387  -0.745  0.00  0.00    -0.090 HD
ATOM     13  H   UNL     1      -0.996  -2.786  -1.795  0.00  0.00    -0.090 HD
ENDBRANCH   8  10
ENDBRANCH   1   8
BRANCH   1  14
ATOM     14  N   UNL     1       0.938  -0.501  -1.544  0.00  0.00    -0.292 NA
BRANCH  14  16
ATOM     15  C   UNL     1       2.607  -1.400  -3.095  0.00  0.00    +0.020 C 
ATOM     16  C   UNL     1       2.223  -0.221  -2.197  0.00  0.00    +0.082 C 
ENDBRANCH  14  16
BRANCH  14  17
ATOM     17  C   UNL     1       0.714   0.406  -0.411  0.00  0.00    +0.127 C 
BRANCH  17  18
ATOM     18  C   UNL     1       1.543  -0.044   0.765  0.00  0.00    +0.004 A 
ATOM     19  C   UNL     1       2.806   0.311   1.105  0.00  0.00    +0.012 A 
ATOM     20  C   UNL     1       3.373  -0.234   2.242  0.00  0.00    +0.008 A 
ATOM     21  C   UNL     1       2.648  -1.109   2.982  0.00  0.00    +0.045 A 
ATOM     22  S   UNL     1       1.113  -1.178   2.075  0.00  0.00    -0.100 S 
ENDBRANCH  17  18
ENDBRANCH  14  17
ENDBRANCH   1  14
TORSDOF 7
