REMARK  Name = ZINC42561703
REMARK  11 active torsions:
REMARK  status: ('A' for Active; 'I' for Inactive)
REMARK    1  A    between atoms: C_1  and  C_2
REMARK    2  A    between atoms: C_2  and  C_4
REMARK    3  A    between atoms: C_2  and  N_8
REMARK    4  A    between atoms: C_4  and  C_5
REMARK    5  A    between atoms: C_5  and  C_6
REMARK    6  A    between atoms: C_5  and  C_7
REMARK    7  A    between atoms: N_8  and  C_9
REMARK    8  A    between atoms: N_8  and  C_10
REMARK    9  A    between atoms: C_10  and  C_11
REMARK   10  A    between atoms: N_13  and  C_14
REMARK   11  A    between atoms: C_17  and  N_21
REMARK                            x       y       z     vdW  Elec       q    Type
REMARK                         _______ _______ _______ _____ _____    ______ ____
ROOT
ATOM      1  C   UNL     1       0.173  -2.404  -3.222  0.00  0.00    +0.201 C 
ATOM      2  O   UNL     1       0.209  -1.697  -4.207  0.00  0.00    -0.278 OA
ATOM      3  N   UNL     1       0.483  -3.712  -3.318  0.00  0.00    -0.285 N 
ATOM      4  H   UNL     1       0.406  -4.287  -2.542  0.00  0.00    +0.155 HD
ENDROOT
BRANCH   3   5
ATOM      5  C   UNL     1       0.916  -4.241  -4.543  0.00  0.00    +0.070 A 
ATOM      6  C   UNL     1       1.841  -3.546  -5.311  0.00  0.00    +0.065 A 
ATOM      7  C   UNL     1       2.268  -4.067  -6.518  0.00  0.00    +0.044 A 
ATOM      8  C   UNL     1       1.772  -5.286  -6.962  0.00  0.00    +0.027 A 
ATOM      9  C   UNL     1       0.846  -5.981  -6.194  0.00  0.00    +0.044 A 
ATOM     10  C   UNL     1       0.424  -5.463  -4.985  0.00  0.00    +0.065 A 
ATOM     11 CL   UNL     1      -0.727  -6.335  -4.021  0.00  0.00    -0.082 Cl
ATOM     12 CL   UNL     1       2.462  -2.022  -4.756  0.00  0.00    -0.082 Cl
BRANCH   8  13
ATOM     13  N   UNL     1       2.204  -5.814  -8.184  0.00  0.00    -0.358 N 
ATOM     14  H   UNL     1       2.850  -5.329  -8.720  0.00  0.00    +0.142 HD
ATOM     15  H   UNL     1       1.857  -6.665  -8.494  0.00  0.00    +0.142 HD
ENDBRANCH   8  13
ENDBRANCH   3   5
BRANCH   1  16
ATOM     16  C   UNL     1      -0.219  -1.819  -1.889  0.00  0.00    +0.019 C 
BRANCH  16  17
ATOM     17  N   UNL     1      -0.506  -0.387  -2.048  0.00  0.00    +0.385 N 
ATOM     18  C   UNL     1       0.728   0.322  -2.411  0.00  0.00    -0.095 C 
ATOM     19  H   UNL     1      -1.194  -0.261  -2.776  0.00  0.00    -0.081 HD
BRANCH  17  21
ATOM     20  C   UNL     1      -1.386   1.627  -0.968  0.00  0.00    -0.013 C 
ATOM     21  C   UNL     1      -1.026   0.151  -0.784  0.00  0.00    -0.071 C 
BRANCH  21  22
ATOM     22  C   UNL     1      -2.275  -0.631  -0.372  0.00  0.00    -0.013 C 
BRANCH  22  23
ATOM     23  C   UNL     1      -2.778  -0.115   0.978  0.00  0.00    -0.019 C 
ATOM     24  C   UNL     1      -4.104  -0.797   1.322  0.00  0.00    +0.007 C 
ATOM     25  C   UNL     1      -1.745  -0.431   2.061  0.00  0.00    +0.007 C 
ENDBRANCH  22  23
ENDBRANCH  21  22
ENDBRANCH  17  21
ENDBRANCH  16  17
ENDBRANCH   1  16
TORSDOF 7
