REMARK  Name = ZINC43527359
REMARK  10 active torsions:
REMARK  status: ('A' for Active; 'I' for Inactive)
REMARK    1  A    between atoms: C_1  and  C_2
REMARK    2  A    between atoms: C_2  and  C_3
REMARK    3  A    between atoms: C_2  and  N_4
REMARK    4  A    between atoms: N_7  and  C_8
REMARK    5  A    between atoms: C_8  and  C_9
REMARK    6  A    between atoms: C_18  and  C_20
REMARK    7  A    between atoms: C_20  and  N_21
REMARK    8  A    between atoms: N_24  and  C_27
REMARK    9  A    between atoms: C_32  and  O_33
REMARK   10  A    between atoms: O_33  and  C_34
REMARK                            x       y       z     vdW  Elec       q    Type
REMARK                         _______ _______ _______ _____ _____    ______ ____
ROOT
ATOM      1  C   UNL     1      -4.700  -3.814  -0.885  0.00  0.00    -0.051 C 
ATOM      2  C   UNL     1      -4.987  -5.246  -1.339  0.00  0.00    -0.010 C 
ATOM      3  C   UNL     1      -5.609  -6.021  -0.171  0.00  0.00    -0.015 C 
ATOM      4  C   UNL     1      -4.614  -6.016   0.998  0.00  0.00    -0.015 C 
ATOM      5  C   UNL     1      -4.316  -4.565   1.385  0.00  0.00    -0.078 C 
ATOM      6  N   UNL     1      -5.107  -3.642   0.512  0.00  0.00    +0.383 N 
ATOM      7  C   UNL     1      -6.546  -3.870   0.661  0.00  0.00    -0.076 C 
ATOM      8  C   UNL     1      -6.895  -5.302   0.258  0.00  0.00    -0.041 C 
ATOM      9  H   UNL     1      -4.911  -2.691   0.787  0.00  0.00    -0.081 HD
ENDROOT
BRANCH   1  10
ATOM     10  C   UNL     1      -3.202  -3.530  -1.016  0.00  0.00    +0.090 C 
BRANCH  10  14
ATOM     11  N   UNL     1      -1.372  -0.511   0.012  0.00  0.00    -0.297 N 
ATOM     12  C   UNL     1      -1.643  -1.734  -0.485  0.00  0.00    +0.300 C 
ATOM     13  O   UNL     1      -0.747  -2.417  -0.942  0.00  0.00    -0.253 OA
ATOM     14  N   UNL     1      -2.908  -2.201  -0.475  0.00  0.00    -0.301 N 
ATOM     15  H   UNL     1      -2.087   0.033   0.377  0.00  0.00    +0.150 HD
ATOM     16  H   UNL     1      -3.623  -1.656  -0.111  0.00  0.00    +0.150 HD
BRANCH  11  18
ATOM     17  C   UNL     1      -0.019   1.526   0.010  0.00  0.00    +0.027 C 
ATOM     18  C   UNL     1       0.002  -0.004   0.002  0.00  0.00    +0.068 C 
ATOM     19  C   UNL     1       0.742  -0.511   1.242  0.00  0.00    +0.027 C 
ENDBRANCH  11  18
ENDBRANCH  10  14
ENDBRANCH   1  10
BRANCH   8  20
ATOM     20  C   UNL     1      -7.519  -6.032   1.449  0.00  0.00    -0.077 C 
BRANCH  20  21
ATOM     21  N   UNL     1      -8.809  -5.413   1.781  0.00  0.00    +0.382 N 
ATOM     22  C   UNL     1      -9.743  -5.603   0.663  0.00  0.00    -0.060 C 
ATOM     23  C   UNL     1     -11.050  -4.861   0.960  0.00  0.00    +0.086 C 
ATOM     24  N   UNL     1     -11.561  -5.318   2.261  0.00  0.00    -0.331 N 
ATOM     25  C   UNL     1     -10.638  -5.316   3.407  0.00  0.00    +0.086 C 
ATOM     26  C   UNL     1      -9.350  -6.036   2.995  0.00  0.00    -0.060 C 
ATOM     27  H   UNL     1      -8.676  -4.426   1.941  0.00  0.00    -0.082 HD
BRANCH  24  28
ATOM     28  C   UNL     1     -12.887  -5.742   2.406  0.00  0.00    +0.072 A 
ATOM     29  C   UNL     1     -13.214  -7.077   2.219  0.00  0.00    +0.027 A 
ATOM     30  C   UNL     1     -14.524  -7.493   2.363  0.00  0.00    +0.002 A 
ATOM     31  C   UNL     1     -15.511  -6.582   2.692  0.00  0.00    +0.004 A 
ATOM     32  C   UNL     1     -15.191  -5.250   2.880  0.00  0.00    +0.047 A 
ATOM     33  C   UNL     1     -13.880  -4.826   2.744  0.00  0.00    +0.141 A 
BRANCH  33  34
ATOM     34  O   UNL     1     -13.564  -3.516   2.933  0.00  0.00    -0.493 OA
ATOM     35  C   UNL     1     -14.634  -2.634   3.277  0.00  0.00    +0.277 C 
ENDBRANCH  33  34
ENDBRANCH  24  28
ENDBRANCH  20  21
ENDBRANCH   8  20
TORSDOF 7
