REMARK  Name = ZINC63952537
REMARK  13 active torsions:
REMARK  status: ('A' for Active; 'I' for Inactive)
REMARK    1  A    between atoms: C_1  and  C_2
REMARK    2  A    between atoms: C_2  and  O_3
REMARK    3  A    between atoms: O_3  and  C_4
REMARK    4  A    between atoms: C_7  and  C_10
REMARK    5  A    between atoms: C_10  and  C_12
REMARK    6  A    between atoms: C_10  and  O_31
REMARK    7  A    between atoms: C_12  and  C_13
REMARK    8  A    between atoms: C_13  and  N_14
REMARK    9  A    between atoms: N_14  and  C_15
REMARK   10  A    between atoms: C_15  and  C_17
REMARK   11  A    between atoms: C_15  and  C_27
REMARK   12  A    between atoms: C_17  and  C_18
REMARK   13  A    between atoms: C_27  and  C_28
REMARK                            x       y       z     vdW  Elec       q    Type
REMARK                         _______ _______ _______ _____ _____    ______ ____
ROOT
ATOM      1  N   UNL     1      -0.925  -8.597   3.555  0.00  0.00    +0.382 N 
ATOM      2  H   UNL     1      -0.904  -8.274   4.510  0.00  0.00    -0.085 HD
ATOM      3  H   UNL     1      -1.693  -8.159   3.068  0.00  0.00    -0.085 HD
ENDROOT
BRANCH   1   4
ATOM      4  C   UNL     1       0.338  -8.248   2.892  0.00  0.00    -0.079 C 
BRANCH   4   5
ATOM      5  C   UNL     1       0.476  -6.726   2.825  0.00  0.00    +0.017 C 
BRANCH   5   6
ATOM      6  C   UNL     1       1.792  -6.363   2.134  0.00  0.00    +0.143 C 
BRANCH   6  10
ATOM      7  C   UNL     1       2.017  -2.125   1.636  0.00  0.00    +0.121 A 
ATOM      8  C   UNL     1       1.541  -2.921   0.605  0.00  0.00    +0.046 A 
ATOM      9  C   UNL     1       1.470  -4.291   0.768  0.00  0.00    +0.010 A 
ATOM     10  C   UNL     1       1.872  -4.869   1.958  0.00  0.00    -0.019 A 
ATOM     11  C   UNL     1       2.346  -4.077   2.988  0.00  0.00    +0.010 A 
ATOM     12  C   UNL     1       2.425  -2.707   2.827  0.00  0.00    +0.046 A 
BRANCH   7  13
ATOM     13  O   UNL     1       2.089  -0.777   1.477  0.00  0.00    -0.492 OA
BRANCH  13  15
ATOM     14  C   UNL     1       1.805   1.275   0.233  0.00  0.00    +0.048 C 
ATOM     15  C   UNL     1       1.651  -0.247   0.224  0.00  0.00    +0.225 C 
ENDBRANCH  13  15
ENDBRANCH   7  13
ENDBRANCH   6  10
BRANCH   6  16
ATOM     16  O   UNL     1       2.889  -6.807   2.935  0.00  0.00    -0.387 OA
ATOM     17  H   UNL     1       2.914  -6.417   3.820  0.00  0.00    +0.210 HD
ENDBRANCH   6  16
ENDBRANCH   5   6
ENDBRANCH   4   5
ENDBRANCH   1   4
BRANCH   1  18
ATOM     18  C   UNL     1      -1.102 -10.055   3.536  0.00  0.00    -0.057 C 
BRANCH  18  19
ATOM     19  C   UNL     1      -2.337 -10.430   4.357  0.00  0.00    +0.018 C 
BRANCH  19  20
ATOM     20  C   UNL     1      -2.105 -10.075   5.803  0.00  0.00    -0.043 C 
ATOM     21  C   UNL     1      -2.483  -8.940   6.433  0.00  0.00    -0.001 A 
ATOM     22  C   UNL     1      -3.195  -7.740   5.977  0.00  0.00    +0.010 A 
ATOM     23  C   UNL     1      -3.433  -6.743   6.860  0.00  0.00    +0.001 A 
ATOM     24  C   UNL     1      -3.018  -6.827   8.196  0.00  0.00    +0.002 A 
ATOM     25  C   UNL     1      -2.359  -7.897   8.689  0.00  0.00    +0.026 A 
ATOM     26  C   UNL     1      -2.056  -9.004   7.849  0.00  0.00    +0.043 A 
ATOM     27  N   UNL     1      -1.438 -10.136   8.085  0.00  0.00    -0.380 N 
ATOM     28  C   UNL     1      -1.409 -10.921   6.846  0.00  0.00    +0.144 C 
ATOM     29  H   UNL     1      -1.066 -10.410   8.938  0.00  0.00    +0.160 HD
ENDBRANCH  19  20
ENDBRANCH  18  19
BRANCH  18  30
ATOM     30  C   UNL     1      -1.287 -10.528   2.092  0.00  0.00    +0.110 C 
BRANCH  30  31
ATOM     31  C   UNL     1      -1.315 -12.034   2.056  0.00  0.00    +0.354 C 
ATOM     32  O   UNL     1      -1.079 -12.672   3.068  0.00  0.00    -0.246 OA
ATOM     33  O   UNL     1      -1.573 -12.614   1.016  0.00  0.00    -0.246 OA
ENDBRANCH  30  31
ENDBRANCH  18  30
ENDBRANCH   1  18
TORSDOF 12
