REMARK  Name = ZINC59807111
REMARK  12 active torsions:
REMARK  status: ('A' for Active; 'I' for Inactive)
REMARK    1  A    between atoms: C_1  and  C_2
REMARK    2  A    between atoms: C_2  and  O_3
REMARK    3  A    between atoms: O_3  and  C_4
REMARK    4  A    between atoms: C_4  and  C_6
REMARK    5  A    between atoms: C_7  and  C_30
REMARK    6  A    between atoms: C_8  and  C_29
REMARK    7  A    between atoms: C_10  and  N_11
REMARK    8  A    between atoms: C_12  and  C_14
REMARK    9  A    between atoms: C_14  and  N_15
REMARK   10  A    between atoms: N_15  and  C_16
REMARK   11  A    between atoms: C_21  and  N_22
REMARK   12  A    between atoms: C_25  and  O_28
REMARK                            x       y       z     vdW  Elec       q    Type
REMARK                         _______ _______ _______ _____ _____    ______ ____
ROOT
ATOM      1  C   UNL     1      -2.580  -2.649  -5.403  0.00  0.00    +0.198 C 
ENDROOT
BRANCH   1   3
ATOM      2  N   UNL     1      -0.604  -2.527  -3.920  0.00  0.00    -0.278 N 
ATOM      3  C   UNL     1      -1.113  -2.850  -5.125  0.00  0.00    +0.235 C 
ATOM      4  O   UNL     1      -0.389  -3.302  -5.987  0.00  0.00    -0.274 OA
ATOM      5  H   UNL     1      -1.183  -2.166  -3.230  0.00  0.00    +0.155 HD
BRANCH   2  10
ATOM      6  C   UNL     1       1.438  -2.438  -2.493  0.00  0.00    +0.091 A 
ATOM      7  C   UNL     1       2.853  -2.734  -2.495  0.00  0.00    -0.025 A 
ATOM      8  C   UNL     1       3.345  -3.239  -3.641  0.00  0.00    -0.008 A 
ATOM      9  S   UNL     1       1.918  -3.314  -4.702  0.00  0.00    -0.078 S 
ATOM     10  C   UNL     1       0.746  -2.712  -3.665  0.00  0.00    +0.086 A 
ATOM     11  C   UNL     1       4.763  -3.644  -3.951  0.00  0.00    +0.052 C 
ATOM     12  C   UNL     1       3.723  -2.492  -1.289  0.00  0.00    +0.045 C 
BRANCH   6  13
ATOM     13  C   UNL     1       0.768  -1.885  -1.314  0.00  0.00    +0.342 C 
ATOM     14  O   UNL     1       0.291  -2.630  -0.479  0.00  0.00    -0.245 OA
BRANCH  13  15
ATOM     15  O   UNL     1       0.681  -0.548  -1.153  0.00  0.00    -0.461 OA
BRANCH  15  17
ATOM     16  C   UNL     1       0.015   1.452   0.028  0.00  0.00    +0.048 C 
ATOM     17  C   UNL     1       0.015  -0.078   0.020  0.00  0.00    +0.229 C 
ENDBRANCH  15  17
ENDBRANCH  13  15
ENDBRANCH   6  13
ENDBRANCH   2  10
ENDBRANCH   1   3
BRANCH   1  18
ATOM     18  N   UNL     1      -2.881  -3.072  -6.773  0.00  0.00    -0.334 N 
ATOM     19  H   UNL     1      -2.173  -3.417  -7.340  0.00  0.00    +0.147 HD
BRANCH  18  20
ATOM     20  C   UNL     1      -4.186  -2.980  -7.262  0.00  0.00    +0.047 A 
ATOM     21  C   UNL     1      -5.221  -2.600  -6.417  0.00  0.00    +0.025 A 
ATOM     22  C   UNL     1      -6.510  -2.509  -6.904  0.00  0.00    +0.002 A 
ATOM     23  C   UNL     1      -6.771  -2.796  -8.231  0.00  0.00    +0.002 A 
ATOM     24  C   UNL     1      -5.743  -3.175  -9.075  0.00  0.00    +0.023 A 
ATOM     25  C   UNL     1      -4.450  -3.262  -8.596  0.00  0.00    +0.035 A 
BRANCH  25  26
ATOM     26  N   UNL     1      -3.411  -3.639  -9.451  0.00  0.00    -0.392 NA
ATOM     27  C   UNL     1      -3.728  -4.936 -10.062  0.00  0.00    +0.087 C 
ATOM     28  C   UNL     1      -2.557  -5.392 -10.936  0.00  0.00    +0.048 C 
ATOM     29  C   UNL     1      -2.314  -4.354 -12.036  0.00  0.00    +0.117 C 
ATOM     30  C   UNL     1      -2.058  -2.990 -11.389  0.00  0.00    +0.048 C 
ATOM     31  C   UNL     1      -3.247  -2.623 -10.498  0.00  0.00    +0.087 C 
ATOM     32  H   UNL     1      -2.554  -3.718  -8.924  0.00  0.00    +0.126 HD
BRANCH  29  33
ATOM     33  O   UNL     1      -1.176  -4.737 -12.810  0.00  0.00    -0.392 OA
ATOM     34  H   UNL     1      -0.964  -4.123 -13.527  0.00  0.00    +0.210 HD
ENDBRANCH  29  33
ENDBRANCH  25  26
ENDBRANCH  18  20
ENDBRANCH   1  18
TORSDOF 9
