REMARK  Name = ZINC20503901
REMARK  7 active torsions:
REMARK  status: ('A' for Active; 'I' for Inactive)
REMARK    1  A    between atoms: C_1  and  C_2
REMARK    2  A    between atoms: C_2  and  C_3
REMARK    3  A    between atoms: C_2  and  N_4
REMARK    4  A    between atoms: N_7  and  C_8
REMARK    5  A    between atoms: C_8  and  C_9
REMARK    6  A    between atoms: C_18  and  C_20
REMARK    7  A    between atoms: C_20  and  N_21
REMARK                            x       y       z     vdW  Elec       q    Type
REMARK                         _______ _______ _______ _____ _____    ______ ____
ROOT
ATOM      1  C   UNL     1      -5.762  -1.892  -2.183  0.00  0.00    +0.074 C 
ATOM      2  C   UNL     1      -6.394  -2.223  -3.538  0.00  0.00    +0.024 C 
ATOM      3  C   UNL     1      -6.635  -3.736  -3.615  0.00  0.00    -0.006 C 
ATOM      4  C   UNL     1      -7.575  -4.140  -2.472  0.00  0.00    +0.019 C 
ATOM      5  C   UNL     1      -6.928  -3.754  -1.139  0.00  0.00    +0.085 C 
ATOM      6  N   UNL     1      -5.596  -3.128  -1.407  0.00  0.00    -0.298 NA
ATOM      7  C   UNL     1      -4.690  -4.062  -2.089  0.00  0.00    +0.086 C 
ATOM      8  C   UNL     1      -5.291  -4.455  -3.442  0.00  0.00    -0.010 C 
ENDROOT
BRANCH   1   9
ATOM      9  C   UNL     1      -4.395  -1.240  -2.403  0.00  0.00    +0.124 C 
BRANCH   9  13
ATOM     10  N   UNL     1      -1.913  -0.278   0.133  0.00  0.00    -0.297 N 
ATOM     11  C   UNL     1      -2.516  -0.468  -1.057  0.00  0.00    +0.300 C 
ATOM     12  O   UNL     1      -1.958  -0.131  -2.083  0.00  0.00    -0.253 OA
ATOM     13  N   UNL     1      -3.739  -1.033  -1.110  0.00  0.00    -0.298 N 
ATOM     14  H   UNL     1      -2.358  -0.547   0.951  0.00  0.00    +0.150 HD
ATOM     15  H   UNL     1      -4.184  -1.302  -0.291  0.00  0.00    +0.150 HD
BRANCH  10  17
ATOM     16  C   UNL     1      -0.724   1.859   0.183  0.00  0.00    +0.027 C 
ATOM     17  C   UNL     1      -0.583   0.336   0.190  0.00  0.00    +0.068 C 
ATOM     18  C   UNL     1       0.127  -0.105   1.471  0.00  0.00    +0.027 C 
ENDBRANCH  10  17
ENDBRANCH   9  13
ENDBRANCH   1   9
BRANCH   8  19
ATOM     19  C   UNL     1      -4.340  -4.040  -4.566  0.00  0.00    -0.074 C 
BRANCH  19  20
ATOM     20  N   UNL     1      -3.100  -4.823  -4.473  0.00  0.00    +0.382 N 
ATOM     21  C   UNL     1      -2.127  -4.314  -5.448  0.00  0.00    -0.060 C 
ATOM     22  C   UNL     1      -0.797  -5.053  -5.274  0.00  0.00    +0.088 C 
ATOM     23  N   UNL     1      -1.051  -6.499  -5.369  0.00  0.00    -0.319 N 
ATOM     24  C   UNL     1      -2.126  -7.070  -4.543  0.00  0.00    +0.088 C 
ATOM     25  C   UNL     1      -3.394  -6.235  -4.752  0.00  0.00    -0.060 C 
ATOM     26  C   UNL     1      -0.296  -7.303  -6.215  0.00  0.00    +0.121 A 
ATOM     27  C   UNL     1       0.848  -6.789  -6.817  0.00  0.00    +0.043 A 
ATOM     28  C   UNL     1       1.589  -7.600  -7.657  0.00  0.00    +0.005 A 
ATOM     29  C   UNL     1       1.160  -8.904  -7.867  0.00  0.00    +0.020 A 
ATOM     30  C   UNL     1       0.015  -9.349  -7.238  0.00  0.00    +0.113 A 
ATOM     31  N   UNL     1      -0.670  -8.554  -6.437  0.00  0.00    -0.240 NA
ATOM     32  H   UNL     1      -2.718  -4.737  -3.543  0.00  0.00    -0.082 HD
ENDBRANCH  19  20
ENDBRANCH   8  19
TORSDOF 5
