REMARK  Name = ZINC09542573
REMARK  11 active torsions:
REMARK  status: ('A' for Active; 'I' for Inactive)
REMARK    1  A    between atoms: C_1  and  C_2
REMARK    2  A    between atoms: C_2  and  O_3
REMARK    3  A    between atoms: O_3  and  C_4
REMARK    4  A    between atoms: C_8  and  C_11
REMARK    5  A    between atoms: C_9  and  O_10
REMARK    6  A    between atoms: C_14  and  C_27
REMARK    7  A    between atoms: C_16  and  C_18
REMARK    8  A    between atoms: C_21  and  O_25
REMARK    9  A    between atoms: O_25  and  C_26
REMARK   10  A    between atoms: C_31  and  O_33
REMARK   11  A    between atoms: O_33  and  C_34
REMARK                            x       y       z     vdW  Elec       q    Type
REMARK                         _______ _______ _______ _____ _____    ______ ____
ROOT
ATOM      1  C   UNL     1      -3.710  -0.929  -0.357  0.00  0.00    -0.028 C 
ATOM      2  C   UNL     1      -2.558   0.004   0.028  0.00  0.00    +0.044 C 
ATOM      3  C   UNL     1      -1.265  -0.762   0.011  0.00  0.00    +0.040 C 
ATOM      4  N   UNL     1      -1.210  -2.041  -0.002  0.00  0.00    -0.299 NA
ATOM      5  C   UNL     1      -2.380  -2.910  -0.001  0.00  0.00    +0.081 C 
ATOM      6  N   UNL     1      -3.579  -2.173   0.427  0.00  0.00    +0.401 N 
ATOM      7  H   UNL     1      -4.409  -2.758   0.279  0.00  0.00    -0.081 HD
ATOM      8  H   UNL     1      -3.498  -1.940   1.424  0.00  0.00    -0.081 HD
ENDROOT
BRANCH   5   9
ATOM      9  C   UNL     1      -2.595  -3.445  -1.393  0.00  0.00    -0.039 A 
ATOM     10  C   UNL     1      -3.870  -3.775  -1.817  0.00  0.00    +0.007 A 
ATOM     11  C   UNL     1      -4.071  -4.261  -3.094  0.00  0.00    +0.047 A 
ATOM     12  C   UNL     1      -2.992  -4.428  -3.949  0.00  0.00    +0.134 A 
ATOM     13  C   UNL     1      -1.713  -4.101  -3.521  0.00  0.00    +0.060 A 
ATOM     14  C   UNL     1      -1.518  -3.610  -2.243  0.00  0.00    +0.022 A 
ATOM     15 BR   UNL     1      -0.238  -4.327  -4.683  0.00  0.00    -0.047 Br
BRANCH  12  16
ATOM     16  O   UNL     1      -3.186  -4.912  -5.204  0.00  0.00    -0.494 OA
ATOM     17  C   UNL     1      -4.529  -5.227  -5.577  0.00  0.00    +0.277 C 
ENDBRANCH  12  16
ENDBRANCH   5   9
BRANCH   1  22
ATOM     18  C   UNL     1      -6.821   1.207  -0.658  0.00  0.00    +0.162 A 
ATOM     19  C   UNL     1      -7.449   0.943   0.549  0.00  0.00    +0.049 A 
ATOM     20  C   UNL     1      -6.867   0.076   1.456  0.00  0.00    +0.004 A 
ATOM     21  C   UNL     1      -5.662  -0.532   1.159  0.00  0.00    +0.006 A 
ATOM     22  C   UNL     1      -5.027  -0.269  -0.040  0.00  0.00    -0.016 A 
ATOM     23  C   UNL     1      -5.605   0.598  -0.954  0.00  0.00    +0.160 A 
BRANCH  23  24
ATOM     24  O   UNL     1      -4.985   0.854  -2.137  0.00  0.00    -0.503 OA
ATOM     25  H   UNL     1      -5.234   0.251  -2.850  0.00  0.00    +0.292 HD
ENDBRANCH  23  24
BRANCH  18  26
ATOM     26  O   UNL     1      -7.391   2.059  -1.551  0.00  0.00    -0.489 OA
BRANCH  26  28
ATOM     27  C   UNL     1      -9.123   3.568  -2.302  0.00  0.00    +0.048 C 
ATOM     28  C   UNL     1      -8.640   2.646  -1.180  0.00  0.00    +0.226 C 
ENDBRANCH  26  28
ENDBRANCH  18  26
ENDBRANCH   1  22
BRANCH   3  29
ATOM     29  C   UNL     1       0.002  -0.004   0.002  0.00  0.00    -0.001 A 
ATOM     30  C   UNL     1      -0.017   1.392   0.010  0.00  0.00    +0.010 A 
ATOM     31  C   UNL     1       1.169   2.098   0.002  0.00  0.00    +0.004 A 
ATOM     32  C   UNL     1       2.378   1.426  -0.013  0.00  0.00    +0.045 A 
ATOM     33  C   UNL     1       2.407   0.038  -0.021  0.00  0.00    +0.121 A 
ATOM     34  C   UNL     1       1.223  -0.680  -0.013  0.00  0.00    +0.055 A 
BRANCH  33  35
ATOM     35  O   UNL     1       3.598  -0.616  -0.036  0.00  0.00    -0.495 OA
ATOM     36  C   UNL     1       4.779   0.188  -0.043  0.00  0.00    +0.277 C 
ENDBRANCH  33  35
ENDBRANCH   3  29
TORSDOF 8
