REMARK  Name = ZINC65421869
REMARK  11 active torsions:
REMARK  status: ('A' for Active; 'I' for Inactive)
REMARK    1  A    between atoms: C_1  and  C_2
REMARK    2  A    between atoms: C_3  and  C_26
REMARK    3  A    between atoms: C_5  and  N_20
REMARK    4  A    between atoms: C_6  and  C_7
REMARK    5  A    between atoms: N_9  and  C_10
REMARK    6  A    between atoms: C_13  and  C_18
REMARK    7  A    between atoms: N_15  and  C_17
REMARK    8  A    between atoms: C_18  and  O_19
REMARK    9  A    between atoms: C_21  and  C_23
REMARK   10  A    between atoms: C_23  and  C_24
REMARK   11  A    between atoms: C_23  and  C_25
REMARK                            x       y       z     vdW  Elec       q    Type
REMARK                         _______ _______ _______ _____ _____    ______ ____
ROOT
ATOM      1  C   UNL     1      -0.018   1.503   0.010  0.00  0.00    +0.045 C 
ATOM      2  C   UNL     1       0.002  -0.004   0.002  0.00  0.00    -0.027 A 
ATOM      3  C   UNL     1       0.006  -0.713  -1.142  0.00  0.00    -0.008 A 
ATOM      4  S   UNL     1       0.032  -2.400  -0.579  0.00  0.00    -0.078 S 
ATOM      5  C   UNL     1       0.036  -2.158   1.081  0.00  0.00    +0.084 A 
ATOM      6  C   UNL     1       0.024  -0.778   1.222  0.00  0.00    +0.068 A 
ATOM      7  C   UNL     1      -0.007  -0.200  -2.559  0.00  0.00    +0.052 C 
ENDROOT
BRANCH   6   8
ATOM      8  C   UNL     1       0.028  -0.138   2.541  0.00  0.00    +0.247 C 
ATOM      9  O   UNL     1      -1.024   0.114   3.099  0.00  0.00    -0.270 OA
ATOM     10  N   UNL     1       1.197   0.172   3.136  0.00  0.00    -0.310 N 
ATOM     11  H   UNL     1       2.035  -0.028   2.692  0.00  0.00    +0.149 HD
BRANCH  10  12
ATOM     12  C   UNL     1       1.201   0.812   4.454  0.00  0.00    +0.055 C 
ATOM     13  C   UNL     1       2.528   1.568   4.692  0.00  0.00    +0.007 C 
ATOM     14  C   UNL     1       2.883   1.303   6.167  0.00  0.00    -0.041 C 
ATOM     15  N   UNL     1       1.799   0.472   6.732  0.00  0.00    +0.382 N 
ATOM     16  C   UNL     1       1.197  -0.252   5.580  0.00  0.00    -0.056 C 
ATOM     17  C   UNL     1       2.347  -0.485   7.702  0.00  0.00    -0.096 C 
ATOM     18  H   UNL     1       1.105   1.057   7.172  0.00  0.00    -0.082 HD
BRANCH  14  19
ATOM     19  C   UNL     1       2.979   2.628   6.925  0.00  0.00    +0.140 C 
BRANCH  19  20
ATOM     20  O   UNL     1       1.776   3.376   6.733  0.00  0.00    -0.397 OA
ATOM     21  H   UNL     1       1.767   4.230   7.186  0.00  0.00    +0.209 HD
ENDBRANCH  19  20
ENDBRANCH  14  19
ENDBRANCH  10  12
ENDBRANCH   6   8
BRANCH   5  22
ATOM     22  N   UNL     1       0.054  -3.117   2.083  0.00  0.00    -0.279 N 
ATOM     23  C   UNL     1       0.070  -4.426   1.762  0.00  0.00    +0.220 C 
ATOM     24  O   UNL     1       0.070  -4.765   0.597  0.00  0.00    -0.275 OA
ATOM     25  H   UNL     1       0.054  -2.846   3.014  0.00  0.00    +0.155 HD
BRANCH  23  26
ATOM     26  C   UNL     1       0.089  -5.468   2.850  0.00  0.00    +0.069 C 
ATOM     27  C   UNL     1       0.106  -6.863   2.221  0.00  0.00    +0.017 C 
ATOM     28  C   UNL     1       1.340  -5.283   3.712  0.00  0.00    +0.017 C 
ENDBRANCH  23  26
ENDBRANCH   5  22
TORSDOF 6
