REMARK  Name = ZINC08763931
REMARK  7 active torsions:
REMARK  status: ('A' for Active; 'I' for Inactive)
REMARK    1  A    between atoms: C_3  and  C_6
REMARK    2  A    between atoms: C_7  and  C_8
REMARK    3  A    between atoms: N_10  and  C_11
REMARK    4  A    between atoms: C_11  and  N_13
REMARK    5  A    between atoms: N_13  and  C_14
REMARK    6  A    between atoms: C_17  and  S_20
REMARK    7  A    between atoms: S_20  and  N_23
REMARK                            x       y       z     vdW  Elec       q    Type
REMARK                         _______ _______ _______ _____ _____    ______ ____
ROOT
ATOM      1  C   UNL     1      -2.743   2.202   0.068  0.00  0.00    +0.033 A 
ATOM      2  C   UNL     1      -2.816   3.581   0.219  0.00  0.00    +0.025 A 
ATOM      3  C   UNL     1      -4.008   4.238  -0.018  0.00  0.00    +0.031 A 
ATOM      4  C   UNL     1      -5.130   3.523  -0.394  0.00  0.00    +0.111 A 
ATOM      5  C   UNL     1      -5.062   2.149  -0.540  0.00  0.00    +0.031 A 
ATOM      6  C   UNL     1      -3.872   1.487  -0.310  0.00  0.00    +0.025 A 
ENDROOT
BRANCH   4   7
ATOM      7  S   UNL     1      -6.650   4.363  -0.689  0.00  0.00    +0.080 S 
ATOM      8  O   UNL     1      -6.315   5.705  -1.015  0.00  0.00    -0.148 OA
ATOM      9  O   UNL     1      -7.411   3.535  -1.557  0.00  0.00    -0.148 OA
BRANCH   7  10
ATOM     10  N   UNL     1      -7.467   4.416   0.751  0.00  0.00    -0.228 N 
ATOM     11  C   UNL     1      -6.955   5.132   1.807  0.00  0.00    +0.186 C 
ATOM     12  N   UNL     1      -7.633   5.176   3.002  0.00  0.00    -0.370 N 
ATOM     13  H   UNL     1      -8.308   3.942   0.849  0.00  0.00    +0.191 HD
ATOM     14  H   UNL     1      -5.382   6.301   2.362  0.00  0.00    +0.159 HD
ATOM     15  H   UNL     1      -8.474   4.702   3.100  0.00  0.00    +0.159 HD
ATOM     16  H   UNL     1      -7.271   5.681   3.747  0.00  0.00    +0.159 HD
ATOM     17  N   UNL     1      -5.803   5.757   1.609  0.00  0.00    -0.370 N 
ATOM     18  H   UNL     1      -5.335   5.694   0.697  0.00  0.00    +0.159 HD
ENDBRANCH   7  10
ENDBRANCH   4   7
BRANCH   1  19
ATOM     19  N   UNL     1      -1.536   1.535   0.301  0.00  0.00    -0.297 N 
ATOM     20  H   UNL     1      -1.007   1.748   1.086  0.00  0.00    +0.154 HD
BRANCH  19  21
ATOM     21  C   UNL     1      -1.107   0.595  -0.565  0.00  0.00    +0.141 C 
ATOM     22  S   UNL     1      -2.090   0.141  -1.891  0.00  0.00    -0.018 S 
BRANCH  21  25
ATOM     23  C   UNL     1       0.522  -0.931  -1.249  0.00  0.00    +0.242 C 
ATOM     24  O   UNL     1      -0.177  -1.254  -2.193  0.00  0.00    -0.270 OA
ATOM     25  N   UNL     1       0.095   0.013  -0.386  0.00  0.00    -0.264 N 
ATOM     26  H   UNL     1       0.652   0.270   0.365  0.00  0.00    +0.157 HD
BRANCH  23  28
ATOM     27  C   UNL     1       2.209  -2.496  -1.928  0.00  0.00    +0.020 C 
ATOM     28  C   UNL     1       1.780  -1.545  -1.059  0.00  0.00    +0.069 C 
BRANCH  27  31
ATOM     29  C   UNL     1       5.327  -4.517  -2.086  0.00  0.00    +0.008 A 
ATOM     30  C   UNL     1       4.089  -4.094  -2.501  0.00  0.00    +0.015 A 
ATOM     31  C   UNL     1       3.469  -3.111  -1.737  0.00  0.00    +0.012 A 
ATOM     32  S   UNL     1       4.680  -2.823  -0.459  0.00  0.00    -0.097 S 
ATOM     33  C   UNL     1       5.877  -3.968  -0.971  0.00  0.00    +0.046 A 
ENDBRANCH  27  31
ENDBRANCH  23  28
ENDBRANCH  21  25
ENDBRANCH  19  21
ENDBRANCH   1  19
TORSDOF 7
