REMARK  Name = ZINC12632069
REMARK  10 active torsions:
REMARK  status: ('A' for Active; 'I' for Inactive)
REMARK    1  A    between atoms: C_1  and  C_2
REMARK    2  A    between atoms: C_5  and  C_37
REMARK    3  A    between atoms: N_8  and  C_10
REMARK    4  A    between atoms: C_13  and  C_19
REMARK    5  A    between atoms: C_15  and  N_16
REMARK    6  A    between atoms: C_19  and  O_21
REMARK    7  A    between atoms: O_21  and  C_22
REMARK    8  A    between atoms: C_22  and  C_23
REMARK    9  A    between atoms: N_25  and  C_26
REMARK   10  A    between atoms: C_26  and  C_27
REMARK                            x       y       z     vdW  Elec       q    Type
REMARK                         _______ _______ _______ _____ _____    ______ ____
ROOT
ATOM      1  C   UNL     1      -1.302   2.115   0.020  0.00  0.00    +0.340 C 
ATOM      2  O   UNL     1      -2.347   1.495   0.021  0.00  0.00    -0.245 OA
ENDROOT
BRANCH   1   6
ATOM      3  C   UNL     1       2.399   0.046  -0.021  0.00  0.00    +0.060 A 
ATOM      4  C   UNL     1       2.377   1.438  -0.013  0.00  0.00    +0.026 A 
ATOM      5  C   UNL     1       1.187   2.107   0.002  0.00  0.00    +0.017 A 
ATOM      6  C   UNL     1      -0.017   1.394   0.010  0.00  0.00    +0.061 A 
ATOM      7  C   UNL     1       0.002  -0.004   0.002  0.00  0.00    +0.049 A 
ATOM      8  C   UNL     1       1.206  -0.672  -0.013  0.00  0.00    +0.148 A 
BRANCH   3  14
ATOM      9  C   UNL     1       6.439  -0.952   2.477  0.00  0.00    +0.009 C 
ATOM     10  C   UNL     1       5.635  -1.238   1.207  0.00  0.00    +0.003 C 
ATOM     11  C   UNL     1       6.488  -0.912  -0.023  0.00  0.00    +0.009 C 
ATOM     12  C   UNL     1       5.656  -1.145  -1.287  0.00  0.00    +0.003 C 
ATOM     13  C   UNL     1       4.395  -0.279  -1.229  0.00  0.00    +0.108 C 
ATOM     14  N   UNL     1       3.614  -0.629  -0.036  0.00  0.00    -0.328 N 
ATOM     15  C   UNL     1       4.375  -0.369   1.193  0.00  0.00    +0.108 C 
ATOM     16  C   UNL     1       5.258  -2.620  -1.373  0.00  0.00    +0.009 C 
ENDBRANCH   3  14
BRANCH   8  17
ATOM     17  N   UNL     1       1.232  -2.152  -0.022  0.00  0.00    +0.058 N 
ATOM     18  O   UNL     1       0.188  -2.779  -0.016  0.00  0.00    -0.126 OA
ATOM     19  O   UNL     1       2.297  -2.742  -0.035  0.00  0.00    -0.126 OA
ENDBRANCH   8  17
ENDBRANCH   1   6
BRANCH   1  20
ATOM     20  O   UNL     1      -1.319   3.463   0.027  0.00  0.00    -0.452 OA
BRANCH  20  21
ATOM     21  C   UNL     1      -2.620   4.106   0.037  0.00  0.00    +0.328 C 
BRANCH  21  22
ATOM     22  C   UNL     1      -2.441   5.603   0.044  0.00  0.00    +0.251 C 
ATOM     23  O   UNL     1      -1.326   6.080   0.041  0.00  0.00    -0.272 OA
ATOM     24  N   UNL     1      -3.520   6.410   0.054  0.00  0.00    -0.312 N 
ATOM     25  H   UNL     1      -4.412   6.029   0.056  0.00  0.00    +0.149 HD
BRANCH  24  26
ATOM     26  C   UNL     1      -3.346   7.865   0.061  0.00  0.00    +0.111 C 
BRANCH  26  27
ATOM     27  C   UNL     1      -4.718   8.543   0.071  0.00  0.00    -0.013 C 
ATOM     28  C   UNL     1      -5.500   8.129  -1.177  0.00  0.00    +0.012 C 
ATOM     29  C   UNL     1      -6.872   8.806  -1.167  0.00  0.00    -0.010 C 
ATOM     30  C   UNL     1      -6.690  10.326  -1.159  0.00  0.00    +0.007 C 
ATOM     31  C   UNL     1      -5.908  10.739   0.088  0.00  0.00    -0.010 C 
ATOM     32  C   UNL     1      -4.536  10.062   0.078  0.00  0.00    +0.012 C 
ATOM     33  C   UNL     1      -6.678  10.312   1.339  0.00  0.00    +0.007 C 
ATOM     34  C   UNL     1      -6.860   8.793   1.332  0.00  0.00    -0.010 C 
ATOM     35  C   UNL     1      -7.643   8.379   0.084  0.00  0.00    +0.007 C 
ATOM     36  C   UNL     1      -5.489   8.115   1.321  0.00  0.00    +0.012 C 
ENDBRANCH  26  27
ENDBRANCH  24  26
ENDBRANCH  21  22
ENDBRANCH  20  21
ENDBRANCH   1  20
TORSDOF 8
