REMARK  Name = ZINC13015957
REMARK  7 active torsions:
REMARK  status: ('A' for Active; 'I' for Inactive)
REMARK    1  A    between atoms: C_1  and  C_2
REMARK    2  A    between atoms: C_5  and  C_8
REMARK    3  A    between atoms: N_12  and  C_16
REMARK    4  A    between atoms: C_16  and  C_17
REMARK    5  A    between atoms: C_17  and  N_18
REMARK    6  A    between atoms: N_29  and  C_31
REMARK    7  A    between atoms: C_31  and  C_32
REMARK                            x       y       z     vdW  Elec       q    Type
REMARK                         _______ _______ _______ _____ _____    ______ ____
ROOT
ATOM      1  N   UNL     1      -0.028   2.237  -0.085  0.00  0.00    -0.267 NA
ATOM      2  C   UNL     1       0.764   2.223   1.159  0.00  0.00    +0.213 C 
ATOM      3  N   UNL     1       0.010   2.964   2.177  0.00  0.00    -0.300 N 
ATOM      4  C   UNL     1       0.191   2.992   3.531  0.00  0.00    +0.069 A 
ATOM      5  C   UNL     1       1.099   2.366   4.375  0.00  0.00    +0.028 A 
ATOM      6  C   UNL     1       0.986   2.629   5.731  0.00  0.00    +0.002 A 
ATOM      7  C   UNL     1       0.014   3.477   6.234  0.00  0.00    +0.002 A 
ATOM      8  C   UNL     1      -0.902   4.111   5.415  0.00  0.00    +0.028 A 
ATOM      9  C   UNL     1      -0.806   3.860   4.042  0.00  0.00    +0.066 A 
ATOM     10  N   UNL     1      -1.527   4.306   2.990  0.00  0.00    -0.327 N 
ATOM     11  C   UNL     1      -1.054   3.785   1.884  0.00  0.00    +0.179 A 
ATOM     12  N   UNL     1      -1.518   3.999   0.600  0.00  0.00    -0.285 N 
ATOM     13  C   UNL     1      -0.501   3.597  -0.383  0.00  0.00    +0.197 C 
ATOM     14  H   UNL     1      -2.364   5.000   3.153  0.00  0.00    +0.169 HD
ENDROOT
BRANCH   1  15
ATOM     15  C   UNL     1       0.747   1.691  -1.208  0.00  0.00    +0.107 C 
BRANCH  15  16
ATOM     16  C   UNL     1       1.924   2.619  -1.515  0.00  0.00    +0.133 C 
BRANCH  16  21
ATOM     17  C   UNL     1       3.104   2.015  -6.295  0.00  0.00    +0.028 C 
ATOM     18  C   UNL     1       3.196   1.841  -4.953  0.00  0.00    +0.080 C 
ATOM     19  C   UNL     1       2.378   2.425  -3.869  0.00  0.00    +0.260 C 
ATOM     20  O   UNL     1       1.459   3.188  -4.101  0.00  0.00    -0.269 OA
ATOM     21  N   UNL     1       2.696   2.075  -2.634  0.00  0.00    -0.227 N 
ATOM     22  C   UNL     1       3.718   1.232  -2.381  0.00  0.00    +0.286 C 
ATOM     23  O   UNL     1       4.119   0.834  -1.304  0.00  0.00    -0.262 OA
ATOM     24  S   UNL     1       4.339   0.842  -4.009  0.00  0.00    -0.026 S 
BRANCH  17  29
ATOM     25  C   UNL     1       7.136  -0.172  -9.759  0.00  0.00    +0.044 C 
ATOM     26  C   UNL     1       6.079   0.401  -8.851  0.00  0.00    -0.050 A 
ATOM     27  C   UNL     1       4.928   0.947  -9.392  0.00  0.00    +0.004 A 
ATOM     28  C   UNL     1       3.956   1.473  -8.568  0.00  0.00    +0.008 A 
ATOM     29  C   UNL     1       4.135   1.455  -7.181  0.00  0.00    -0.024 A 
ATOM     30  C   UNL     1       5.304   0.906  -6.641  0.00  0.00    +0.008 A 
ATOM     31  C   UNL     1       6.264   0.379  -7.479  0.00  0.00    +0.004 A 
ENDBRANCH  17  29
ENDBRANCH  16  21
ENDBRANCH  15  16
ENDBRANCH   1  15
BRANCH  12  32
ATOM     32  C   UNL     1      -1.910   5.402   0.408  0.00  0.00    +0.144 C 
BRANCH  32  33
ATOM     33  C   UNL     1      -0.725   6.295   0.672  0.00  0.00    -0.030 A 
ATOM     34  C   UNL     1      -0.514   6.806   1.939  0.00  0.00    +0.005 A 
ATOM     35  C   UNL     1       0.576   7.621   2.183  0.00  0.00    +0.000 A 
ATOM     36  C   UNL     1       1.449   7.933   1.157  0.00  0.00    +0.000 A 
ATOM     37  C   UNL     1       1.234   7.426  -0.111  0.00  0.00    +0.000 A 
ATOM     38  C   UNL     1       0.148   6.607  -0.353  0.00  0.00    +0.005 A 
ENDBRANCH  32  33
ENDBRANCH  12  32
TORSDOF 6
