REMARK  Name = ZINC14356841
REMARK  13 active torsions:
REMARK  status: ('A' for Active; 'I' for Inactive)
REMARK    1  A    between atoms: C_1  and  C_2
REMARK    2  A    between atoms: C_2  and  N_62
REMARK    3  A    between atoms: C_3  and  C_4
REMARK    4  A    between atoms: C_3  and  N_62
REMARK    5  A    between atoms: C_5  and  C_6
REMARK    6  A    between atoms: C_5  and  N_62
REMARK    7  A    between atoms: C_6  and  N_7
REMARK    8  A    between atoms: C_8  and  C_10
REMARK    9  A    between atoms: C_13  and  N_16
REMARK   10  A    between atoms: C_17  and  C_19
REMARK   11  A    between atoms: C_24  and  N_25
REMARK   12  A    between atoms: N_25  and  S_26
REMARK   13  A    between atoms: S_26  and  C_29
REMARK                            x       y       z     vdW  Elec       q    Type
REMARK                         _______ _______ _______ _____ _____    ______ ____
ROOT
ATOM      1  N   UNL     1      -3.256   1.952   0.991  0.00  0.00    -0.281 N 
ATOM      2  C   UNL     1      -4.254   1.228   1.536  0.00  0.00    +0.250 C 
ATOM      3  O   UNL     1      -3.997   0.308   2.288  0.00  0.00    -0.270 OA
ATOM      4  H   UNL     1      -3.460   2.731   0.452  0.00  0.00    +0.155 HD
ENDROOT
BRANCH   1   8
ATOM      5  C   UNL     1       0.707   0.839   1.623  0.00  0.00    +0.037 A 
ATOM      6  C   UNL     1       0.367   2.191   1.524  0.00  0.00    +0.015 A 
ATOM      7  C   UNL     1      -0.943   2.555   1.310  0.00  0.00    +0.024 A 
ATOM      8  C   UNL     1      -1.930   1.579   1.202  0.00  0.00    +0.034 A 
ATOM      9  C   UNL     1      -1.595   0.233   1.305  0.00  0.00    +0.024 A 
ATOM     10  C   UNL     1      -0.286  -0.139   1.514  0.00  0.00    +0.015 A 
BRANCH   5  12
ATOM     11  N   UNL     1       3.069   1.388   1.946  0.00  0.00    -0.313 N 
ATOM     12  C   UNL     1       2.112   0.444   1.847  0.00  0.00    +0.244 C 
ATOM     13  O   UNL     1       2.406  -0.732   1.938  0.00  0.00    -0.270 OA
ATOM     14  H   UNL     1       2.834   2.326   1.874  0.00  0.00    +0.149 HD
BRANCH  11  15
ATOM     15  C   UNL     1       4.464   0.996   2.163  0.00  0.00    +0.086 C 
BRANCH  15  16
ATOM     16  C   UNL     1       5.340   2.248   2.238  0.00  0.00    -0.060 C 
BRANCH  16  17
ATOM     17  N   UNL     1       6.739   1.838   2.478  0.00  0.00    +0.380 N 
ATOM     18  H   UNL     1       6.767   1.205   3.286  0.00  0.00    -0.082 HD
BRANCH  17  20
ATOM     19  C   UNL     1       7.129   1.996   0.041  0.00  0.00    -0.017 C 
ATOM     20  C   UNL     1       7.267   1.128   1.294  0.00  0.00    -0.082 C 
ENDBRANCH  17  20
BRANCH  17  21
ATOM     21  C   UNL     1       7.571   3.025   2.768  0.00  0.00    -0.082 C 
ATOM     22  C   UNL     1       8.974   2.561   3.163  0.00  0.00    -0.017 C 
ENDBRANCH  17  21
ENDBRANCH  16  17
ENDBRANCH  15  16
ENDBRANCH  11  15
ENDBRANCH   5  12
ENDBRANCH   1   8
BRANCH   2  23
ATOM     23  C   UNL     1      -5.657   1.553   1.220  0.00  0.00    +0.059 A 
ATOM     24  C   UNL     1      -5.957   2.613   0.360  0.00  0.00    +0.015 A 
ATOM     25  C   UNL     1      -7.269   2.908   0.065  0.00  0.00    +0.001 A 
ATOM     26  C   UNL     1      -8.297   2.164   0.624  0.00  0.00    +0.002 A 
ATOM     27  C   UNL     1      -8.018   1.118   1.479  0.00  0.00    +0.025 A 
ATOM     28  C   UNL     1      -6.699   0.802   1.785  0.00  0.00    +0.060 A 
BRANCH  28  29
ATOM     29  N   UNL     1      -6.416  -0.250   2.645  0.00  0.00    -0.215 N 
ATOM     30  H   UNL     1      -5.663  -0.189   3.254  0.00  0.00    +0.174 HD
BRANCH  29  31
ATOM     31  S   UNL     1      -7.361  -1.610   2.631  0.00  0.00    +0.079 S 
ATOM     32  O   UNL     1      -6.738  -2.547   3.498  0.00  0.00    -0.149 OA
ATOM     33  O   UNL     1      -8.701  -1.174   2.817  0.00  0.00    -0.149 OA
BRANCH  31  34
ATOM     34  C   UNL     1      -7.273  -2.289   1.007  0.00  0.00    +0.146 A 
ATOM     35  C   UNL     1      -6.400  -3.198   0.509  0.00  0.00    +0.036 A 
ATOM     36  C   UNL     1      -6.522  -3.591  -0.811  0.00  0.00    +0.010 A 
ATOM     37  C   UNL     1      -7.511  -3.055  -1.567  0.00  0.00    +0.047 A 
ATOM     38  S   UNL     1      -8.315  -1.963  -0.406  0.00  0.00    -0.077 S 
ENDBRANCH  31  34
ENDBRANCH  29  31
ENDBRANCH  28  29
ENDBRANCH   2  23
TORSDOF 11
