REMARK  Name = ZINC05949395
REMARK  11 active torsions:
REMARK  status: ('A' for Active; 'I' for Inactive)
REMARK    1  A    between atoms: C_1  and  C_2
REMARK    2  A    between atoms: C_2  and  O_3
REMARK    3  A    between atoms: O_3  and  C_4
REMARK    4  A    between atoms: C_7  and  C_13
REMARK    5  A    between atoms: C_9  and  N_10
REMARK    6  A    between atoms: N_15  and  C_16
REMARK    7  A    between atoms: C_16  and  N_18
REMARK    8  A    between atoms: N_18  and  C_19
REMARK    9  A    between atoms: C_21  and  C_35
REMARK   10  A    between atoms: C_22  and  O_34
REMARK   11  A    between atoms: C_23  and  C_25
REMARK                            x       y       z     vdW  Elec       q    Type
REMARK                         _______ _______ _______ _____ _____    ______ ____
ROOT
ATOM      1  N   UNL     1       0.191  -9.012   0.052  0.00  0.00    -0.297 N 
ATOM      2  H   UNL     1      -0.067  -8.617  -0.795  0.00  0.00    +0.154 HD
ENDROOT
BRANCH   1   3
ATOM      3  C   UNL     1       0.393 -10.395   0.148  0.00  0.00    +0.034 A 
ATOM      4  C   UNL     1      -0.149 -11.103   1.215  0.00  0.00    +0.030 A 
ATOM      5  C   UNL     1       0.045 -12.466   1.316  0.00  0.00    -0.007 A 
ATOM      6  C   UNL     1       0.781 -13.139   0.354  0.00  0.00    +0.132 A 
ATOM      7  C   UNL     1       1.329 -12.432  -0.724  0.00  0.00    +0.080 A 
ATOM      8  C   UNL     1       1.126 -11.055  -0.824  0.00  0.00    +0.040 A 
ATOM      9  C   UNL     1      -0.545 -13.225   2.477  0.00  0.00    +0.047 C 
BRANCH   7  10
ATOM     10  C   UNL     1       2.115 -13.142  -1.753  0.00  0.00    +0.232 A 
ATOM     11  N   UNL     1       2.356 -14.430  -1.759  0.00  0.00    -0.209 NA
ATOM     12  C   UNL     1       3.107 -14.728  -2.850  0.00  0.00    +0.110 A 
ATOM     13  C   UNL     1       3.647 -15.914  -3.354  0.00  0.00    +0.031 A 
ATOM     14  C   UNL     1       4.383 -15.889  -4.517  0.00  0.00    +0.002 A 
ATOM     15  C   UNL     1       4.592 -14.694  -5.191  0.00  0.00    +0.004 A 
ATOM     16  C   UNL     1       4.065 -13.516  -4.705  0.00  0.00    +0.048 A 
ATOM     17  C   UNL     1       3.320 -13.521  -3.536  0.00  0.00    +0.156 A 
ATOM     18  O   UNL     1       2.685 -12.562  -2.827  0.00  0.00    -0.435 OA
ENDBRANCH   7  10
BRANCH   6  19
ATOM     19  O   UNL     1       0.971 -14.480   0.456  0.00  0.00    -0.506 OA
ATOM     20  H   UNL     1       0.289 -15.008   0.019  0.00  0.00    +0.292 HD
ENDBRANCH   6  19
ENDBRANCH   1   3
BRANCH   1  21
ATOM     21  C   UNL     1       0.357  -8.231   1.138  0.00  0.00    +0.141 C 
ATOM     22  S   UNL     1       0.706  -8.939   2.657  0.00  0.00    -0.018 S 
BRANCH  21  25
ATOM     23  C   UNL     1       0.412  -6.111   2.114  0.00  0.00    +0.250 C 
ATOM     24  O   UNL     1       0.660  -6.613   3.192  0.00  0.00    -0.270 OA
ATOM     25  N   UNL     1       0.247  -6.892   1.028  0.00  0.00    -0.264 N 
ATOM     26  H   UNL     1       0.049  -6.491   0.167  0.00  0.00    +0.157 HD
BRANCH  23  30
ATOM     27  C   UNL     1       0.066  -1.893   1.767  0.00  0.00    +0.151 A 
ATOM     28  C   UNL     1      -0.104  -2.697   0.645  0.00  0.00    +0.049 A 
ATOM     29  C   UNL     1       0.007  -4.065   0.754  0.00  0.00    +0.017 A 
ATOM     30  C   UNL     1       0.292  -4.645   1.993  0.00  0.00    +0.039 A 
ATOM     31  C   UNL     1       0.463  -3.833   3.118  0.00  0.00    +0.049 A 
ATOM     32  C   UNL     1       0.355  -2.466   3.000  0.00  0.00    +0.168 A 
BRANCH  32  33
ATOM     33  N   UNL     1       0.541  -1.604   4.189  0.00  0.00    +0.060 N 
ATOM     34  O   UNL     1       0.793  -2.101   5.262  0.00  0.00    -0.126 OA
ATOM     35  O   UNL     1       0.441  -0.404   4.088  0.00  0.00    -0.126 OA
ENDBRANCH  32  33
BRANCH  27  36
ATOM     36  O   UNL     1      -0.046  -0.545   1.656  0.00  0.00    -0.490 OA
BRANCH  36  38
ATOM     37  C   UNL     1      -0.430   1.503   0.432  0.00  0.00    +0.048 C 
ATOM     38  C   UNL     1      -0.344  -0.023   0.360  0.00  0.00    +0.226 C 
ENDBRANCH  36  38
ENDBRANCH  27  36
ENDBRANCH  23  30
ENDBRANCH  21  25
ENDBRANCH   1  21
TORSDOF 9
