REMARK  Name = ZINC43147353
REMARK  10 active torsions:
REMARK  status: ('A' for Active; 'I' for Inactive)
REMARK    1  A    between atoms: C_1  and  C_2
REMARK    2  A    between atoms: C_5  and  S_8
REMARK    3  A    between atoms: S_8  and  C_9
REMARK    4  A    between atoms: C_9  and  C_10
REMARK    5  A    between atoms: N_12  and  N_13
REMARK    6  A    between atoms: N_16  and  C_17
REMARK    7  A    between atoms: C_17  and  C_18
REMARK    8  A    between atoms: C_18  and  N_23
REMARK    9  A    between atoms: N_23  and  C_24
REMARK   10  A    between atoms: N_23  and  C_25
REMARK                            x       y       z     vdW  Elec       q    Type
REMARK                         _______ _______ _______ _____ _____    ______ ____
ROOT
ATOM      1  N   UNL     1      -0.345  -8.659   3.298  0.00  0.00    -0.218 N 
ATOM      2  C   UNL     1      -0.156  -9.168   4.532  0.00  0.00    +0.316 C 
ATOM      3  O   UNL     1      -0.047 -10.370   4.683  0.00  0.00    -0.251 OA
ATOM      4  N   UNL     1      -0.087  -8.346   5.597  0.00  0.00    -0.300 N 
ATOM      5  H   UNL     1      -0.395  -9.251   2.531  0.00  0.00    +0.174 HD
ATOM      6  H   UNL     1      -0.174  -7.387   5.476  0.00  0.00    +0.150 HD
ENDROOT
BRANCH   1   9
ATOM      7  C   UNL     1      -0.660  -6.765   1.890  0.00  0.00    +0.239 C 
ATOM      8  O   UNL     1      -0.722  -7.506   0.931  0.00  0.00    -0.273 OA
ATOM      9  N   UNL     1      -0.471  -7.275   3.124  0.00  0.00    -0.233 N 
ATOM     10  H   UNL     1      -0.421  -6.683   3.890  0.00  0.00    +0.173 HD
BRANCH   7  11
ATOM     11  C   UNL     1      -0.795  -5.276   1.702  0.00  0.00    +0.171 C 
BRANCH  11  12
ATOM     12  S   UNL     1      -1.038  -4.908  -0.057  0.00  0.00    -0.116 S 
BRANCH  12  17
ATOM     13  C   UNL     1      -1.514   1.106  -0.239  0.00  0.00    +0.044 C 
ATOM     14  C   UNL     1      -1.395  -0.395  -0.194  0.00  0.00    -0.050 A 
ATOM     15  C   UNL     1      -1.482  -1.130  -1.362  0.00  0.00    +0.004 A 
ATOM     16  C   UNL     1      -1.373  -2.506  -1.325  0.00  0.00    +0.015 A 
ATOM     17  C   UNL     1      -1.176  -3.152  -0.110  0.00  0.00    +0.008 A 
ATOM     18  C   UNL     1      -1.089  -2.411   1.062  0.00  0.00    +0.015 A 
ATOM     19  C   UNL     1      -1.193  -1.035   1.016  0.00  0.00    +0.004 A 
ENDBRANCH  12  17
ENDBRANCH  11  12
ENDBRANCH   7  11
ENDBRANCH   1   9
BRANCH   4  20
ATOM     20  C   UNL     1       0.118  -8.899   6.938  0.00  0.00    +0.094 C 
BRANCH  20  21
ATOM     21  C   UNL     1       0.271  -7.756   7.944  0.00  0.00    -0.050 C 
ATOM     22  C   UNL     1       1.538  -6.937   7.625  0.00  0.00    -0.010 C 
ATOM     23  C   UNL     1       2.104  -6.556   9.015  0.00  0.00    -0.001 C 
ATOM     24  C   UNL     1       1.834  -7.829   9.855  0.00  0.00    -0.001 C 
ATOM     25  C   UNL     1       0.459  -8.324   9.361  0.00  0.00    -0.010 C 
BRANCH  21  26
ATOM     26  N   UNL     1      -0.914  -6.889   7.902  0.00  0.00    +0.381 N 
ATOM     27  C   UNL     1      -2.103  -7.665   8.278  0.00  0.00    -0.096 C 
ATOM     28  C   UNL     1      -0.739  -5.775   8.843  0.00  0.00    -0.096 C 
ATOM     29  H   UNL     1      -1.032  -6.525   6.968  0.00  0.00    -0.082 HD
ENDBRANCH  21  26
ENDBRANCH  20  21
ENDBRANCH   4  20
TORSDOF 7
