REMARK  Name = ZINC27101766
REMARK  2 active torsions:
REMARK  status: ('A' for Active; 'I' for Inactive)
REMARK    1  A    between atoms: C_12  and  C_14
REMARK    2  A    between atoms: C_22  and  C_24
REMARK                            x       y       z     vdW  Elec       q    Type
REMARK                         _______ _______ _______ _____ _____    ______ ____
ROOT
ATOM      1  C   UNL     1       0.453  -1.330   2.025  0.00  0.00    +0.253 C 
ATOM      2  O   UNL     1      -0.655  -1.791   1.825  0.00  0.00    -0.269 OA
ATOM      3  N   UNL     1       0.868  -0.249   1.336  0.00  0.00    -0.294 N 
ATOM      4  C   UNL     1       0.042   0.313   0.257  0.00  0.00    +0.127 C 
ATOM      5  C   UNL     1      -0.207   1.797   0.553  0.00  0.00    +0.127 C 
ATOM      6  N   UNL     1       1.078   2.436   0.867  0.00  0.00    -0.295 N 
ATOM      7  C   UNL     1       1.904   1.874   1.945  0.00  0.00    +0.127 C 
ATOM      8  C   UNL     1       2.154   0.390   1.649  0.00  0.00    +0.127 C 
ATOM      9  C   UNL     1       1.493   3.517   0.177  0.00  0.00    +0.260 C 
ATOM     10  O   UNL     1       0.763   4.028  -0.645  0.00  0.00    -0.271 OA
ENDROOT
BRANCH   1  22
ATOM     11  C   UNL     1       6.598  -4.136   6.896  0.00  0.00    +0.000 A 
ATOM     12  C   UNL     1       6.779  -3.099   5.998  0.00  0.00    +0.001 A 
ATOM     13  C   UNL     1       5.723  -2.668   5.218  0.00  0.00    +0.009 A 
ATOM     14  C   UNL     1       4.480  -3.275   5.347  0.00  0.00    -0.008 A 
ATOM     15  C   UNL     1       4.309  -4.358   6.224  0.00  0.00    -0.039 A 
ATOM     16  C   UNL     1       5.370  -4.763   7.006  0.00  0.00    +0.004 A 
ATOM     17  C   UNL     1       3.000  -5.093   6.268  0.00  0.00    +0.040 C 
ATOM     18  C   UNL     1       1.793  -4.180   6.093  0.00  0.00    +0.041 C 
ATOM     19  C   UNL     1       2.003  -3.267   4.891  0.00  0.00    -0.032 A 
ATOM     20  C   UNL     1       3.306  -2.864   4.583  0.00  0.00    +0.023 A 
ATOM     21  S   UNL     1       3.113  -1.820   3.175  0.00  0.00    -0.083 S 
ATOM     22  C   UNL     1       1.337  -1.951   3.015  0.00  0.00    +0.075 A 
ATOM     23  C   UNL     1       1.010  -2.786   4.073  0.00  0.00    +0.025 A 
ENDBRANCH   1  22
BRANCH   9  24
ATOM     24  C   UNL     1       2.863   4.091   0.429  0.00  0.00    +0.296 C 
ATOM     25  C   UNL     1       3.933   3.139  -0.123  0.00  0.00    +0.283 C 
ATOM     26  O   UNL     1       5.218   3.719   0.120  0.00  0.00    -0.484 OA
ATOM     27  C   UNL     1       5.362   5.037  -0.187  0.00  0.00    +0.162 A 
ATOM     28  C   UNL     1       6.636   5.570  -0.321  0.00  0.00    +0.049 A 
ATOM     29  C   UNL     1       6.798   6.907  -0.629  0.00  0.00    +0.004 A 
ATOM     30  C   UNL     1       5.692   7.718  -0.805  0.00  0.00    +0.004 A 
ATOM     31  C   UNL     1       4.420   7.193  -0.675  0.00  0.00    +0.049 A 
ATOM     32  C   UNL     1       4.250   5.851  -0.367  0.00  0.00    +0.163 A 
ATOM     33  O   UNL     1       2.992   5.348  -0.245  0.00  0.00    -0.473 OA
ENDBRANCH   9  24
TORSDOF 2
