REMARK  Name = ZINC63311897
REMARK  12 active torsions:
REMARK  status: ('A' for Active; 'I' for Inactive)
REMARK    1  A    between atoms: C_1  and  C_2
REMARK    2  A    between atoms: C_2  and  C_3
REMARK    3  A    between atoms: C_2  and  C_4
REMARK    4  A    between atoms: C_2  and  N_5
REMARK    5  A    between atoms: C_6  and  S_8
REMARK    6  A    between atoms: S_8  and  C_9
REMARK    7  A    between atoms: C_9  and  C_10
REMARK    8  A    between atoms: C_10  and  C_11
REMARK    9  A    between atoms: C_11  and  O_12
REMARK   10  A    between atoms: O_12  and  C_13
REMARK   11  A    between atoms: C_16  and  S_19
REMARK   12  A    between atoms: S_19  and  C_22
REMARK                            x       y       z     vdW  Elec       q    Type
REMARK                         _______ _______ _______ _____ _____    ______ ____
ROOT
ATOM      1  C   UNL     1       5.432   1.406  -0.148  0.00  0.00    +0.052 C 
ENDROOT
BRANCH   1   2
ATOM      2  C   UNL     1       4.493   0.552  -1.002  0.00  0.00    +0.080 C 
BRANCH   2   3
ATOM      3  S   UNL     1       2.817   0.622  -0.312  0.00  0.00    -0.093 S 
BRANCH   3   5
ATOM      4  N   UNL     1       0.594  -0.567  -1.177  0.00  0.00    -0.363 N 
ATOM      5  C   UNL     1       1.869  -0.398  -1.393  0.00  0.00    +0.126 C 
ATOM      6  N   UNL     1       2.474  -1.015  -2.463  0.00  0.00    -0.339 N 
ATOM      7  H   UNL     1       1.952  -1.576  -3.058  0.00  0.00    +0.144 HD
ATOM      8  H   UNL     1       3.422  -0.889  -2.623  0.00  0.00    +0.144 HD
ATOM      9  H   UNL     1       0.054  -1.054  -1.819  0.00  0.00    +0.162 HD
BRANCH   4  11
ATOM     10  C   UNL     1       0.081   1.504   0.018  0.00  0.00    +0.033 C 
ATOM     11  C   UNL     1      -0.023  -0.022   0.035  0.00  0.00    +0.032 C 
ATOM     12  C   UNL     1       0.702  -0.569   1.266  0.00  0.00    +0.033 C 
ATOM     13  C   UNL     1      -1.496  -0.433   0.086  0.00  0.00    +0.033 C 
ENDBRANCH   4  11
ENDBRANCH   3   5
ENDBRANCH   2   3
ENDBRANCH   1   2
BRANCH   1  14
ATOM     14  C   UNL     1       6.846   1.347  -0.730  0.00  0.00    +0.230 C 
BRANCH  14  15
ATOM     15  O   UNL     1       7.723   2.145   0.068  0.00  0.00    -0.492 OA
BRANCH  15  16
ATOM     16  C   UNL     1       9.026   2.201  -0.315  0.00  0.00    +0.121 A 
ATOM     17  C   UNL     1       9.450   1.507  -1.439  0.00  0.00    +0.047 A 
ATOM     18  C   UNL     1      10.775   1.566  -1.826  0.00  0.00    +0.030 A 
ATOM     19  C   UNL     1      11.678   2.316  -1.095  0.00  0.00    +0.088 A 
ATOM     20  C   UNL     1      11.257   3.008   0.026  0.00  0.00    +0.030 A 
ATOM     21  C   UNL     1       9.932   2.957   0.414  0.00  0.00    +0.047 A 
BRANCH  19  22
ATOM     22  S   UNL     1      13.367   2.389  -1.591  0.00  0.00    -0.006 S 
ATOM     23  O   UNL     1      14.084   2.666  -0.397  0.00  0.00    -0.170 OA
ATOM     24  O   UNL     1      13.587   1.180  -2.305  0.00  0.00    -0.170 OA
ATOM     25  C   UNL     1      13.460   3.806  -2.720  0.00  0.00    +0.200 C 
ENDBRANCH  19  22
ENDBRANCH  15  16
ENDBRANCH  14  15
ENDBRANCH   1  14
TORSDOF 8
