REMARK  Name = ZINC67389805
REMARK  11 active torsions:
REMARK  status: ('A' for Active; 'I' for Inactive)
REMARK    1  A    between atoms: C_1  and  C_2
REMARK    2  A    between atoms: C_2  and  C_4
REMARK    3  A    between atoms: C_2  and  N_15
REMARK    4  A    between atoms: C_8  and  S_10
REMARK    5  A    between atoms: S_10  and  N_13
REMARK    6  A    between atoms: N_13  and  C_14
REMARK    7  A    between atoms: N_18  and  C_19
REMARK    8  A    between atoms: C_19  and  C_20
REMARK    9  A    between atoms: C_25  and  N_26
REMARK   10  A    between atoms: N_26  and  C_27
REMARK   11  A    between atoms: N_26  and  C_28
REMARK                            x       y       z     vdW  Elec       q    Type
REMARK                         _______ _______ _______ _____ _____    ______ ____
ROOT
ATOM      1  N   UNL     1       0.178  -0.234  -1.399  0.00  0.00    -0.293 N 
ATOM      2  C   UNL     1      -0.414  -0.520  -2.575  0.00  0.00    +0.300 C 
ATOM      3  O   UNL     1      -1.617  -0.389  -2.697  0.00  0.00    -0.253 OA
ATOM      4  N   UNL     1       0.326  -0.952  -3.615  0.00  0.00    -0.295 N 
ATOM      5  H   UNL     1       1.138  -0.338  -1.302  0.00  0.00    +0.151 HD
ATOM      6  H   UNL     1       1.285  -1.056  -3.518  0.00  0.00    +0.151 HD
ENDROOT
BRANCH   1   8
ATOM      7  C   UNL     1      -0.818   1.750  -0.373  0.00  0.00    +0.033 C 
ATOM      8  C   UNL     1      -0.626   0.236  -0.268  0.00  0.00    +0.102 C 
BRANCH   8   9
ATOM      9  C   UNL     1       0.081  -0.093   1.022  0.00  0.00    -0.026 A 
ATOM     10  C   UNL     1       1.452   0.059   1.117  0.00  0.00    +0.005 A 
ATOM     11  C   UNL     1       2.100  -0.243   2.300  0.00  0.00    +0.002 A 
ATOM     12  C   UNL     1       1.377  -0.695   3.388  0.00  0.00    +0.028 A 
ATOM     13  C   UNL     1       0.006  -0.846   3.293  0.00  0.00    +0.106 A 
ATOM     14  C   UNL     1      -0.643  -0.540   2.111  0.00  0.00    +0.034 A 
BRANCH  13  15
ATOM     15  S   UNL     1      -0.915  -1.423   4.680  0.00  0.00    +0.058 S 
ATOM     16  O   UNL     1      -2.109  -1.996   4.165  0.00  0.00    -0.153 OA
ATOM     17  O   UNL     1      -0.008  -2.154   5.494  0.00  0.00    -0.153 OA
BRANCH  15  18
ATOM     18  N   UNL     1      -1.368  -0.092   5.555  0.00  0.00    -0.193 NA
ATOM     19  C   UNL     1      -2.291   0.887   4.974  0.00  0.00    +0.127 C 
ATOM     20  H   UNL     1      -1.023   0.040   6.452  0.00  0.00    +0.148 HD
ENDBRANCH  15  18
ENDBRANCH  13  15
ENDBRANCH   8   9
ENDBRANCH   1   8
BRANCH   4  21
ATOM     21  C   UNL     1      -0.319  -1.264  -4.894  0.00  0.00    +0.144 C 
BRANCH  21  22
ATOM     22  C   UNL     1       0.722  -1.722  -5.882  0.00  0.00    +0.008 A 
ATOM     23  C   UNL     1       1.188  -0.860  -6.860  0.00  0.00    +0.010 A 
ATOM     24  C   UNL     1       2.147  -1.324  -7.750  0.00  0.00    +0.018 A 
ATOM     25  C   UNL     1       2.604  -2.622  -7.635  0.00  0.00    +0.084 A 
ATOM     26  N   UNL     1       2.142  -3.422  -6.693  0.00  0.00    -0.349 N 
ATOM     27  C   UNL     1       1.232  -3.014  -5.822  0.00  0.00    +0.103 A 
ATOM     28  H   UNL     1       2.480  -4.329  -6.635  0.00  0.00    +0.167 HD
BRANCH  27  29
ATOM     29  N   UNL     1       0.777  -3.889  -4.841  0.00  0.00    -0.323 N 
ATOM     30  C   UNL     1      -0.400  -4.724  -5.093  0.00  0.00    +0.130 C 
ATOM     31  C   UNL     1       1.474  -3.974  -3.556  0.00  0.00    +0.130 C 
ENDBRANCH  27  29
ENDBRANCH  21  22
ENDBRANCH   4  21
TORSDOF 7
