REMARK  Name = ZINC63710946
REMARK  9 active torsions:
REMARK  status: ('A' for Active; 'I' for Inactive)
REMARK    1  A    between atoms: C_1  and  C_2
REMARK    2  A    between atoms: C_2  and  C_3
REMARK    3  A    between atoms: C_2  and  N_4
REMARK    4  A    between atoms: C_8  and  C_10
REMARK    5  A    between atoms: C_10  and  N_11
REMARK    6  A    between atoms: C_12  and  C_14
REMARK    7  A    between atoms: C_14  and  N_15
REMARK    8  A    between atoms: N_18  and  C_19
REMARK    9  A    between atoms: C_19  and  C_20
REMARK                            x       y       z     vdW  Elec       q    Type
REMARK                         _______ _______ _______ _____ _____    ______ ____
ROOT
ATOM      1  N   UNL     1      -5.700  -0.320  -2.272  0.00  0.00    -0.314 N 
ATOM      2  C   UNL     1      -6.548   0.029  -3.260  0.00  0.00    +0.230 C 
ATOM      3  O   UNL     1      -6.136   0.626  -4.231  0.00  0.00    -0.274 OA
ATOM      4  H   UNL     1      -6.030  -0.798  -1.495  0.00  0.00    +0.149 HD
ENDROOT
BRANCH   1   5
ATOM      5  C   UNL     1      -4.279   0.022  -2.373  0.00  0.00    +0.106 C 
BRANCH   5  10
ATOM      6  N   UNL     1      -1.376  -0.512   0.012  0.00  0.00    +0.381 N 
ATOM      7  C   UNL     1      -1.355  -1.980   0.013  0.00  0.00    -0.078 C 
ATOM      8  C   UNL     1      -2.785  -2.515   0.106  0.00  0.00    -0.018 C 
ATOM      9  C   UNL     1      -3.590  -2.015  -1.097  0.00  0.00    +0.001 C 
ATOM     10  C   UNL     1      -3.543  -0.485  -1.130  0.00  0.00    -0.011 C 
ATOM     11  C   UNL     1      -2.085  -0.025  -1.177  0.00  0.00    -0.074 C 
ATOM     12  H   UNL     1      -1.848  -0.185   0.842  0.00  0.00    -0.081 HD
BRANCH   6  14
ATOM     13  C   UNL     1      -0.019   1.526   0.010  0.00  0.00    -0.014 C 
ATOM     14  C   UNL     1       0.002  -0.004   0.002  0.00  0.00    -0.075 C 
ATOM     15  C   UNL     1       0.742  -0.511   1.242  0.00  0.00    -0.014 C 
ENDBRANCH   6  14
ENDBRANCH   5  10
ENDBRANCH   1   5
BRANCH   2  16
ATOM     16  C   UNL     1      -8.010  -0.323  -3.156  0.00  0.00    +0.201 C 
BRANCH  16  17
ATOM     17  N   UNL     1      -8.714   0.162  -4.346  0.00  0.00    -0.291 N 
ATOM     18  C   UNL     1     -10.041  -0.040  -4.473  0.00  0.00    +0.300 C 
ATOM     19  O   UNL     1     -10.653  -0.626  -3.601  0.00  0.00    -0.253 OA
ATOM     20  N   UNL     1     -10.689   0.406  -5.567  0.00  0.00    -0.292 N 
ATOM     21  H   UNL     1      -8.226   0.629  -5.042  0.00  0.00    +0.151 HD
ATOM     22  H   UNL     1     -10.200   0.873  -6.263  0.00  0.00    +0.151 HD
BRANCH  20  23
ATOM     23  C   UNL     1     -12.130   0.186  -5.706  0.00  0.00    +0.180 C 
BRANCH  23  24
ATOM     24  C   UNL     1     -12.606   0.777  -7.008  0.00  0.00    +0.122 A 
ATOM     25  C   UNL     1     -12.666   0.135  -8.188  0.00  0.00    +0.046 A 
ATOM     26  C   UNL     1     -13.167   1.060  -9.133  0.00  0.00    +0.041 A 
ATOM     27  C   UNL     1     -13.384   2.212  -8.473  0.00  0.00    +0.195 A 
ATOM     28  O   UNL     1     -13.047   2.033  -7.185  0.00  0.00    -0.466 OA
ENDBRANCH  23  24
ENDBRANCH  20  23
ENDBRANCH  16  17
ENDBRANCH   2  16
TORSDOF 7
