REMARK  Name = ZINC52659598
REMARK  9 active torsions:
REMARK  status: ('A' for Active; 'I' for Inactive)
REMARK    1  A    between atoms: C_1  and  N_2
REMARK    2  A    between atoms: C_3  and  C_5
REMARK    3  A    between atoms: C_8  and  N_11
REMARK    4  A    between atoms: N_14  and  C_15
REMARK    5  A    between atoms: C_15  and  C_16
REMARK    6  A    between atoms: C_16  and  C_18
REMARK    7  A    between atoms: C_16  and  N_26
REMARK    8  A    between atoms: C_21  and  O_24
REMARK    9  A    between atoms: O_24  and  C_25
REMARK                            x       y       z     vdW  Elec       q    Type
REMARK                         _______ _______ _______ _____ _____    ______ ____
ROOT
ATOM      1  N   UNL     1       0.938  -7.215   6.038  0.00  0.00    -0.269 N 
ATOM      2  C   UNL     1       1.355  -7.485   4.786  0.00  0.00    +0.304 C 
ATOM      3  O   UNL     1       1.833  -6.601   4.101  0.00  0.00    -0.253 OA
ATOM      4  N   UNL     1       1.244  -8.734   4.293  0.00  0.00    -0.300 N 
ATOM      5  H   UNL     1       0.622  -7.933   6.610  0.00  0.00    +0.156 HD
ATOM      6  H   UNL     1       0.863  -9.439   4.839  0.00  0.00    +0.150 HD
ENDROOT
BRANCH   1  10
ATOM      7  C   UNL     1       1.001  -3.299   7.457  0.00  0.00    +0.037 A 
ATOM      8  C   UNL     1       2.004  -3.747   6.593  0.00  0.00    +0.015 A 
ATOM      9  C   UNL     1       1.980  -5.042   6.126  0.00  0.00    +0.024 A 
ATOM     10  C   UNL     1       0.959  -5.904   6.513  0.00  0.00    +0.035 A 
ATOM     11  C   UNL     1      -0.041  -5.461   7.373  0.00  0.00    +0.024 A 
ATOM     12  C   UNL     1      -0.020  -4.169   7.848  0.00  0.00    +0.015 A 
BRANCH   7  15
ATOM     13  C   UNL     1       2.032   0.303   8.081  0.00  0.00    +0.128 C 
ATOM     14  N   UNL     1       2.009  -1.074   7.581  0.00  0.00    -0.314 N 
ATOM     15  C   UNL     1       1.024  -1.912   7.960  0.00  0.00    +0.244 C 
ATOM     16  O   UNL     1       0.153  -1.525   8.716  0.00  0.00    -0.270 OA
ATOM     17  H   UNL     1       2.704  -1.383   6.979  0.00  0.00    +0.149 HD
ENDBRANCH   7  15
ENDBRANCH   1  10
BRANCH   4  18
ATOM     18  C   UNL     1       1.698  -9.027   2.931  0.00  0.00    +0.095 C 
BRANCH  18  19
ATOM     19  C   UNL     1       1.349 -10.475   2.578  0.00  0.00    -0.020 C 
BRANCH  19  20
ATOM     20  C   UNL     1       2.133 -11.410   3.461  0.00  0.00    -0.059 A 
ATOM     21  C   UNL     1       3.456 -11.688   3.170  0.00  0.00    +0.005 A 
ATOM     22  C   UNL     1       4.176 -12.546   3.978  0.00  0.00    +0.046 A 
ATOM     23  C   UNL     1       3.572 -13.129   5.083  0.00  0.00    +0.120 A 
ATOM     24  C   UNL     1       2.245 -12.848   5.373  0.00  0.00    +0.046 A 
ATOM     25  C   UNL     1       1.530 -11.985   4.565  0.00  0.00    +0.005 A 
BRANCH  23  26
ATOM     26  O   UNL     1       4.279 -13.973   5.879  0.00  0.00    -0.495 OA
ATOM     27  C   UNL     1       3.592 -14.536   6.999  0.00  0.00    +0.277 C 
ENDBRANCH  23  26
ENDBRANCH  19  20
BRANCH  19  28
ATOM     28  N   UNL     1       1.687 -10.730   1.171  0.00  0.00    +0.385 N 
ATOM     29  C   UNL     1       1.194 -12.070   0.761  0.00  0.00    -0.078 C 
ATOM     30  C   UNL     1       1.106 -11.958  -0.782  0.00  0.00    -0.020 C 
ATOM     31  C   UNL     1       0.616 -10.508  -0.996  0.00  0.00    -0.020 C 
ATOM     32  C   UNL     1       0.995  -9.760   0.295  0.00  0.00    -0.078 C 
ATOM     33  H   UNL     1       2.686 -10.670   1.037  0.00  0.00    -0.081 HD
ENDBRANCH  19  28
ENDBRANCH  18  19
ENDBRANCH   4  18
TORSDOF 7
