REMARK  Name = ZINC39683512
REMARK  9 active torsions:
REMARK  status: ('A' for Active; 'I' for Inactive)
REMARK    1  A    between atoms: C_1  and  C_2
REMARK    2  A    between atoms: C_2  and  C_3
REMARK    3  A    between atoms: C_3  and  C_4
REMARK    4  A    between atoms: C_4  and  N_5
REMARK    5  A    between atoms: C_8  and  C_11
REMARK    6  A    between atoms: C_11  and  N_12
REMARK    7  A    between atoms: C_13  and  C_15
REMARK    8  A    between atoms: C_26  and  C_28
REMARK    9  A    between atoms: C_34  and  C_36
REMARK                            x       y       z     vdW  Elec       q    Type
REMARK                         _______ _______ _______ _____ _____    ______ ____
ROOT
ATOM      1  C   UNL     1       3.462  -8.190   7.143  0.00  0.00    +0.100 C 
ATOM      2  C   UNL     1       4.063  -8.716   5.821  0.00  0.00    +0.121 C 
ATOM      3  N   UNL     1       5.512  -8.855   6.097  0.00  0.00    -0.300 N 
ATOM      4  C   UNL     1       5.574  -9.380   7.482  0.00  0.00    +0.115 C 
ATOM      5  C   UNL     1       4.454  -8.630   8.231  0.00  0.00    -0.004 C 
ATOM      6  C   UNL     1       3.769  -9.562   9.226  0.00  0.00    -0.010 C 
ATOM      7  C   UNL     1       4.760  -9.940  10.331  0.00  0.00    -0.082 C 
ATOM      8  N   UNL     1       5.226  -8.725  11.009  0.00  0.00    +0.379 N 
ATOM      9  C   UNL     1       5.965  -7.877  10.066  0.00  0.00    -0.082 C 
ATOM     10  C   UNL     1       5.025  -7.412   8.950  0.00  0.00    -0.010 C 
ATOM     11  C   UNL     1       6.541  -8.568   5.275  0.00  0.00    +0.219 C 
ATOM     12  O   UNL     1       7.682  -8.737   5.651  0.00  0.00    -0.275 OA
ATOM     13  H   UNL     1       4.431  -8.215  11.367  0.00  0.00    -0.086 HD
ATOM     14  H   UNL     1       5.830  -8.980  11.776  0.00  0.00    -0.086 HD
ENDROOT
BRANCH  11  15
ATOM     15  C   UNL     1       6.274  -8.039   3.890  0.00  0.00    +0.078 C 
ATOM     16  C   UNL     1       5.445  -9.058   3.105  0.00  0.00    +0.032 C 
ATOM     17  C   UNL     1       5.146  -8.501   1.710  0.00  0.00    +0.108 C 
ATOM     18  N   UNL     1       6.414  -8.132   1.067  0.00  0.00    -0.302 N 
ATOM     19  C   UNL     1       7.329  -7.227   1.776  0.00  0.00    +0.108 C 
ATOM     20  C   UNL     1       7.604  -7.798   3.171  0.00  0.00    +0.032 C 
ATOM     21  C   UNL     1       6.732  -8.614  -0.151  0.00  0.00    +0.212 C 
ATOM     22  O   UNL     1       7.824  -8.386  -0.627  0.00  0.00    -0.276 OA
ATOM     23  C   UNL     1       5.731  -9.435  -0.921  0.00  0.00    +0.109 C 
ENDBRANCH  11  15
BRANCH   1  25
ATOM     24  N   UNL     1       2.372  -6.066   7.792  0.00  0.00    -0.315 N 
ATOM     25  C   UNL     1       3.353  -6.687   7.109  0.00  0.00    +0.218 C 
ATOM     26  O   UNL     1       4.150  -6.036   6.466  0.00  0.00    -0.275 OA
ATOM     27  H   UNL     1       1.735  -6.587   8.306  0.00  0.00    +0.149 HD
BRANCH  24  28
ATOM     28  C   UNL     1       2.267  -4.605   7.759  0.00  0.00    +0.107 C 
BRANCH  28  32
ATOM     29  N   UNL     1      -1.408  -2.682   8.797  0.00  0.00    +0.380 N 
ATOM     30  C   UNL     1      -0.197  -2.191   9.466  0.00  0.00    -0.079 C 
ATOM     31  C   UNL     1       1.039  -2.631   8.679  0.00  0.00    -0.014 C 
ATOM     32  C   UNL     1       1.077  -4.160   8.611  0.00  0.00    +0.003 C 
ATOM     33  C   UNL     1      -0.224  -4.665   7.979  0.00  0.00    -0.014 C 
ATOM     34  C   UNL     1      -1.413  -4.149   8.792  0.00  0.00    -0.079 C 
ATOM     35  H   UNL     1      -1.425  -2.343   7.846  0.00  0.00    -0.082 HD
BRANCH  29  36
ATOM     36  C   UNL     1      -2.594  -2.192   9.512  0.00  0.00    -0.079 C 
BRANCH  36  37
ATOM     37  C   UNL     1      -2.656  -0.666   9.411  0.00  0.00    -0.019 C 
BRANCH  37  39
ATOM     38  C   UNL     1      -3.953   1.370  10.055  0.00  0.00    +0.004 C 
ATOM     39  C   UNL     1      -3.891  -0.155  10.156  0.00  0.00    -0.005 C 
ENDBRANCH  37  39
ENDBRANCH  36  37
ENDBRANCH  29  36
ENDBRANCH  28  32
ENDBRANCH  24  28
ENDBRANCH   1  25
TORSDOF 7
