REMARK  Name = ZINC32797284
REMARK  8 active torsions:
REMARK  status: ('A' for Active; 'I' for Inactive)
REMARK    1  A    between atoms: C_1  and  C_2
REMARK    2  A    between atoms: C_2  and  C_4
REMARK    3  A    between atoms: C_2  and  N_14
REMARK    4  A    between atoms: N_9  and  C_10
REMARK    5  A    between atoms: C_10  and  C_11
REMARK    6  A    between atoms: C_10  and  C_12
REMARK    7  A    between atoms: C_10  and  C_13
REMARK    8  A    between atoms: C_18  and  C_20
REMARK                            x       y       z     vdW  Elec       q    Type
REMARK                         _______ _______ _______ _____ _____    ______ ____
ROOT
ATOM      1  N   UNL     1       2.045   6.685   3.448  0.00  0.00    +0.392 N 
ATOM      2  C   UNL     1       1.695   7.792   4.379  0.00  0.00    -0.077 C 
ATOM      3  C   UNL     1       0.305   7.375   4.924  0.00  0.00    -0.020 C 
ATOM      4  C   UNL     1      -0.373   6.739   3.690  0.00  0.00    -0.013 C 
ATOM      5  C   UNL     1       0.784   6.327   2.762  0.00  0.00    -0.037 C 
ATOM      6  H   UNL     1       2.476   5.823   3.978  0.00  0.00    -0.080 HD
ENDROOT
BRANCH   5   7
ATOM      7  C   UNL     1       0.739   4.841   2.513  0.00  0.00    -0.057 A 
ATOM      8  C   UNL     1       1.206   3.967   3.477  0.00  0.00    +0.006 A 
ATOM      9  C   UNL     1       1.168   2.602   3.256  0.00  0.00    +0.049 A 
ATOM     10  C   UNL     1       0.659   2.114   2.064  0.00  0.00    +0.162 A 
ATOM     11  C   UNL     1       0.191   2.991   1.097  0.00  0.00    +0.162 A 
ATOM     12  C   UNL     1       0.231   4.357   1.321  0.00  0.00    +0.051 A 
ATOM     13  O   UNL     1      -0.308   2.500  -0.075  0.00  0.00    -0.488 OA
ATOM     14  C   UNL     1       0.640   1.878  -0.945  0.00  0.00    +0.232 C 
ATOM     15  C   UNL     1       0.856   0.424  -0.557  0.00  0.00    +0.082 C 
ATOM     16  C   UNL     1       1.491   0.280   0.818  0.00  0.00    +0.232 C 
ATOM     17  O   UNL     1       0.613   0.769   1.834  0.00  0.00    -0.488 OA
ENDBRANCH   5   7
BRANCH   1  19
ATOM     18  C   UNL     1       2.681   8.462   1.888  0.00  0.00    -0.004 C 
ATOM     19  C   UNL     1       3.068   7.107   2.483  0.00  0.00    +0.017 C 
BRANCH  19  20
ATOM     20  C   UNL     1       4.398   7.226   3.181  0.00  0.00    +0.207 C 
ATOM     21  O   UNL     1       4.485   6.984   4.366  0.00  0.00    -0.277 OA
ATOM     22  N   UNL     1       5.492   7.603   2.489  0.00  0.00    -0.242 N 
ATOM     23  C   UNL     1       6.681   7.709   3.114  0.00  0.00    +0.306 C 
ATOM     24  O   UNL     1       6.768   7.466   4.301  0.00  0.00    -0.252 OA
ATOM     25  N   UNL     1       7.775   8.085   2.421  0.00  0.00    -0.294 N 
ATOM     26  H   UNL     1       5.413   7.822   1.414  0.00  0.00    +0.159 HD
ATOM     27  H   UNL     1       7.696   8.305   1.346  0.00  0.00    +0.151 HD
BRANCH  25  28
ATOM     28  C   UNL     1       9.068   8.202   3.100  0.00  0.00    +0.028 C 
ATOM     29  C   UNL     1       9.455   6.846   3.695  0.00  0.00    +0.031 C 
ATOM     30  C   UNL     1      10.134   8.641   2.095  0.00  0.00    +0.031 C 
ATOM     31  C   UNL     1       8.964   9.239   4.220  0.00  0.00    +0.031 C 
ENDBRANCH  25  28
ENDBRANCH  19  20
ENDBRANCH   1  19
TORSDOF 4
