REMARK  Name = ZINC16564257
REMARK  17 active torsions:
REMARK  status: ('A' for Active; 'I' for Inactive)
REMARK    1  A    between atoms: C_1  and  C_2
REMARK    2  A    between atoms: C_2  and  C_3
REMARK    3  A    between atoms: C_3  and  C_4
REMARK    4  A    between atoms: C_4  and  N_5
REMARK    5  A    between atoms: N_5  and  C_6
REMARK    6  A    between atoms: C_7  and  N_19
REMARK    7  A    between atoms: N_8  and  C_15
REMARK    8  A    between atoms: C_15  and  C_16
REMARK    9  A    between atoms: C_16  and  C_17
REMARK   10  A    between atoms: C_16  and  C_18
REMARK   11  A    between atoms: C_20  and  C_22
REMARK   12  A    between atoms: C_22  and  N_69
REMARK   13  A    between atoms: C_23  and  N_69
REMARK   14  A    between atoms: C_24  and  C_25
REMARK   15  A    between atoms: C_24  and  N_69
REMARK   16  A    between atoms: C_28  and  C_31
REMARK   17  A    between atoms: C_31  and  C_32
REMARK                            x       y       z     vdW  Elec       q    Type
REMARK                         _______ _______ _______ _____ _____    ______ ____
ROOT
ATOM      1  N   UNL     1       1.406   2.233   0.284  0.00  0.00    -0.266 N 
ATOM      2  C   UNL     1       0.162   1.767   0.049  0.00  0.00    +0.203 C 
ATOM      3  O   UNL     1       0.004   0.632  -0.349  0.00  0.00    -0.277 OA
ENDROOT
BRANCH   1   4
ATOM      4  C   UNL     1       2.517   1.372   0.161  0.00  0.00    +0.140 A 
ATOM      5  C   UNL     1       2.666   0.294   1.010  0.00  0.00    +0.127 A 
ATOM      6  N   UNL     1       3.759  -0.528   0.866  0.00  0.00    -0.280 N 
ATOM      7  C   UNL     1       4.673  -0.284  -0.091  0.00  0.00    +0.331 A 
ATOM      8  O   UNL     1       5.633  -1.022  -0.201  0.00  0.00    -0.246 OA
ATOM      9  N   UNL     1       4.544   0.762  -0.926  0.00  0.00    -0.273 N 
ATOM     10  H   UNL     1       5.240   0.924  -1.626  0.00  0.00    +0.173 HD
ATOM     11  C   UNL     1       3.489   1.594  -0.832  0.00  0.00    +0.277 A 
ATOM     12  O   UNL     1       3.379   2.536  -1.598  0.00  0.00    -0.266 OA
BRANCH   5  13
ATOM     13  N   UNL     1       1.732   0.044   1.988  0.00  0.00    -0.343 N 
ATOM     14  H   UNL     1       0.913   0.564   2.020  0.00  0.00    +0.144 HD
ATOM     15  H   UNL     1       1.892  -0.651   2.645  0.00  0.00    +0.144 HD
ENDBRANCH   5  13
BRANCH   6  16
ATOM     16  C   UNL     1       3.930  -1.676   1.760  0.00  0.00    +0.131 C 
BRANCH  16  17
ATOM     17  C   UNL     1       3.247  -2.902   1.150  0.00  0.00    +0.003 C 
ATOM     18  C   UNL     1       3.530  -4.129   2.020  0.00  0.00    +0.009 C 
ATOM     19  C   UNL     1       1.737  -2.664   1.081  0.00  0.00    +0.009 C 
ENDBRANCH  16  17
ENDBRANCH   6  16
ENDBRANCH   1   4
BRANCH   1  20
ATOM     20  C   UNL     1       1.603   3.634   0.666  0.00  0.00    +0.114 C 
BRANCH  20  21
ATOM     21  C   UNL     1       1.594   3.752   2.191  0.00  0.00    +0.019 C 
BRANCH  21  23
ATOM     22  C   UNL     1       1.791   5.333   4.116  0.00  0.00    +0.004 C 
ATOM     23  C   UNL     1       1.800   5.215   2.590  0.00  0.00    -0.002 C 
ENDBRANCH  21  23
ENDBRANCH  20  21
ENDBRANCH   1  20
BRANCH   2  24
ATOM     24  C   UNL     1      -1.032   2.659   0.274  0.00  0.00    +0.019 C 
BRANCH  24  26
ATOM     25  C   UNL     1      -2.476   0.811   0.875  0.00  0.00    -0.095 C 
ATOM     26  N   UNL     1      -2.258   1.914  -0.084  0.00  0.00    +0.386 N 
ATOM     27  H   UNL     1      -2.146   1.520  -1.026  0.00  0.00    -0.081 HD
BRANCH  26  28
ATOM     28  C   UNL     1      -3.422   2.825  -0.080  0.00  0.00    -0.043 C 
BRANCH  28  29
ATOM     29  C   UNL     1      -4.609   2.099  -0.657  0.00  0.00    -0.064 A 
ATOM     30  C   UNL     1      -4.850   2.140  -2.017  0.00  0.00    +0.002 A 
ATOM     31  C   UNL     1      -5.937   1.470  -2.547  0.00  0.00    +0.004 A 
ATOM     32  C   UNL     1      -6.789   0.767  -1.716  0.00  0.00    -0.048 A 
ATOM     33  C   UNL     1      -6.551   0.731  -0.354  0.00  0.00    +0.004 A 
ATOM     34  C   UNL     1      -5.461   1.397   0.175  0.00  0.00    +0.002 A 
BRANCH  32  35
ATOM     35  C   UNL     1      -7.976   0.040  -2.293  0.00  0.00    +0.032 C 
ATOM     36  C   UNL     1      -9.186   0.977  -2.315  0.00  0.00    +0.009 C 
ENDBRANCH  32  35
ENDBRANCH  28  29
ENDBRANCH  26  28
ENDBRANCH  24  26
ENDBRANCH   2  24
TORSDOF 12
