REMARK  Name = ZINC37152201
REMARK  7 active torsions:
REMARK  status: ('A' for Active; 'I' for Inactive)
REMARK    1  A    between atoms: C_1  and  O_2
REMARK    2  A    between atoms: O_2  and  C_3
REMARK    3  A    between atoms: C_5  and  C_11
REMARK    4  A    between atoms: C_8  and  O_9
REMARK    5  A    between atoms: C_11  and  N_12
REMARK    6  A    between atoms: N_12  and  C_13
REMARK    7  A    between atoms: C_16  and  C_19
REMARK                            x       y       z     vdW  Elec       q    Type
REMARK                         _______ _______ _______ _____ _____    ______ ____
ROOT
ATOM      1  N   UNL     1      -5.296   0.521  -1.342  0.00  0.00    +0.384 N 
ATOM      2  H   UNL     1      -4.576   1.039  -1.823  0.00  0.00    -0.085 HD
ATOM      3  H   UNL     1      -5.455  -0.355  -1.818  0.00  0.00    -0.085 HD
ENDROOT
BRANCH   1   4
ATOM      4  C   UNL     1      -6.539   1.305  -1.332  0.00  0.00    -0.071 C 
ATOM      5  C   UNL     1      -7.663   0.470  -0.715  0.00  0.00    -0.015 C 
ATOM      6  C   UNL     1      -8.957   1.287  -0.704  0.00  0.00    +0.011 C 
ATOM      7  C   UNL     1      -9.332   1.667  -2.137  0.00  0.00    +0.075 C 
ATOM      8  C   UNL     1      -8.208   2.501  -2.755  0.00  0.00    +0.011 C 
ATOM      9  C   UNL     1      -6.914   1.685  -2.766  0.00  0.00    -0.015 C 
BRANCH   7  10
ATOM     10  C   UNL     1     -10.607   2.471  -2.127  0.00  0.00    +0.214 C 
ATOM     11  O   UNL     1     -11.160   2.716  -1.076  0.00  0.00    -0.276 OA
ATOM     12  N   UNL     1     -11.131   2.918  -3.285  0.00  0.00    -0.329 N 
ATOM     13  H   UNL     1     -10.688   2.722  -4.125  0.00  0.00    +0.145 HD
ATOM     14  H   UNL     1     -11.952   3.435  -3.278  0.00  0.00    +0.145 HD
ENDBRANCH   7  10
ENDBRANCH   1   4
BRANCH   1  15
ATOM     15  C   UNL     1      -4.871   0.258   0.039  0.00  0.00    -0.046 C 
BRANCH  15  18
ATOM     16  C   UNL     1      -1.201  -0.638   0.010  0.00  0.00    +0.163 A 
ATOM     17  C   UNL     1      -2.374   0.100   0.019  0.00  0.00    +0.051 A 
ATOM     18  C   UNL     1      -3.597  -0.546   0.028  0.00  0.00    -0.060 A 
ATOM     19  C   UNL     1      -3.653  -1.927   0.028  0.00  0.00    +0.021 A 
ATOM     20  C   UNL     1      -2.486  -2.669   0.018  0.00  0.00    +0.063 A 
ATOM     21  C   UNL     1      -1.257  -2.028   0.003  0.00  0.00    +0.173 A 
ATOM     22 BR   UNL     1      -2.567  -4.559   0.019  0.00  0.00    -0.046 Br
BRANCH  16  24
ATOM     23  C   UNL     1      -0.017   1.425   0.010  0.00  0.00    +0.277 C 
ATOM     24  O   UNL     1       0.002  -0.004   0.002  0.00  0.00    -0.491 OA
ENDBRANCH  16  24
BRANCH  21  25
ATOM     25  O   UNL     1      -0.108  -2.756  -0.012  0.00  0.00    -0.503 OA
ATOM     26  H   UNL     1       0.233  -2.971   0.867  0.00  0.00    +0.292 HD
ENDBRANCH  21  25
ENDBRANCH  15  18
ENDBRANCH   1  15
TORSDOF 6
