REMARK  Name = ZINC13976591
REMARK  13 active torsions:
REMARK  status: ('A' for Active; 'I' for Inactive)
REMARK    1  A    between atoms: C_1  and  C_2
REMARK    2  A    between atoms: C_5  and  C_32
REMARK    3  A    between atoms: C_6  and  N_8
REMARK    4  A    between atoms: C_9  and  C_11
REMARK    5  A    between atoms: C_11  and  C_12
REMARK    6  A    between atoms: C_12  and  C_13
REMARK    7  A    between atoms: N_15  and  N_16
REMARK    8  A    between atoms: N_16  and  C_17
REMARK    9  A    between atoms: C_17  and  N_19
REMARK   10  A    between atoms: C_20  and  C_22
REMARK   11  A    between atoms: C_23  and  C_24
REMARK   12  A    between atoms: C_27  and  O_30
REMARK   13  A    between atoms: O_30  and  C_31
REMARK                            x       y       z     vdW  Elec       q    Type
REMARK                         _______ _______ _______ _____ _____    ______ ____
ROOT
ATOM      1  C   UNL     1       4.617   4.024  -0.049  0.00  0.00    +0.230 C 
ATOM      2  O   UNL     1       5.676   3.433  -0.069  0.00  0.00    -0.274 OA
ATOM      3  N   UNL     1       3.459   3.335  -0.045  0.00  0.00    -0.235 N 
ATOM      4  H   UNL     1       2.613   3.808  -0.029  0.00  0.00    +0.173 HD
ENDROOT
BRANCH   3   5
ATOM      5  N   UNL     1       3.478   1.934  -0.064  0.00  0.00    -0.246 N 
ATOM      6  H   UNL     1       4.325   1.461  -0.080  0.00  0.00    +0.172 HD
BRANCH   5   7
ATOM      7  C   UNL     1       2.321   1.244  -0.059  0.00  0.00    +0.153 C 
ATOM      8  S   UNL     1       2.344  -0.468  -0.082  0.00  0.00    -0.017 S 
BRANCH   7   9
ATOM      9  N   UNL     1       1.145   1.901  -0.037  0.00  0.00    -0.263 N 
ATOM     10  C   UNL     1      -0.013   1.212  -0.033  0.00  0.00    +0.242 C 
ATOM     11  O   UNL     1       0.003  -0.005  -0.050  0.00  0.00    -0.270 OA
ATOM     12  H   UNL     1       1.131   2.871  -0.024  0.00  0.00    +0.157 HD
BRANCH  10  13
ATOM     13  C   UNL     1      -1.289   1.925  -0.015  0.00  0.00    +0.068 C 
ATOM     14  C   UNL     1      -2.449   1.233  -0.017  0.00  0.00    +0.013 C 
BRANCH  14  15
ATOM     15  C   UNL     1      -3.732   1.950   0.001  0.00  0.00    -0.025 A 
ATOM     16  C   UNL     1      -3.754   3.350   0.026  0.00  0.00    +0.011 A 
ATOM     17  C   UNL     1      -4.958   4.017   0.037  0.00  0.00    +0.046 A 
ATOM     18  C   UNL     1      -6.151   3.303   0.035  0.00  0.00    +0.120 A 
ATOM     19  C   UNL     1      -6.134   1.913   0.017  0.00  0.00    +0.046 A 
ATOM     20  C   UNL     1      -4.936   1.236  -0.000  0.00  0.00    +0.011 A 
BRANCH  18  21
ATOM     21  O   UNL     1      -7.335   3.965   0.052  0.00  0.00    -0.495 OA
ATOM     22  C   UNL     1      -7.280   5.393   0.071  0.00  0.00    +0.277 C 
ENDBRANCH  18  21
ENDBRANCH  14  15
ENDBRANCH  10  13
ENDBRANCH   7   9
ENDBRANCH   5   7
ENDBRANCH   3   5
BRANCH   1  23
ATOM     23  C   UNL     1       4.596   5.531  -0.029  0.00  0.00    +0.106 C 
BRANCH  23  24
ATOM     24  C   UNL     1       6.032   6.061  -0.038  0.00  0.00    +0.105 C 
BRANCH  24  26
ATOM     25  N   UNL     1       7.169   8.258  -0.022  0.00  0.00    -0.285 N 
ATOM     26  C   UNL     1       6.011   7.568  -0.018  0.00  0.00    +0.218 C 
ATOM     27  O   UNL     1       4.953   8.160   0.002  0.00  0.00    -0.275 OA
ATOM     28  H   UNL     1       8.014   7.787   0.043  0.00  0.00    +0.155 HD
BRANCH  25  34
ATOM     29  C   UNL     1       4.882  12.372  -1.441  0.00  0.00    +0.044 C 
ATOM     30  C   UNL     1       6.055  11.674  -0.803  0.00  0.00    -0.049 A 
ATOM     31  C   UNL     1       7.117  12.413  -0.314  0.00  0.00    +0.004 A 
ATOM     32  C   UNL     1       8.195  11.777   0.272  0.00  0.00    +0.005 A 
ATOM     33  C   UNL     1       8.216  10.399   0.370  0.00  0.00    -0.029 A 
ATOM     34  C   UNL     1       7.151   9.653  -0.120  0.00  0.00    +0.037 A 
ATOM     35  C   UNL     1       6.072  10.296  -0.712  0.00  0.00    +0.027 A 
ATOM     36  C   UNL     1       9.392   9.705   1.008  0.00  0.00    +0.045 C 
ENDBRANCH  25  34
ENDBRANCH  24  26
ENDBRANCH  23  24
ENDBRANCH   1  23
TORSDOF 10
