REMARK  Name = ZINC57840274
REMARK  6 active torsions:
REMARK  status: ('A' for Active; 'I' for Inactive)
REMARK    1  A    between atoms: C_1  and  C_2
REMARK    2  A    between atoms: C_2  and  C_12
REMARK    3  A    between atoms: N_5  and  C_9
REMARK    4  A    between atoms: C_9  and  C_10
REMARK    5  A    between atoms: C_10  and  N_11
REMARK    6  A    between atoms: C_16  and  N_18
REMARK                            x       y       z     vdW  Elec       q    Type
REMARK                         _______ _______ _______ _____ _____    ______ ____
ROOT
ATOM      1  C   UNL     1      -0.019   1.526   0.010  0.00  0.00    +0.047 C 
ATOM      2  C   UNL     1       0.002  -0.004   0.002  0.00  0.00    +0.135 C 
ATOM      3  C   UNL     1      -1.403  -0.557   0.139  0.00  0.00    +0.251 C 
ATOM      4  O   UNL     1      -2.332  -0.392  -0.621  0.00  0.00    -0.272 OA
ATOM      5  N   UNL     1      -1.403  -1.272   1.282  0.00  0.00    -0.226 N 
ATOM      6  C   UNL     1      -0.206  -1.247   1.879  0.00  0.00    +0.310 C 
ATOM      7  O   UNL     1       0.040  -1.819   2.924  0.00  0.00    -0.252 OA
ATOM      8  N   UNL     1       0.695  -0.520   1.195  0.00  0.00    -0.281 N 
ATOM      9  H   UNL     1       1.621  -0.365   1.440  0.00  0.00    +0.152 HD
ENDROOT
BRANCH   2  10
ATOM     10  C   UNL     1       0.657  -0.517  -1.255  0.00  0.00    -0.013 A 
ATOM     11  C   UNL     1      -0.108  -0.772  -2.378  0.00  0.00    +0.006 A 
ATOM     12  C   UNL     1       0.493  -1.242  -3.530  0.00  0.00    +0.003 A 
ATOM     13  C   UNL     1       1.859  -1.457  -3.560  0.00  0.00    +0.033 A 
ATOM     14  C   UNL     1       2.623  -1.202  -2.437  0.00  0.00    +0.127 A 
ATOM     15  C   UNL     1       2.023  -0.727  -1.286  0.00  0.00    +0.039 A 
BRANCH  14  16
ATOM     16  N   UNL     1       4.085  -1.432  -2.469  0.00  0.00    +0.056 N 
ATOM     17  O   UNL     1       4.610  -1.845  -3.477  0.00  0.00    -0.126 OA
ATOM     18  O   UNL     1       4.753  -1.208  -1.487  0.00  0.00    -0.126 OA
ENDBRANCH  14  16
ENDBRANCH   2  10
BRANCH   5  19
ATOM     19  C   UNL     1      -2.569  -1.986   1.805  0.00  0.00    +0.098 C 
BRANCH  19  20
ATOM     20  C   UNL     1      -2.585  -3.413   1.252  0.00  0.00    -0.067 C 
BRANCH  20  21
ATOM     21  N   UNL     1      -3.755  -4.129   1.776  0.00  0.00    +0.379 N 
ATOM     22  H   UNL     1      -3.706  -4.160   2.784  0.00  0.00    -0.090 HD
ATOM     23  H   UNL     1      -4.597  -3.650   1.495  0.00  0.00    -0.090 HD
ATOM     24  H   UNL     1      -3.765  -5.070   1.411  0.00  0.00    -0.090 HD
ENDBRANCH  20  21
ENDBRANCH  19  20
ENDBRANCH   5  19
TORSDOF 5
