REMARK  Name = ZINC19875027
REMARK  11 active torsions:
REMARK  status: ('A' for Active; 'I' for Inactive)
REMARK    1  A    between atoms: C_1  and  C_2
REMARK    2  A    between atoms: C_2  and  O_3
REMARK    3  A    between atoms: O_3  and  C_4
REMARK    4  A    between atoms: C_4  and  C_6
REMARK    5  A    between atoms: C_7  and  C_33
REMARK    6  A    between atoms: C_11  and  C_13
REMARK    7  A    between atoms: C_15  and  C_18
REMARK    8  A    between atoms: C_18  and  S_19
REMARK    9  A    between atoms: S_19  and  C_20
REMARK   10  A    between atoms: C_29  and  C_31
REMARK   11  A    between atoms: C_29  and  C_32
REMARK                            x       y       z     vdW  Elec       q    Type
REMARK                         _______ _______ _______ _____ _____    ______ ____
ROOT
ATOM      1  C   UNL     1      -0.678  -0.499  -1.240  0.00  0.00    +0.066 C 
ATOM      2  C   UNL     1      -1.931  -0.985  -1.203  0.00  0.00    +0.016 C 
ATOM      3  N   UNL     1      -2.615  -1.047  -0.021  0.00  0.00    -0.321 N 
ATOM      4  C   UNL     1      -1.947  -1.006   1.173  0.00  0.00    +0.016 C 
ATOM      5  C   UNL     1      -0.692  -0.515   1.240  0.00  0.00    +0.024 C 
ATOM      6  C   UNL     1       0.002  -0.004   0.002  0.00  0.00    +0.099 C 
ATOM      7  C   UNL     1       0.004  -0.465   2.460  0.00  0.00    +0.162 C 
ATOM      8  O   UNL     1       1.138  -0.029   2.483  0.00  0.00    -0.292 OA
ATOM      9  C   UNL     1      -0.631  -0.940   3.739  0.00  0.00    +0.086 C 
ATOM     10  C   UNL     1      -2.150  -0.763   3.637  0.00  0.00    -0.023 C 
ATOM     11  C   UNL     1      -2.645  -1.525   2.406  0.00  0.00    +0.058 C 
ATOM     12  C   UNL     1      -2.486   0.723   3.491  0.00  0.00    +0.011 C 
ATOM     13  C   UNL     1      -2.822  -1.321   4.892  0.00  0.00    +0.011 C 
ATOM     14  C   UNL     1      -2.586  -1.464  -2.473  0.00  0.00    +0.061 C 
ATOM     15  H   UNL     1      -3.712  -1.130  -0.024  0.00  0.00    +0.152 HD
ENDROOT
BRANCH   6  16
ATOM     16  C   UNL     1      -0.018   1.503   0.010  0.00  0.00    +0.002 A 
ATOM     17  C   UNL     1       1.023   2.371   0.005  0.00  0.00    +0.016 A 
ATOM     18  C   UNL     1       0.764   3.728   0.014  0.00  0.00    -0.030 A 
ATOM     19  C   UNL     1      -0.524   4.152   0.028  0.00  0.00    +0.050 A 
ATOM     20  S   UNL     1      -1.420   2.608   0.022  0.00  0.00    -0.100 S 
BRANCH  18  21
ATOM     21  C   UNL     1       1.896   4.723   0.009  0.00  0.00    +0.112 C 
BRANCH  21  22
ATOM     22  S   UNL     1       2.335   5.130  -1.703  0.00  0.00    -0.092 S 
BRANCH  22  23
ATOM     23  C   UNL     1       3.655   6.287  -1.541  0.00  0.00    +0.160 A 
ATOM     24  N   UNL     1       4.217   6.766  -0.448  0.00  0.00    -0.133 NA
ATOM     25  N   UNL     1       5.247   7.672  -0.549  0.00  0.00    -0.125 NA
ATOM     26  C   UNL     1       5.668   8.057  -1.738  0.00  0.00    +0.180 A 
ATOM     27  S   UNL     1       4.594   7.119  -2.813  0.00  0.00    -0.025 S 
ATOM     28  N   UNL     1       6.681   8.950  -2.067  0.00  0.00    -0.336 N 
ATOM     29  H   UNL     1       6.907   9.162  -3.122  0.00  0.00    +0.144 HD
ATOM     30  H   UNL     1       7.258   9.445  -1.271  0.00  0.00    +0.144 HD
ENDBRANCH  22  23
ENDBRANCH  21  22
ENDBRANCH  18  21
ENDBRANCH   6  16
BRANCH   1  31
ATOM     31  C   UNL     1       0.012  -0.454  -2.474  0.00  0.00    +0.338 C 
ATOM     32  O   UNL     1      -0.529  -0.852  -3.489  0.00  0.00    -0.245 OA
BRANCH  31  33
ATOM     33  O   UNL     1       1.270   0.032  -2.526  0.00  0.00    -0.462 OA
BRANCH  33  35
ATOM     34  C   UNL     1       3.316   0.627  -3.666  0.00  0.00    +0.048 C 
ATOM     35  C   UNL     1       1.907   0.048  -3.805  0.00  0.00    +0.229 C 
ENDBRANCH  33  35
ENDBRANCH  31  33
ENDBRANCH   1  31
TORSDOF 7
