REMARK  Name = ZINC36769480
REMARK  6 active torsions:
REMARK  status: ('A' for Active; 'I' for Inactive)
REMARK    1  A    between atoms: C_1  and  C_2
REMARK    2  A    between atoms: C_2  and  C_3
REMARK    3  A    between atoms: N_6  and  C_10
REMARK    4  A    between atoms: C_10  and  C_12
REMARK    5  A    between atoms: C_10  and  C_14
REMARK    6  A    between atoms: C_12  and  N_13
REMARK                            x       y       z     vdW  Elec       q    Type
REMARK                         _______ _______ _______ _____ _____    ______ ____
ROOT
ATOM      1  C   UNL     1      -2.823  -4.028   0.224  0.00  0.00    +0.076 C 
ENDROOT
BRANCH   1   4
ATOM      2  C   UNL     1      -0.716  -0.906   0.211  0.00  0.00    +0.132 C 
ATOM      3  C   UNL     1      -1.028  -2.403   0.146  0.00  0.00    +0.116 C 
ATOM      4  N   UNL     1      -2.483  -2.599   0.227  0.00  0.00    -0.292 NA
ATOM      5  C   UNL     1      -3.166  -1.894  -0.867  0.00  0.00    +0.113 C 
ATOM      6  C   UNL     1      -2.832  -0.401  -0.792  0.00  0.00    +0.175 C 
ATOM      7  O   UNL     1      -1.413  -0.231  -0.840  0.00  0.00    -0.374 OA
BRANCH   2   9
ATOM      8  C   UNL     1       1.116   0.793   0.234  0.00  0.00    +0.006 C 
ATOM      9  C   UNL     1       0.789  -0.690   0.047  0.00  0.00    +0.029 C 
ENDBRANCH   2   9
ENDBRANCH   1   4
BRANCH   1  10
ATOM     10  C   UNL     1      -2.229  -4.684  -0.996  0.00  0.00    +0.006 A 
ATOM     11  C   UNL     1      -1.490  -5.817  -1.082  0.00  0.00    +0.028 A 
ATOM     12  C   UNL     1      -1.045  -6.235  -2.322  0.00  0.00    +0.025 A 
ATOM     13  C   UNL     1      -1.362  -5.498  -3.416  0.00  0.00    +0.060 A 
ATOM     14  S   UNL     1      -2.322  -4.173  -2.704  0.00  0.00    -0.099 S 
ATOM     15 BR   UNL     1      -0.011  -7.809  -2.491  0.00  0.00    -0.050 Br
ENDBRANCH   1  10
BRANCH   1  16
ATOM     16  C   UNL     1      -4.344  -4.191   0.201  0.00  0.00    -0.062 C 
BRANCH  16  17
ATOM     17  N   UNL     1      -4.933  -3.451   1.325  0.00  0.00    +0.379 N 
ATOM     18  H   UNL     1      -5.936  -3.559   1.310  0.00  0.00    -0.090 HD
ATOM     19  H   UNL     1      -4.569  -3.813   2.194  0.00  0.00    -0.090 HD
ATOM     20  H   UNL     1      -4.698  -2.473   1.244  0.00  0.00    -0.090 HD
ENDBRANCH  16  17
ENDBRANCH   1  16
TORSDOF 5
