REMARK  Name = ZINC05285672
REMARK  5 active torsions:
REMARK  status: ('A' for Active; 'I' for Inactive)
REMARK    1  A    between atoms: C_1  and  O_2
REMARK    2  A    between atoms: O_2  and  C_3
REMARK    3  A    between atoms: C_10  and  C_23
REMARK    4  A    between atoms: N_12  and  C_13
REMARK    5  A    between atoms: C_16  and  C_19
REMARK                            x       y       z     vdW  Elec       q    Type
REMARK                         _______ _______ _______ _____ _____    ______ ____
ROOT
ATOM      1  C   UNL     1      -1.775  -1.150   1.508  0.00  0.00    +0.121 A 
ATOM      2  C   UNL     1      -2.543  -0.335   0.681  0.00  0.00    +0.049 A 
ATOM      3  C   UNL     1      -3.659  -0.836   0.043  0.00  0.00    +0.050 A 
ATOM      4  C   UNL     1      -4.025  -2.161   0.222  0.00  0.00    +0.138 A 
ATOM      5  C   UNL     1      -3.251  -2.991   1.055  0.00  0.00    +0.022 A 
ATOM      6  C   UNL     1      -2.118  -2.475   1.694  0.00  0.00    +0.057 A 
ATOM      7  C   UNL     1      -3.638  -4.393   1.232  0.00  0.00    +0.028 A 
ATOM      8  C   UNL     1      -4.588  -4.907   0.362  0.00  0.00    +0.078 A 
ATOM      9  C   UNL     1      -5.125  -3.993  -0.664  0.00  0.00    +0.210 A 
ATOM     10  N   UNL     1      -5.592  -4.454  -1.807  0.00  0.00    -0.325 N 
ATOM     11  O   UNL     1      -5.123  -2.663  -0.396  0.00  0.00    -0.439 OA
ATOM     12  H   UNL     1      -6.049  -3.857  -2.420  0.00  0.00    +0.169 HD
ENDROOT
BRANCH   8  13
ATOM     13  C   UNL     1      -5.043  -6.307   0.458  0.00  0.00    +0.144 A 
ATOM     14  N   UNL     1      -4.221  -7.403   0.484  0.00  0.00    -0.338 N 
ATOM     15  H   UNL     1      -3.252  -7.396   0.443  0.00  0.00    +0.167 HD
ATOM     16  C   UNL     1      -5.031  -8.518   0.580  0.00  0.00    +0.066 A 
ATOM     17  C   UNL     1      -4.787  -9.883   0.645  0.00  0.00    +0.028 A 
ATOM     18  C   UNL     1      -5.844 -10.763   0.739  0.00  0.00    +0.002 A 
ATOM     19  C   UNL     1      -7.150 -10.294   0.769  0.00  0.00    +0.002 A 
ATOM     20  C   UNL     1      -7.410  -8.954   0.706  0.00  0.00    +0.030 A 
ATOM     21  C   UNL     1      -6.354  -8.042   0.610  0.00  0.00    +0.089 A 
ATOM     22  N   UNL     1      -6.295  -6.690   0.538  0.00  0.00    -0.228 NA
ENDBRANCH   8  13
BRANCH  10  23
ATOM     23  C   UNL     1      -5.432  -5.768  -2.128  0.00  0.00    +0.042 A 
ATOM     24  C   UNL     1      -6.551  -6.562  -2.407  0.00  0.00    +0.026 A 
ATOM     25  C   UNL     1      -6.390  -7.878  -2.728  0.00  0.00    +0.015 A 
ATOM     26  C   UNL     1      -5.107  -8.435  -2.777  0.00  0.00    +0.037 A 
ATOM     27  C   UNL     1      -3.988  -7.642  -2.498  0.00  0.00    +0.015 A 
ATOM     28  C   UNL     1      -4.147  -6.324  -2.183  0.00  0.00    +0.026 A 
BRANCH  26  29
ATOM     29  C   UNL     1      -4.934  -9.857  -3.123  0.00  0.00    +0.242 C 
ATOM     30  O   UNL     1      -5.906 -10.546  -3.366  0.00  0.00    -0.270 OA
ATOM     31  N   UNL     1      -3.698 -10.393  -3.171  0.00  0.00    -0.325 N 
ATOM     32  H   UNL     1      -2.923  -9.843  -2.978  0.00  0.00    +0.145 HD
ATOM     33  H   UNL     1      -3.584 -11.329  -3.399  0.00  0.00    +0.145 HD
ENDBRANCH  26  29
ENDBRANCH  10  23
BRANCH   1  35
ATOM     34  C   UNL     1      -0.380   0.737   1.896  0.00  0.00    +0.277 C 
ATOM     35  O   UNL     1      -0.679  -0.641   2.131  0.00  0.00    -0.495 OA
ENDBRANCH   1  35
TORSDOF 4
