REMARK  Name = ZINC10359771
REMARK  7 active torsions:
REMARK  status: ('A' for Active; 'I' for Inactive)
REMARK    1  A    between atoms: C_1  and  C_2
REMARK    2  A    between atoms: C_3  and  C_13
REMARK    3  A    between atoms: C_4  and  C_12
REMARK    4  A    between atoms: C_13  and  C_14
REMARK    5  A    between atoms: N_16  and  C_17
REMARK    6  A    between atoms: N_22  and  C_23
REMARK    7  A    between atoms: N_22  and  C_24
REMARK                            x       y       z     vdW  Elec       q    Type
REMARK                         _______ _______ _______ _____ _____    ______ ____
ROOT
ATOM      1  C   UNL     1       3.799   4.460  -0.025  0.00  0.00    +0.134 C 
ENDROOT
BRANCH   1   4
ATOM      2  C   UNL     1       5.059   1.839  -0.187  0.00  0.00    +0.066 C 
ATOM      3  C   UNL     1       3.558   1.950  -0.113  0.00  0.00    +0.047 A 
ATOM      4  C   UNL     1       2.955   3.211  -0.035  0.00  0.00    +0.004 A 
ATOM      5  C   UNL     1       1.601   3.296   0.032  0.00  0.00    +0.049 A 
ATOM      6  N   UNL     1       0.867   2.153   0.021  0.00  0.00    -0.199 N 
ATOM      7  C   UNL     1       1.486   0.938  -0.055  0.00  0.00    +0.255 A 
ATOM      8  N   UNL     1       2.820   0.863  -0.121  0.00  0.00    -0.216 NA
ATOM      9  N   UNL     1       0.536   0.008  -0.047  0.00  0.00    -0.176 NA
ATOM     10  C   UNL     1      -0.659   0.588   0.031  0.00  0.00    +0.234 A 
ATOM     11  N   UNL     1      -0.510   1.897   0.076  0.00  0.00    -0.128 NA
ATOM     12  N   UNL     1      -1.879  -0.083   0.062  0.00  0.00    -0.326 N 
ATOM     13  C   UNL     1       0.923   4.640   0.117  0.00  0.00    +0.066 C 
ATOM     14  H   UNL     1      -2.707   0.419   0.120  0.00  0.00    +0.145 HD
ATOM     15  H   UNL     1      -1.900  -1.052   0.025  0.00  0.00    +0.145 HD
ENDBRANCH   1   4
BRANCH   1  16
ATOM     16  C   UNL     1       4.014   4.931  -1.440  0.00  0.00    +0.222 C 
ATOM     17  O   UNL     1       3.529   4.315  -2.365  0.00  0.00    -0.275 OA
ATOM     18  N   UNL     1       4.744   6.039  -1.678  0.00  0.00    -0.284 N 
ATOM     19  H   UNL     1       5.067   6.575  -0.937  0.00  0.00    +0.155 HD
BRANCH  18  20
ATOM     20  C   UNL     1       5.036   6.417  -2.996  0.00  0.00    +0.050 A 
ATOM     21  C   UNL     1       5.216   5.449  -3.983  0.00  0.00    +0.028 A 
ATOM     22  C   UNL     1       5.503   5.867  -5.270  0.00  0.00    +0.043 A 
ATOM     23  C   UNL     1       5.602   7.229  -5.534  0.00  0.00    +0.098 A 
ATOM     24  C   UNL     1       5.145   7.756  -3.334  0.00  0.00    +0.107 A 
ATOM     25  N   UNL     1       5.891   7.660  -6.826  0.00  0.00    -0.323 N 
ATOM     26  C   UNL     1       5.979   6.689  -7.920  0.00  0.00    +0.130 C 
ATOM     27  C   UNL     1       6.106   9.084  -7.092  0.00  0.00    +0.130 C 
ATOM     28  N   UNL     1       5.433   8.197  -4.588  0.00  0.00    -0.348 N 
ATOM     29  H   UNL     1       5.517   9.196  -4.809  0.00  0.00    +0.167 HD
ENDBRANCH  18  20
ENDBRANCH   1  16
TORSDOF 3
