REMARK  Name = ZINC40741792
REMARK  11 active torsions:
REMARK  status: ('A' for Active; 'I' for Inactive)
REMARK    1  A    between atoms: C_1  and  C_2
REMARK    2  A    between atoms: C_2  and  O_3
REMARK    3  A    between atoms: O_3  and  C_4
REMARK    4  A    between atoms: C_6  and  C_23
REMARK    5  A    between atoms: C_9  and  O_10
REMARK    6  A    between atoms: O_10  and  C_11
REMARK    7  A    between atoms: C_11  and  C_12
REMARK    8  A    between atoms: N_14  and  C_15
REMARK    9  A    between atoms: C_18  and  C_21
REMARK   10  A    between atoms: C_23  and  N_24
REMARK   11  A    between atoms: N_24  and  C_25
REMARK                            x       y       z     vdW  Elec       q    Type
REMARK                         _______ _______ _______ _____ _____    ______ ____
ROOT
ATOM      1  C   UNL     1       1.096  -1.760  -1.791  0.00  0.00    +0.163 A 
ATOM      2  C   UNL     1       0.614  -2.582  -0.785  0.00  0.00    +0.051 A 
ATOM      3  C   UNL     1       0.619  -3.954  -0.950  0.00  0.00    -0.060 A 
ATOM      4  C   UNL     1       1.106  -4.511  -2.118  0.00  0.00    +0.021 A 
ATOM      5  C   UNL     1       1.589  -3.697  -3.127  0.00  0.00    +0.063 A 
ATOM      6  C   UNL     1       1.581  -2.319  -2.969  0.00  0.00    +0.176 A 
ATOM      7 BR   UNL     1       2.256  -4.462  -4.722  0.00  0.00    -0.046 Br
ENDROOT
BRANCH   1   8
ATOM      8  O   UNL     1       1.092  -0.410  -1.629  0.00  0.00    -0.489 OA
BRANCH   8  10
ATOM      9  C   UNL     1       0.655   1.622  -0.395  0.00  0.00    +0.048 C 
ATOM     10  C   UNL     1       0.580   0.094  -0.393  0.00  0.00    +0.226 C 
ENDBRANCH   8  10
ENDBRANCH   1   8
BRANCH   6  11
ATOM     11  O   UNL     1       2.050  -1.517  -3.962  0.00  0.00    -0.478 OA
BRANCH  11  12
ATOM     12  C   UNL     1       3.441  -1.191  -3.929  0.00  0.00    +0.325 C 
BRANCH  12  13
ATOM     13  C   UNL     1       3.776  -0.300  -5.097  0.00  0.00    +0.255 C 
ATOM     14  O   UNL     1       2.909   0.023  -5.881  0.00  0.00    -0.272 OA
ATOM     15  N   UNL     1       5.040   0.137  -5.271  0.00  0.00    -0.283 N 
ATOM     16  H   UNL     1       5.718  -0.066  -4.609  0.00  0.00    +0.155 HD
BRANCH  15  17
ATOM     17  C   UNL     1       5.372   0.882  -6.408  0.00  0.00    +0.034 A 
ATOM     18  C   UNL     1       6.618   0.728  -7.001  0.00  0.00    +0.023 A 
ATOM     19  C   UNL     1       6.943   1.465  -8.123  0.00  0.00    +0.005 A 
ATOM     20  C   UNL     1       6.029   2.355  -8.656  0.00  0.00    -0.050 A 
ATOM     21  C   UNL     1       4.787   2.510  -8.068  0.00  0.00    +0.005 A 
ATOM     22  C   UNL     1       4.454   1.772  -6.950  0.00  0.00    +0.023 A 
ATOM     23  C   UNL     1       6.387   3.157  -9.881  0.00  0.00    +0.044 C 
ENDBRANCH  15  17
ENDBRANCH  12  13
ENDBRANCH  11  12
ENDBRANCH   6  11
BRANCH   3  24
ATOM     24  C   UNL     1       0.094  -4.846   0.145  0.00  0.00    -0.046 C 
BRANCH  24  25
ATOM     25  N   UNL     1      -1.343  -5.074  -0.055  0.00  0.00    +0.384 N 
ATOM     26  H   UNL     1      -1.823  -4.186  -0.090  0.00  0.00    -0.085 HD
ATOM     27  H   UNL     1      -1.488  -5.568  -0.923  0.00  0.00    -0.085 HD
BRANCH  25  28
ATOM     28  C   UNL     1      -1.873  -5.873   1.058  0.00  0.00    -0.071 C 
ATOM     29  C   UNL     1      -3.314  -6.305   0.721  0.00  0.00    -0.016 C 
ATOM     30  C   UNL     1      -3.665  -7.498   1.567  0.00  0.00    -0.002 C 
ATOM     31  C   UNL     1      -4.392  -7.106   2.868  0.00  0.00    -0.000 C 
ATOM     32  C   UNL     1      -3.781  -5.862   3.541  0.00  0.00    -0.000 C 
ATOM     33  C   UNL     1      -2.276  -5.874   3.517  0.00  0.00    -0.002 C 
ATOM     34  C   UNL     1      -1.800  -5.085   2.280  0.00  0.00    -0.016 C 
ENDBRANCH  25  28
ENDBRANCH  24  25
ENDBRANCH   3  24
TORSDOF 9
