REMARK  Name = ZINC41585702
REMARK  8 active torsions:
REMARK  status: ('A' for Active; 'I' for Inactive)
REMARK    1  A    between atoms: C_1  and  C_2
REMARK    2  A    between atoms: C_4  and  O_35
REMARK    3  A    between atoms: C_5  and  C_20
REMARK    4  A    between atoms: C_11  and  C_12
REMARK    5  A    between atoms: C_20  and  N_21
REMARK    6  A    between atoms: N_24  and  C_27
REMARK    7  A    between atoms: C_30  and  O_33
REMARK    8  A    between atoms: O_33  and  C_34
REMARK                            x       y       z     vdW  Elec       q    Type
REMARK                         _______ _______ _______ _____ _____    ______ ____
ROOT
ATOM      1  C   UNL     1      -0.463   1.818   0.203  0.00  0.00    +0.045 C 
ATOM      2  C   UNL     1      -0.338   0.321   0.075  0.00  0.00    -0.033 A 
ATOM      3  C   UNL     1      -0.350  -0.264  -1.160  0.00  0.00    +0.050 A 
ATOM      4  C   UNL     1      -0.236  -1.646  -1.280  0.00  0.00    +0.122 A 
ATOM      5  C   UNL     1      -0.108  -2.443  -0.154  0.00  0.00    +0.020 A 
ATOM      6  C   UNL     1      -0.093  -1.865   1.109  0.00  0.00    +0.145 A 
ATOM      7  C   UNL     1      -0.203  -0.469   1.217  0.00  0.00    +0.071 A 
ATOM      8  C   UNL     1      -0.150  -0.158   2.657  0.00  0.00    +0.232 C 
ATOM      9  O   UNL     1      -0.217   0.938   3.187  0.00  0.00    -0.283 OA
ATOM     10  C   UNL     1       0.002  -1.468   3.312  0.00  0.00    +0.176 C 
ATOM     11  C   UNL     1       0.096  -1.691   4.646  0.00  0.00    +0.058 C 
ATOM     12  O   UNL     1       0.018  -2.410   2.340  0.00  0.00    -0.451 OA
ENDROOT
BRANCH  11  13
ATOM     13  C   UNL     1       0.134  -3.067   5.160  0.00  0.00    -0.020 A 
ATOM     14  C   UNL     1       0.211  -4.148   4.273  0.00  0.00    +0.008 A 
ATOM     15  C   UNL     1       0.247  -5.436   4.763  0.00  0.00    +0.002 A 
ATOM     16  C   UNL     1       0.207  -5.663   6.128  0.00  0.00    +0.020 A 
ATOM     17  C   UNL     1       0.132  -4.600   7.012  0.00  0.00    +0.042 A 
ATOM     18  C   UNL     1       0.101  -3.304   6.538  0.00  0.00    +0.028 A 
ATOM     19 CL   UNL     1       0.082  -4.898   8.722  0.00  0.00    -0.084 Cl
ENDBRANCH  11  13
BRANCH   4  20
ATOM     20  O   UNL     1      -0.250  -2.218  -2.511  0.00  0.00    -0.506 OA
ATOM     21  H   UNL     1       0.625  -2.307  -2.913  0.00  0.00    +0.292 HD
ENDBRANCH   4  20
BRANCH   5  22
ATOM     22  C   UNL     1       0.015  -3.938  -0.299  0.00  0.00    -0.035 C 
BRANCH  22  23
ATOM     23  N   UNL     1       1.433  -4.304  -0.417  0.00  0.00    +0.385 N 
ATOM     24  C   UNL     1       1.980  -3.737  -1.656  0.00  0.00    -0.059 C 
ATOM     25  C   UNL     1       3.485  -4.020  -1.725  0.00  0.00    +0.086 C 
ATOM     26  N   UNL     1       3.694  -5.468  -1.575  0.00  0.00    -0.333 N 
ATOM     27  C   UNL     1       3.042  -6.150  -0.447  0.00  0.00    +0.086 C 
ATOM     28  C   UNL     1       1.559  -5.767  -0.439  0.00  0.00    -0.059 C 
ATOM     29  H   UNL     1       1.941  -3.935   0.372  0.00  0.00    -0.081 HD
BRANCH  26  30
ATOM     30  C   UNL     1       4.490  -6.178  -2.482  0.00  0.00    +0.030 A 
ATOM     31  C   UNL     1       5.196  -5.498  -3.466  0.00  0.00    +0.027 A 
ATOM     32  C   UNL     1       5.982  -6.199  -4.360  0.00  0.00    +0.047 A 
ATOM     33  C   UNL     1       6.066  -7.581  -4.275  0.00  0.00    +0.120 A 
ATOM     34  C   UNL     1       5.361  -8.260  -3.293  0.00  0.00    +0.047 A 
ATOM     35  C   UNL     1       4.579  -7.561  -2.394  0.00  0.00    +0.027 A 
BRANCH  33  36
ATOM     36  O   UNL     1       6.840  -8.270  -5.155  0.00  0.00    -0.495 OA
ATOM     37  C   UNL     1       6.880  -9.691  -5.010  0.00  0.00    +0.277 C 
ENDBRANCH  33  36
ENDBRANCH  26  30
ENDBRANCH  22  23
ENDBRANCH   5  22
TORSDOF 6
