REMARK  Name = ZINC41119927
REMARK  9 active torsions:
REMARK  status: ('A' for Active; 'I' for Inactive)
REMARK    1  A    between atoms: C_1  and  C_2
REMARK    2  A    between atoms: C_2  and  C_3
REMARK    3  A    between atoms: C_2  and  C_4
REMARK    4  A    between atoms: C_4  and  N_5
REMARK    5  A    between atoms: C_6  and  N_22
REMARK    6  A    between atoms: C_7  and  N_14
REMARK    7  A    between atoms: N_14  and  C_15
REMARK    8  A    between atoms: C_15  and  C_16
REMARK    9  A    between atoms: C_16  and  N_17
REMARK                            x       y       z     vdW  Elec       q    Type
REMARK                         _______ _______ _______ _____ _____    ______ ____
ROOT
ATOM      1  N   UNL     1      -1.416  -1.993  -0.116  0.00  0.00    -0.280 N 
ATOM      2  C   UNL     1      -1.450  -2.570  -1.365  0.00  0.00    +0.127 A 
ATOM      3  C   UNL     1      -1.433  -3.934  -1.474  0.00  0.00    +0.131 A 
ATOM      4  C   UNL     1      -1.382  -4.712  -0.303  0.00  0.00    +0.277 A 
ATOM      5  O   UNL     1      -1.366  -5.929  -0.375  0.00  0.00    -0.266 OA
ATOM      6  N   UNL     1      -1.351  -4.103   0.899  0.00  0.00    -0.273 N 
ATOM      7  H   UNL     1      -1.315  -4.638   1.708  0.00  0.00    +0.173 HD
ATOM      8  C   UNL     1      -1.362  -2.761   0.988  0.00  0.00    +0.331 A 
ATOM      9  O   UNL     1      -1.329  -2.233   2.083  0.00  0.00    -0.246 OA
ENDROOT
BRANCH   2  10
ATOM     10  N   UNL     1      -1.501  -1.784  -2.493  0.00  0.00    -0.343 N 
ATOM     11  H   UNL     1      -1.512  -0.817  -2.410  0.00  0.00    +0.144 HD
ATOM     12  H   UNL     1      -1.524  -2.196  -3.370  0.00  0.00    +0.144 HD
ENDBRANCH   2  10
BRANCH   3  13
ATOM     13  N   UNL     1      -1.468  -4.553  -2.745  0.00  0.00    -0.335 N 
ATOM     14  H   UNL     1      -1.504  -4.010  -3.548  0.00  0.00    +0.146 HD
BRANCH  13  15
ATOM     15  C   UNL     1      -1.450  -6.014  -2.849  0.00  0.00    +0.123 C 
BRANCH  15  16
ATOM     16  C   UNL     1      -1.494  -6.421  -4.323  0.00  0.00    +0.141 C 
BRANCH  16  17
ATOM     17  N   UNL     1      -1.476  -7.882  -4.428  0.00  0.00    -0.337 N 
ATOM     18  C   UNL     1      -0.365  -8.676  -4.517  0.00  0.00    +0.104 A 
ATOM     19  C   UNL     1      -0.800  -9.948  -4.594  0.00  0.00    +0.101 A 
ATOM     20  N   UNL     1      -2.140  -9.931  -4.552  0.00  0.00    -0.352 N 
ATOM     21  C   UNL     1      -2.552  -8.698  -4.447  0.00  0.00    +0.173 A 
ATOM     22  H   UNL     1      -2.713 -10.713  -4.590  0.00  0.00    +0.166 HD
ENDBRANCH  16  17
ENDBRANCH  15  16
ENDBRANCH  13  15
ENDBRANCH   3  13
BRANCH   1  23
ATOM     23  C   UNL     1      -1.433  -0.534   0.013  0.00  0.00    +0.131 C 
BRANCH  23  25
ATOM     24  C   UNL     1      -0.019   1.526   0.010  0.00  0.00    +0.009 C 
ATOM     25  C   UNL     1       0.002  -0.004   0.002  0.00  0.00    +0.003 C 
ATOM     26  C   UNL     1       0.742  -0.511   1.242  0.00  0.00    +0.009 C 
ENDBRANCH  23  25
ENDBRANCH   1  23
TORSDOF 7
