REMARK  Name = ZINC33795879
REMARK  9 active torsions:
REMARK  status: ('A' for Active; 'I' for Inactive)
REMARK    1  A    between atoms: C_1  and  O_2
REMARK    2  A    between atoms: O_2  and  C_3
REMARK    3  A    between atoms: C_10  and  C_12
REMARK    4  A    between atoms: C_12  and  C_14
REMARK    5  A    between atoms: C_19  and  C_21
REMARK    6  A    between atoms: C_24  and  O_29
REMARK    7  A    between atoms: C_25  and  O_27
REMARK    8  A    between atoms: O_27  and  C_28
REMARK    9  A    between atoms: O_29  and  C_30
REMARK                            x       y       z     vdW  Elec       q    Type
REMARK                         _______ _______ _______ _____ _____    ______ ____
ROOT
ATOM      1  C   UNL     1      -2.414   7.800   1.150  0.00  0.00    +0.080 C 
ATOM      2  C   UNL     1      -1.976   8.869   0.445  0.00  0.00    +0.250 C 
ATOM      3  C   UNL     1      -0.502   8.926   0.515  0.00  0.00    +0.293 C 
ATOM      4  O   UNL     1       0.189   9.772  -0.017  0.00  0.00    -0.266 OA
ATOM      5  N   UNL     1      -0.036   7.902   1.256  0.00  0.00    -0.232 N 
ATOM      6  C   UNL     1      -1.189   7.116   1.712  0.00  0.00    +0.152 C 
ATOM      7  C   UNL     1       1.296   7.637   1.539  0.00  0.00    +0.168 A 
ATOM      8  N   UNL     1       2.372   8.302   1.161  0.00  0.00    -0.233 NA
ATOM      9  C   UNL     1       3.578   7.911   1.522  0.00  0.00    +0.120 A 
ATOM     10  C   UNL     1       3.693   6.803   2.296  0.00  0.00    +0.068 A 
ATOM     11  S   UNL     1       1.975   6.351   2.487  0.00  0.00    -0.060 S 
ATOM     12  O   UNL     1      -2.763   9.748  -0.218  0.00  0.00    -0.282 OA
ENDROOT
BRANCH   6  13
ATOM     13  C   UNL     1      -1.095   5.707   1.187  0.00  0.00    -0.018 A 
ATOM     14  C   UNL     1      -0.691   5.481  -0.116  0.00  0.00    +0.009 A 
ATOM     15  C   UNL     1      -0.599   4.190  -0.601  0.00  0.00    +0.050 A 
ATOM     16  C   UNL     1      -0.921   3.118   0.217  0.00  0.00    +0.162 A 
ATOM     17  C   UNL     1      -1.327   3.345   1.528  0.00  0.00    +0.162 A 
ATOM     18  C   UNL     1      -1.413   4.642   2.009  0.00  0.00    +0.055 A 
BRANCH  17  19
ATOM     19  O   UNL     1      -1.639   2.297   2.336  0.00  0.00    -0.491 OA
ATOM     20  C   UNL     1      -1.962   2.599   3.695  0.00  0.00    +0.277 C 
ENDBRANCH  17  19
BRANCH  16  21
ATOM     21  O   UNL     1      -0.836   1.848  -0.260  0.00  0.00    -0.491 OA
ATOM     22  C   UNL     1      -0.412   1.690  -1.615  0.00  0.00    +0.277 C 
ENDBRANCH  16  21
ENDBRANCH   6  13
BRANCH   1  23
ATOM     23  C   UNL     1      -3.808   7.385   1.333  0.00  0.00    +0.230 C 
ATOM     24  O   UNL     1      -4.461   7.003   0.379  0.00  0.00    -0.283 OA
BRANCH  23  32
ATOM     25  C   UNL     1      -4.522   8.194   6.181  0.00  0.00    +0.163 A 
ATOM     26  C   UNL     1      -5.560   7.949   7.061  0.00  0.00    +0.049 A 
ATOM     27  C   UNL     1      -6.730   7.344   6.625  0.00  0.00    +0.004 A 
ATOM     28  C   UNL     1      -6.876   6.979   5.316  0.00  0.00    +0.012 A 
ATOM     29  C   UNL     1      -5.840   7.218   4.409  0.00  0.00    +0.025 A 
ATOM     30  C   UNL     1      -4.650   7.831   4.841  0.00  0.00    +0.177 A 
ATOM     31  O   UNL     1      -3.833   7.937   3.774  0.00  0.00    -0.448 OA
ATOM     32  C   UNL     1      -4.418   7.430   2.669  0.00  0.00    +0.176 A 
ATOM     33  C   UNL     1      -5.662   6.971   2.979  0.00  0.00    +0.062 A 
BRANCH  25  35
ATOM     34  C   UNL     1      -3.276   9.033   8.025  0.00  0.00    +0.277 C 
ATOM     35  O   UNL     1      -3.381   8.788   6.621  0.00  0.00    -0.491 OA
ENDBRANCH  25  35
ENDBRANCH  23  32
ENDBRANCH   1  23
TORSDOF 6
