REMARK  Name = ZINC05023165
REMARK  6 active torsions:
REMARK  status: ('A' for Active; 'I' for Inactive)
REMARK    1  A    between atoms: C_3  and  N_26
REMARK    2  A    between atoms: N_9  and  C_10
REMARK    3  A    between atoms: C_10  and  C_11
REMARK    4  A    between atoms: C_11  and  C_13
REMARK    5  A    between atoms: C_11  and  O_19
REMARK    6  A    between atoms: C_13  and  N_51
REMARK                            x       y       z     vdW  Elec       q    Type
REMARK                         _______ _______ _______ _____ _____    ______ ____
ROOT
ATOM      1  C   UNL     1       2.149   7.796  -0.192  0.00  0.00    +0.203 A 
ATOM      2  N   UNL     1       0.843   7.841  -0.199  0.00  0.00    -0.221 NA
ATOM      3  C   UNL     1       0.097   6.732  -0.164  0.00  0.00    +0.147 A 
ATOM      4  C   UNL     1       0.732   5.482  -0.120  0.00  0.00    +0.149 A 
ATOM      5  N   UNL     1       0.316   4.197  -0.078  0.00  0.00    -0.208 NA
ATOM      6  C   UNL     1       1.386   3.422  -0.047  0.00  0.00    +0.221 A 
ATOM      7  N   UNL     1       2.490   4.167  -0.062  0.00  0.00    -0.195 NA
ATOM      8  C   UNL     1       2.144   5.446  -0.112  0.00  0.00    +0.167 A 
ATOM      9  N   UNL     1       2.829   6.637  -0.150  0.00  0.00    -0.312 N 
ATOM     10  N   UNL     1       1.362   2.030   0.000  0.00  0.00    -0.295 N 
ATOM     11  C   UNL     1      -0.019   1.527   0.010  0.00  0.00    +0.136 C 
ATOM     12  C   UNL     1       0.002  -0.004   0.002  0.00  0.00    +0.179 C 
ATOM     13  O   UNL     1       0.757  -0.472   1.123  0.00  0.00    -0.377 OA
ATOM     14  C   UNL     1       2.108  -0.001   1.144  0.00  0.00    +0.179 C 
ATOM     15  C   UNL     1       2.108   1.530   1.164  0.00  0.00    +0.136 C 
ENDROOT
BRANCH   3  16
ATOM     16  N   UNL     1      -1.276   6.815  -0.173  0.00  0.00    -0.341 N 
ATOM     17  H   UNL     1      -1.811   6.007  -0.149  0.00  0.00    +0.144 HD
ATOM     18  H   UNL     1      -1.708   7.683  -0.204  0.00  0.00    +0.144 HD
ENDBRANCH   3  16
BRANCH   9  19
ATOM     19  C   UNL     1       4.294   6.644  -0.144  0.00  0.00    +0.154 C 
BRANCH  19  20
ATOM     20  C   UNL     1       4.810   6.472  -1.574  0.00  0.00    +0.118 C 
BRANCH  20  21
ATOM     21  O   UNL     1       4.430   7.605  -2.357  0.00  0.00    -0.392 OA
ATOM     22  H   UNL     1       4.777   8.445  -2.027  0.00  0.00    +0.210 HD
ENDBRANCH  20  21
BRANCH  20  23
ATOM     23  C   UNL     1       6.336   6.354  -1.555  0.00  0.00    -0.045 C 
BRANCH  23  29
ATOM     24  C   UNL     1       6.395   4.905  -3.495  0.00  0.00    -0.050 C 
ATOM     25  C   UNL     1       6.881   4.801  -4.943  0.00  0.00    +0.141 C 
ATOM     26  O   UNL     1       8.303   4.951  -4.974  0.00  0.00    -0.383 OA
ATOM     27  C   UNL     1       8.763   6.191  -4.430  0.00  0.00    +0.141 C 
ATOM     28  C   UNL     1       8.296   6.309  -2.977  0.00  0.00    -0.050 C 
ATOM     29  N   UNL     1       6.821   6.208  -2.944  0.00  0.00    +0.384 N 
ATOM     30  H   UNL     1       6.422   6.960  -3.518  0.00  0.00    -0.082 HD
ENDBRANCH  23  29
ENDBRANCH  20  23
ENDBRANCH  19  20
ENDBRANCH   9  19
TORSDOF 6
