REMARK  Name = ZINC66385084
REMARK  9 active torsions:
REMARK  status: ('A' for Active; 'I' for Inactive)
REMARK    1  A    between atoms: C_1  and  C_2
REMARK    2  A    between atoms: C_5  and  C_7
REMARK    3  A    between atoms: C_7  and  C_9
REMARK    4  A    between atoms: C_7  and  N_10
REMARK    5  A    between atoms: N_13  and  C_14
REMARK    6  A    between atoms: C_14  and  C_16
REMARK    7  A    between atoms: C_14  and  C_17
REMARK    8  A    between atoms: C_20  and  N_23
REMARK    9  A    between atoms: N_26  and  C_29
REMARK                            x       y       z     vdW  Elec       q    Type
REMARK                         _______ _______ _______ _____ _____    ______ ____
ROOT
ATOM      1  C   UNL     1       3.999  -6.691   2.816  0.00  0.00    +0.102 C 
ATOM      2  C   UNL     1       4.873  -7.465   1.827  0.00  0.00    +0.033 C 
ENDROOT
BRANCH   1   6
ATOM      3  N   UNL     1       2.181  -4.153   0.874  0.00  0.00    -0.292 N 
ATOM      4  C   UNL     1       2.537  -5.334   1.417  0.00  0.00    +0.301 C 
ATOM      5  O   UNL     1       1.887  -6.334   1.177  0.00  0.00    -0.253 OA
ATOM      6  N   UNL     1       3.612  -5.407   2.226  0.00  0.00    -0.293 N 
ATOM      7  H   UNL     1       2.699  -3.356   1.065  0.00  0.00    +0.151 HD
ATOM      8  H   UNL     1       4.130  -4.610   2.417  0.00  0.00    +0.151 HD
BRANCH   3   9
ATOM      9  C   UNL     1       1.012  -4.074  -0.005  0.00  0.00    +0.108 C 
ATOM     10  C   UNL     1       1.421  -4.441  -1.433  0.00  0.00    +0.033 C 
BRANCH   9  15
ATOM     11  C   UNL     1      -0.105   1.479   0.068  0.00  0.00    +0.051 C 
ATOM     12  C   UNL     1      -0.070  -0.027   0.050  0.00  0.00    -0.013 A 
ATOM     13  C   UNL     1      -1.102  -0.905   0.047  0.00  0.00    +0.011 A 
ATOM     14  C   UNL     1      -0.830  -2.260   0.029  0.00  0.00    +0.013 A 
ATOM     15  C   UNL     1       0.462  -2.671   0.015  0.00  0.00    +0.010 A 
ATOM     16  S   UNL     1       1.343  -1.118   0.021  0.00  0.00    -0.097 S 
ENDBRANCH   9  15
ENDBRANCH   3   9
ENDBRANCH   1   6
BRANCH   1  17
ATOM     17  C   UNL     1       4.772  -6.447   4.087  0.00  0.00    -0.027 A 
ATOM     18  C   UNL     1       5.689  -5.413   4.148  0.00  0.00    +0.007 A 
ATOM     19  C   UNL     1       6.399  -5.187   5.311  0.00  0.00    +0.023 A 
ATOM     20  C   UNL     1       6.193  -5.999   6.418  0.00  0.00    +0.030 A 
ATOM     21  C   UNL     1       5.272  -7.037   6.353  0.00  0.00    +0.023 A 
ATOM     22  C   UNL     1       4.560  -7.254   5.189  0.00  0.00    +0.007 A 
BRANCH  20  23
ATOM     23  N   UNL     1       6.910  -5.773   7.596  0.00  0.00    -0.333 N 
ATOM     24  C   UNL     1       6.624  -6.544   8.815  0.00  0.00    +0.086 C 
ATOM     25  C   UNL     1       7.943  -7.104   9.357  0.00  0.00    -0.060 C 
ATOM     26  N   UNL     1       8.899  -6.005   9.545  0.00  0.00    +0.380 N 
ATOM     27  C   UNL     1       9.229  -5.402   8.247  0.00  0.00    -0.060 C 
ATOM     28  C   UNL     1       7.977  -4.762   7.649  0.00  0.00    +0.086 C 
ATOM     29  C   UNL     1      10.125  -6.526  10.166  0.00  0.00    -0.096 C 
ATOM     30  H   UNL     1       8.492  -5.305  10.146  0.00  0.00    -0.082 HD
ENDBRANCH  20  23
ENDBRANCH   1  17
TORSDOF 5
