REMARK  Name = ZINC63427050
REMARK  4 active torsions:
REMARK  status: ('A' for Active; 'I' for Inactive)
REMARK    1  A    between atoms: C_6  and  S_10
REMARK    2  A    between atoms: S_10  and  C_11
REMARK    3  A    between atoms: C_11  and  C_12
REMARK    4  A    between atoms: C_14  and  C_25
REMARK                            x       y       z     vdW  Elec       q    Type
REMARK                         _______ _______ _______ _____ _____    ______ ____
ROOT
ATOM      1  C   UNL     1       3.321  -2.534  -4.207  0.00  0.00    +0.149 C 
ATOM      2  C   UNL     1       2.771  -1.719  -5.397  0.00  0.00    +0.265 C 
ATOM      3  N   UNL     1       3.974  -1.318  -6.138  0.00  0.00    -0.154 NA
ATOM      4  N   UNL     1       4.992  -1.741  -5.598  0.00  0.00    -0.076 NA
ATOM      5  N   UNL     1       4.777  -2.489  -4.434  0.00  0.00    -0.177 N 
ATOM      6  C   UNL     1       5.755  -3.079  -3.636  0.00  0.00    +0.228 A 
ATOM      7  C   UNL     1       7.204  -2.905  -3.783  0.00  0.00    +0.204 A 
ATOM      8  N   UNL     1       7.797  -3.610  -2.860  0.00  0.00    -0.032 NA
ATOM      9  O   UNL     1       6.795  -4.255  -2.095  0.00  0.00    -0.239 OA
ATOM     10  N   UNL     1       5.538  -3.878  -2.628  0.00  0.00    -0.030 NA
ATOM     11  N   UNL     1       7.837  -2.122  -4.742  0.00  0.00    -0.338 N 
ATOM     12  H   UNL     1       7.310  -1.630  -5.391  0.00  0.00    +0.144 HD
ATOM     13  H   UNL     1       8.805  -2.067  -4.761  0.00  0.00    +0.144 HD
ENDROOT
BRANCH   2  14
ATOM     14  C   UNL     1       2.020  -0.508  -4.907  0.00  0.00    +0.384 C 
ATOM     15  O   UNL     1       2.485   0.606  -5.075  0.00  0.00    -0.244 OA
ATOM     16  O   UNL     1       0.948  -0.643  -4.342  0.00  0.00    -0.244 OA
ENDBRANCH   2  14
BRANCH   1  17
ATOM     17  C   UNL     1       2.956  -1.869  -2.878  0.00  0.00    +0.100 C 
BRANCH  17  18
ATOM     18  S   UNL     1       3.617  -2.856  -1.507  0.00  0.00    -0.113 S 
BRANCH  18  24
ATOM     19  C   UNL     1       0.190   1.610  -0.031  0.00  0.00    +0.002 A 
ATOM     20  C   UNL     1       1.401   2.325  -0.052  0.00  0.00    +0.002 A 
ATOM     21  C   UNL     1       2.604   1.716  -0.059  0.00  0.00    +0.027 A 
ATOM     22  C   UNL     1       2.674   0.249  -0.043  0.00  0.00    +0.061 A 
ATOM     23  N   UNL     1       3.670  -0.589  -0.045  0.00  0.00    -0.355 N 
ATOM     24  C   UNL     1       3.105  -1.945  -0.024  0.00  0.00    +0.235 C 
ATOM     25  N   UNL     1       1.646  -1.785  -0.010  0.00  0.00    -0.355 N 
ATOM     26  C   UNL     1       1.393  -0.508  -0.021  0.00  0.00    +0.061 A 
ATOM     27  C   UNL     1       0.141   0.263  -0.016  0.00  0.00    +0.027 A 
ATOM     28  H   UNL     1       4.613  -0.361  -0.059  0.00  0.00    +0.162 HD
ATOM     29  H   UNL     1       0.990  -2.499   0.005  0.00  0.00    +0.162 HD
ENDBRANCH  18  24
ENDBRANCH  17  18
ENDBRANCH   1  17
TORSDOF 4
