REMARK  Name = ZINC55359115
REMARK  8 active torsions:
REMARK  status: ('A' for Active; 'I' for Inactive)
REMARK    1  A    between atoms: C_4  and  C_7
REMARK    2  A    between atoms: C_7  and  C_13
REMARK    3  A    between atoms: C_13  and  N_14
REMARK    4  A    between atoms: N_14  and  C_15
REMARK    5  A    between atoms: C_15  and  C_16
REMARK    6  A    between atoms: N_18  and  C_25
REMARK    7  A    between atoms: C_25  and  C_26
REMARK    8  A    between atoms: C_26  and  C_27
REMARK                            x       y       z     vdW  Elec       q    Type
REMARK                         _______ _______ _______ _____ _____    ______ ____
ROOT
ATOM      1  C   UNL     1       2.387  -4.097  -0.947  0.00  0.00    -0.045 C 
ENDROOT
BRANCH   1   2
ATOM      2  C   UNL     1       1.646  -4.578  -2.168  0.00  0.00    -0.039 A 
ATOM      3  C   UNL     1       0.317  -4.719  -2.291  0.00  0.00    +0.088 A 
ATOM      4  N   UNL     1       0.011  -5.178  -3.543  0.00  0.00    -0.346 N 
ATOM      5  C   UNL     1       1.165  -5.348  -4.275  0.00  0.00    +0.049 A 
ATOM      6  C   UNL     1       2.240  -4.974  -3.447  0.00  0.00    +0.001 A 
ATOM      7  C   UNL     1       3.547  -5.039  -3.932  0.00  0.00    +0.010 A 
ATOM      8  C   UNL     1       3.777  -5.464  -5.210  0.00  0.00    +0.001 A 
ATOM      9  C   UNL     1       2.720  -5.830  -6.032  0.00  0.00    +0.002 A 
ATOM     10  C   UNL     1       1.422  -5.782  -5.571  0.00  0.00    +0.026 A 
BRANCH   4  11
ATOM     11  C   UNL     1      -1.343  -5.449  -4.033  0.00  0.00    +0.131 C 
BRANCH  11  12
ATOM     12  C   UNL     1      -1.668  -6.931  -3.841  0.00  0.00    +0.117 C 
BRANCH  12  13
ATOM     13  C   UNL     1      -3.061  -7.209  -4.345  0.00  0.00    +0.212 C 
ATOM     14  O   UNL     1      -3.728  -6.310  -4.811  0.00  0.00    -0.276 OA
ATOM     15  N   UNL     1      -3.566  -8.457  -4.277  0.00  0.00    -0.329 N 
ATOM     16  H   UNL     1      -3.032  -9.177  -3.905  0.00  0.00    +0.145 HD
ATOM     17  H   UNL     1      -4.462  -8.636  -4.601  0.00  0.00    +0.145 HD
ENDBRANCH  12  13
ENDBRANCH  11  12
ENDBRANCH   4  11
ENDBRANCH   1   2
BRANCH   1  18
ATOM     18  N   UNL     1       2.736  -2.680  -1.112  0.00  0.00    +0.382 N 
ATOM     19  H   UNL     1       1.893  -2.138  -1.229  0.00  0.00    -0.085 HD
ATOM     20  H   UNL     1       3.322  -2.570  -1.925  0.00  0.00    -0.085 HD
BRANCH  18  21
ATOM     21  C   UNL     1       3.458  -2.212   0.079  0.00  0.00    -0.070 C 
BRANCH  21  22
ATOM     22  C   UNL     1       3.703  -0.706  -0.033  0.00  0.00    -0.015 C 
ATOM     23  C   UNL     1       4.414  -0.397  -1.355  0.00  0.00    +0.038 C 
ATOM     24  C   UNL     1       5.784  -1.079  -1.359  0.00  0.00    +0.160 C 
ATOM     25  O   UNL     1       6.543  -0.627  -0.236  0.00  0.00    -0.380 OA
ATOM     26  C   UNL     1       5.951  -0.930   1.029  0.00  0.00    +0.160 C 
ATOM     27  C   UNL     1       4.587  -0.242   1.129  0.00  0.00    +0.038 C 
BRANCH  22  31
ATOM     28  C   UNL     1      -0.032   1.364   0.095  0.00  0.00    +0.000 A 
ATOM     29  C   UNL     1       1.133   2.056  -0.180  0.00  0.00    +0.000 A 
ATOM     30  C   UNL     1       2.342   1.386  -0.222  0.00  0.00    +0.004 A 
ATOM     31  C   UNL     1       2.386   0.025   0.013  0.00  0.00    -0.043 A 
ATOM     32  C   UNL     1       1.221  -0.667   0.289  0.00  0.00    +0.004 A 
ATOM     33  C   UNL     1       0.013   0.002   0.329  0.00  0.00    +0.000 A 
ENDBRANCH  22  31
ENDBRANCH  21  22
ENDBRANCH  18  21
ENDBRANCH   1  18
TORSDOF 8
