REMARK  Name = ZINC32513829
REMARK  10 active torsions:
REMARK  status: ('A' for Active; 'I' for Inactive)
REMARK    1  A    between atoms: C_1  and  C_2
REMARK    2  A    between atoms: C_4  and  C_8
REMARK    3  A    between atoms: C_8  and  C_9
REMARK    4  A    between atoms: C_9  and  N_10
REMARK    5  A    between atoms: C_11  and  C_13
REMARK    6  A    between atoms: C_13  and  C_14
REMARK    7  A    between atoms: N_21  and  C_22
REMARK    8  A    between atoms: C_22  and  C_23
REMARK    9  A    between atoms: C_28  and  O_29
REMARK   10  A    between atoms: O_29  and  C_30
REMARK                            x       y       z     vdW  Elec       q    Type
REMARK                         _______ _______ _______ _____ _____    ______ ____
ROOT
ATOM      1  C   UNL     1      -6.990   7.387  -3.923  0.00  0.00    +0.028 C 
ATOM      2  C   UNL     1      -8.380   7.607  -4.449  0.00  0.00    +0.200 C 
ATOM      3  O   UNL     1      -9.245   6.807  -4.159  0.00  0.00    -0.278 OA
ATOM      4  N   UNL     1      -8.703   8.649  -5.223  0.00  0.00    -0.318 N 
ATOM      5  C   UNL     1      -7.725   9.648  -5.647  0.00  0.00    +0.085 C 
ATOM      6  C   UNL     1      -6.483   9.571  -4.757  0.00  0.00    -0.058 C 
ATOM      7  N   UNL     1      -6.027   8.174  -4.704  0.00  0.00    +0.391 N 
ATOM      8  H   UNL     1      -9.623   8.745  -5.516  0.00  0.00    +0.149 HD
ATOM      9  H   UNL     1      -5.966   7.801  -5.640  0.00  0.00    -0.080 HD
ENDROOT
BRANCH   1  10
ATOM     10  C   UNL     1      -6.636   5.902  -4.029  0.00  0.00    +0.089 C 
BRANCH  10  12
ATOM     11  N   UNL     1      -6.350   4.221  -5.820  0.00  0.00    -0.315 N 
ATOM     12  C   UNL     1      -6.731   5.465  -5.468  0.00  0.00    +0.212 C 
ATOM     13  O   UNL     1      -7.151   6.231  -6.308  0.00  0.00    -0.276 OA
ATOM     14  H   UNL     1      -6.014   3.608  -5.148  0.00  0.00    +0.149 HD
BRANCH  11  15
ATOM     15  C   UNL     1      -6.442   3.795  -7.219  0.00  0.00    +0.112 C 
BRANCH  15  16
ATOM     16  C   UNL     1      -5.950   2.352  -7.347  0.00  0.00    +0.091 C 
BRANCH  16  20
ATOM     17  C   UNL     1      -4.835   1.455 -12.204  0.00  0.00    +0.065 C 
ATOM     18  C   UNL     1      -5.560   1.528 -10.884  0.00  0.00    +0.030 A 
ATOM     19  N   UNL     1      -5.075   2.049  -9.715  0.00  0.00    -0.347 N 
ATOM     20  C   UNL     1      -6.046   1.914  -8.785  0.00  0.00    +0.086 A 
ATOM     21  H   UNL     1      -4.199   2.442  -9.579  0.00  0.00    +0.167 HD
ATOM     22  N   UNL     1      -7.079   1.342  -9.339  0.00  0.00    -0.350 N 
ATOM     23  C   UNL     1      -6.810   1.098 -10.631  0.00  0.00    +0.104 A 
ATOM     24  H   UNL     1      -7.912   1.129  -8.889  0.00  0.00    +0.166 HD
ENDBRANCH  16  20
ENDBRANCH  15  16
ENDBRANCH  11  15
ENDBRANCH  10  12
ENDBRANCH   1  10
BRANCH   7  25
ATOM     25  C   UNL     1      -4.707   8.114  -4.062  0.00  0.00    -0.038 C 
BRANCH  25  26
ATOM     26  C   UNL     1      -3.694   8.815  -4.929  0.00  0.00    -0.022 A 
ATOM     27  C   UNL     1      -2.958   8.097  -5.852  0.00  0.00    +0.005 A 
ATOM     28  C   UNL     1      -2.029   8.739  -6.648  0.00  0.00    +0.000 A 
ATOM     29  C   UNL     1      -1.832  10.102  -6.523  0.00  0.00    +0.004 A 
ATOM     30  C   UNL     1      -2.565  10.825  -5.603  0.00  0.00    +0.046 A 
ATOM     31  C   UNL     1      -3.503  10.184  -4.806  0.00  0.00    +0.121 A 
BRANCH  31  32
ATOM     32  O   UNL     1      -4.229  10.894  -3.904  0.00  0.00    -0.495 OA
ATOM     33  C   UNL     1      -3.980  12.299  -3.831  0.00  0.00    +0.277 C 
ENDBRANCH  31  32
ENDBRANCH  25  26
ENDBRANCH   7  25
TORSDOF 8
