REMARK  Name = ZINC39689277
REMARK  8 active torsions:
REMARK  status: ('A' for Active; 'I' for Inactive)
REMARK    1  A    between atoms: C_1  and  O_2
REMARK    2  A    between atoms: O_2  and  C_3
REMARK    3  A    between atoms: C_3  and  C_4
REMARK    4  A    between atoms: C_4  and  C_5
REMARK    5  A    between atoms: C_9  and  C_18
REMARK    6  A    between atoms: N_20  and  C_21
REMARK    7  A    between atoms: C_21  and  C_22
REMARK    8  A    between atoms: N_25  and  C_28
REMARK                            x       y       z     vdW  Elec       q    Type
REMARK                         _______ _______ _______ _____ _____    ______ ____
ROOT
ATOM      1  C   UNL     1      -2.226  -2.764  -0.105  0.00  0.00    +0.218 C 
ATOM      2  O   UNL     1      -3.156  -1.986  -0.127  0.00  0.00    -0.276 OA
ATOM      3  N   UNL     1      -2.458  -4.091  -0.070  0.00  0.00    -0.300 N 
ATOM      4  C   UNL     1      -1.462  -5.187  -0.032  0.00  0.00    +0.121 C 
ATOM      5  C   UNL     1      -2.061  -6.228   0.940  0.00  0.00    +0.100 C 
ATOM      6  C   UNL     1      -3.576  -5.960   0.916  0.00  0.00    -0.004 C 
ATOM      7  C   UNL     1      -3.769  -4.785  -0.053  0.00  0.00    +0.115 C 
ATOM      8  C   UNL     1      -4.066  -5.574   2.308  0.00  0.00    -0.010 C 
ATOM      9  C   UNL     1      -5.583  -5.368   2.271  0.00  0.00    -0.082 C 
ATOM     10  N   UNL     1      -6.235  -6.605   1.827  0.00  0.00    +0.379 N 
ATOM     11  C   UNL     1      -5.829  -6.919   0.452  0.00  0.00    -0.082 C 
ATOM     12  C   UNL     1      -4.323  -7.190   0.411  0.00  0.00    -0.010 C 
ATOM     13  H   UNL     1      -5.968  -7.363   2.437  0.00  0.00    -0.086 HD
ATOM     14  H   UNL     1      -7.237  -6.486   1.862  0.00  0.00    -0.086 HD
ENDROOT
BRANCH   5  15
ATOM     15  C   UNL     1      -1.512  -6.026   2.329  0.00  0.00    +0.218 C 
ATOM     16  O   UNL     1      -1.188  -4.917   2.697  0.00  0.00    -0.275 OA
ATOM     17  N   UNL     1      -1.381  -7.078   3.161  0.00  0.00    -0.315 N 
ATOM     18  H   UNL     1      -1.641  -7.965   2.866  0.00  0.00    +0.149 HD
BRANCH  17  19
ATOM     19  C   UNL     1      -0.848  -6.882   4.511  0.00  0.00    +0.107 C 
BRANCH  19  20
ATOM     20  C   UNL     1      -0.804  -8.226   5.242  0.00  0.00    +0.003 C 
ATOM     21  C   UNL     1      -2.230  -8.741   5.452  0.00  0.00    -0.014 C 
ATOM     22  C   UNL     1      -2.183 -10.044   6.253  0.00  0.00    -0.078 C 
ATOM     23  N   UNL     1      -1.554  -9.800   7.556  0.00  0.00    +0.382 N 
ATOM     24  C   UNL     1      -0.162  -9.374   7.364  0.00  0.00    -0.078 C 
ATOM     25  C   UNL     1      -0.131  -8.045   6.606  0.00  0.00    -0.014 C 
ATOM     26  H   UNL     1      -2.062  -9.077   8.043  0.00  0.00    -0.081 HD
BRANCH  23  27
ATOM     27  C   UNL     1      -1.581 -11.034   8.351  0.00  0.00    -0.069 C 
ATOM     28  C   UNL     1      -3.040 -11.451   8.629  0.00  0.00    -0.015 C 
ATOM     29  C   UNL     1      -3.005 -12.017  10.070  0.00  0.00    -0.002 C 
ATOM     30  C   UNL     1      -2.006 -11.073  10.784  0.00  0.00    -0.002 C 
ATOM     31  C   UNL     1      -0.924 -10.794   9.721  0.00  0.00    -0.015 C 
ENDBRANCH  23  27
ENDBRANCH  19  20
ENDBRANCH  17  19
ENDBRANCH   5  15
BRANCH   1  32
ATOM     32  C   UNL     1      -0.811  -2.247  -0.117  0.00  0.00    +0.124 C 
BRANCH  32  33
ATOM     33  C   UNL     1      -0.827  -0.718  -0.157  0.00  0.00    +0.168 C 
BRANCH  33  35
ATOM     34  C   UNL     1       0.613   1.198  -0.206  0.00  0.00    +0.194 C 
ATOM     35  O   UNL     1       0.515  -0.227  -0.169  0.00  0.00    -0.382 OA
ENDBRANCH  33  35
ENDBRANCH  32  33
ENDBRANCH   1  32
TORSDOF 7
