REMARK  Name = ZINC09729413
REMARK  8 active torsions:
REMARK  status: ('A' for Active; 'I' for Inactive)
REMARK    1  A    between atoms: C_1  and  C_2
REMARK    2  A    between atoms: C_2  and  C_4
REMARK    3  A    between atoms: C_2  and  N_67
REMARK    4  A    between atoms: C_7  and  S_16
REMARK    5  A    between atoms: N_8  and  C_9
REMARK    6  A    between atoms: S_16  and  C_17
REMARK    7  A    between atoms: C_17  and  C_18
REMARK    8  A    between atoms: N_20  and  C_21
REMARK                            x       y       z     vdW  Elec       q    Type
REMARK                         _______ _______ _______ _____ _____    ______ ____
ROOT
ATOM      1  C   UNL     1       2.041   0.584  -0.014  0.00  0.00    +0.125 A 
ATOM      2  N   UNL     1       1.216  -0.425  -0.012  0.00  0.00    -0.135 NA
ATOM      3  N   UNL     1       0.002  -0.004   0.002  0.00  0.00    -0.122 NA
ATOM      4  C   UNL     1      -0.016   1.309   0.009  0.00  0.00    +0.197 A 
ATOM      5  N   UNL     1       1.287   1.726  -0.001  0.00  0.00    -0.275 N 
ENDROOT
BRANCH   5   6
ATOM      6  C   UNL     1       1.753   3.050   0.001  0.00  0.00    +0.050 A 
ATOM      7  C   UNL     1       2.457   3.540  -1.090  0.00  0.00    +0.029 A 
ATOM      8  C   UNL     1       2.911   4.845  -1.089  0.00  0.00    +0.040 A 
ATOM      9  C   UNL     1       2.673   5.660   0.005  0.00  0.00    +0.124 A 
ATOM     10  C   UNL     1       1.975   5.171   1.096  0.00  0.00    +0.040 A 
ATOM     11  C   UNL     1       1.515   3.869   1.096  0.00  0.00    +0.029 A 
ATOM     12  F   UNL     1       3.123   6.934   0.007  0.00  0.00    -0.205 F 
ENDBRANCH   5   6
BRANCH   1  14
ATOM     13  C   UNL     1       4.023   0.115  -1.430  0.00  0.00    -0.005 C 
ATOM     14  C   UNL     1       3.546   0.507  -0.029  0.00  0.00    -0.002 C 
BRANCH  14  20
ATOM     15  C   UNL     1       3.471  -0.211   2.281  0.00  0.00    -0.078 C 
ATOM     16  C   UNL     1       3.836  -1.355   3.231  0.00  0.00    -0.019 C 
ATOM     17  C   UNL     1       5.359  -1.506   3.279  0.00  0.00    -0.004 C 
ATOM     18  C   UNL     1       5.883  -1.759   1.863  0.00  0.00    -0.019 C 
ATOM     19  C   UNL     1       5.460  -0.604   0.953  0.00  0.00    -0.078 C 
ATOM     20  N   UNL     1       3.983  -0.527   0.931  0.00  0.00    +0.386 N 
ATOM     21  H   UNL     1       3.607  -1.436   0.636  0.00  0.00    -0.081 HD
ENDBRANCH  14  20
ENDBRANCH   1  14
BRANCH   4  22
ATOM     22  S   UNL     1      -1.446   2.337   0.022  0.00  0.00    -0.076 S 
BRANCH  22  23
ATOM     23  C   UNL     1      -2.742   1.074   0.022  0.00  0.00    +0.173 C 
BRANCH  23  24
ATOM     24  C   UNL     1      -4.094   1.740   0.033  0.00  0.00    +0.224 C 
ATOM     25  O   UNL     1      -4.173   2.951   0.039  0.00  0.00    -0.275 OA
ATOM     26  N   UNL     1      -5.214   0.992   0.035  0.00  0.00    -0.308 N 
ATOM     27  H   UNL     1      -5.151   0.024   0.029  0.00  0.00    +0.149 HD
BRANCH  26  28
ATOM     28  C   UNL     1      -6.528   1.639   0.045  0.00  0.00    +0.103 C 
ATOM     29  C   UNL     1      -7.555   0.687   0.654  0.00  0.00    +0.027 C 
ATOM     30  C   UNL     1      -8.950   1.292   0.460  0.00  0.00    +0.007 C 
ATOM     31  C   UNL     1      -9.299   1.230  -1.026  0.00  0.00    +0.035 C 
ATOM     32  C   UNL     1      -8.188   1.817  -1.856  0.00  0.00    -0.042 A 
ATOM     33  C   UNL     1      -6.914   2.002  -1.366  0.00  0.00    -0.024 A 
ATOM     34  C   UNL     1      -5.933   2.542  -2.186  0.00  0.00    +0.006 A 
ATOM     35  C   UNL     1      -6.224   2.899  -3.487  0.00  0.00    +0.000 A 
ATOM     36  C   UNL     1      -7.504   2.717  -3.978  0.00  0.00    +0.000 A 
ATOM     37  C   UNL     1      -8.480   2.179  -3.165  0.00  0.00    +0.004 A 
ENDBRANCH  26  28
ENDBRANCH  23  24
ENDBRANCH  22  23
ENDBRANCH   4  22
TORSDOF 7
