REMARK  Name = ZINC59578143
REMARK  12 active torsions:
REMARK  status: ('A' for Active; 'I' for Inactive)
REMARK    1  A    between atoms: C_1  and  C_2
REMARK    2  A    between atoms: C_4  and  S_30
REMARK    3  A    between atoms: C_6  and  N_9
REMARK    4  A    between atoms: C_7  and  C_8
REMARK    5  A    between atoms: C_10  and  C_12
REMARK    6  A    between atoms: C_12  and  N_13
REMARK    7  A    between atoms: N_13  and  C_14
REMARK    8  A    between atoms: N_13  and  C_17
REMARK    9  A    between atoms: C_17  and  C_19
REMARK   10  A    between atoms: C_17  and  C_20
REMARK   11  A    between atoms: C_24  and  C_26
REMARK   12  A    between atoms: S_30  and  N_33
REMARK                            x       y       z     vdW  Elec       q    Type
REMARK                         _______ _______ _______ _____ _____    ______ ____
ROOT
ATOM      1  N   UNL     1      -1.315  -3.316   4.956  0.00  0.00    -0.287 N 
ATOM      2  C   UNL     1      -1.027  -4.598   4.656  0.00  0.00    +0.201 C 
ATOM      3  O   UNL     1      -1.756  -5.488   5.039  0.00  0.00    -0.278 OA
ATOM      4  H   UNL     1      -0.779  -2.598   4.583  0.00  0.00    +0.155 HD
ENDROOT
BRANCH   1  10
ATOM      5  C   UNL     1      -4.753  -0.152   6.487  0.00  0.00    +0.044 C 
ATOM      6  C   UNL     1      -4.071  -1.493   6.570  0.00  0.00    -0.044 A 
ATOM      7  C   UNL     1      -4.504  -2.433   7.488  0.00  0.00    +0.032 A 
ATOM      8  C   UNL     1      -3.881  -3.665   7.567  0.00  0.00    +0.107 A 
ATOM      9  C   UNL     1      -2.823  -3.961   6.729  0.00  0.00    +0.052 A 
ATOM     10  C   UNL     1      -2.386  -3.019   5.806  0.00  0.00    +0.038 A 
ATOM     11  C   UNL     1      -3.017  -1.785   5.726  0.00  0.00    -0.026 A 
ATOM     12  C   UNL     1      -2.550  -0.763   4.722  0.00  0.00    +0.046 C 
BRANCH   8  13
ATOM     13  S   UNL     1      -4.436  -4.858   8.738  0.00  0.00    +0.056 S 
ATOM     14  O   UNL     1      -3.338  -5.726   8.986  0.00  0.00    -0.153 OA
ATOM     15  O   UNL     1      -5.086  -4.137   9.776  0.00  0.00    -0.153 OA
BRANCH  13  16
ATOM     16  N   UNL     1      -5.601  -5.770   7.994  0.00  0.00    -0.204 NA
ATOM     17  H   UNL     1      -5.848  -5.584   7.074  0.00  0.00    +0.144 HD
ATOM     18  H   UNL     1      -6.036  -6.489   8.477  0.00  0.00    +0.144 HD
ENDBRANCH  13  16
ENDBRANCH   8  13
ENDBRANCH   1  10
BRANCH   2  19
ATOM     19  C   UNL     1       0.200  -4.925   3.845  0.00  0.00    +0.020 C 
BRANCH  19  20
ATOM     20  N   UNL     1       0.225  -6.364   3.554  0.00  0.00    +0.392 N 
ATOM     21  H   UNL     1       0.999  -6.570   2.940  0.00  0.00    -0.080 HD
BRANCH  20  22
ATOM     22  C   UNL     1      -1.033  -6.755   2.902  0.00  0.00    -0.067 C 
ATOM     23  C   UNL     1      -0.939  -7.640   1.658  0.00  0.00    -0.017 C 
ATOM     24  C   UNL     1      -1.325  -6.166   1.520  0.00  0.00    -0.017 C 
ENDBRANCH  20  22
BRANCH  20  25
ATOM     25  C   UNL     1       0.380  -7.115   4.807  0.00  0.00    -0.040 C 
ATOM     26  C   UNL     1       0.526  -8.605   4.494  0.00  0.00    -0.008 C 
BRANCH  25  27
ATOM     27  C   UNL     1       1.609  -6.631   5.533  0.00  0.00    -0.061 A 
ATOM     28  C   UNL     1       2.757  -6.329   4.824  0.00  0.00    +0.002 A 
ATOM     29  C   UNL     1       3.884  -5.886   5.490  0.00  0.00    +0.001 A 
ATOM     30  C   UNL     1       3.863  -5.743   6.865  0.00  0.00    +0.012 A 
ATOM     31  C   UNL     1       2.716  -6.044   7.574  0.00  0.00    +0.055 A 
ATOM     32  C   UNL     1       1.587  -6.484   6.907  0.00  0.00    +0.014 A 
BRANCH  31  33
ATOM     33  C   UNL     1       2.693  -5.889   9.072  0.00  0.00    +0.417 C 
ATOM     34  F   UNL     1       3.940  -5.432   9.513  0.00  0.00    -0.166 F 
ATOM     35  F   UNL     1       1.704  -4.967   9.431  0.00  0.00    -0.166 F 
ATOM     36  F   UNL     1       2.415  -7.126   9.665  0.00  0.00    -0.166 F 
ENDBRANCH  31  33
ENDBRANCH  25  27
ENDBRANCH  20  25
ENDBRANCH  19  20
ENDBRANCH   2  19
TORSDOF 9
