REMARK  Name = ZINC37621439
REMARK  8 active torsions:
REMARK  status: ('A' for Active; 'I' for Inactive)
REMARK    1  A    between atoms: C_1  and  C_2
REMARK    2  A    between atoms: C_2  and  C_3
REMARK    3  A    between atoms: C_3  and  C_4
REMARK    4  A    between atoms: C_4  and  C_5
REMARK    5  A    between atoms: C_4  and  C_6
REMARK    6  A    between atoms: C_4  and  N_18
REMARK    7  A    between atoms: N_8  and  C_9
REMARK    8  A    between atoms: C_12  and  C_16
REMARK                            x       y       z     vdW  Elec       q    Type
REMARK                         _______ _______ _______ _____ _____    ______ ____
ROOT
ATOM      1  C   UNL     1      -2.632  -2.849   1.328  0.00  0.00    +0.206 C 
ATOM      2  O   UNL     1      -3.391  -2.301   2.099  0.00  0.00    -0.277 OA
ATOM      3  N   UNL     1      -3.088  -3.813   0.504  0.00  0.00    -0.285 N 
ATOM      4  H   UNL     1      -2.499  -4.200  -0.163  0.00  0.00    +0.155 HD
ENDROOT
BRANCH   3   5
ATOM      5  C   UNL     1      -4.411  -4.257   0.611  0.00  0.00    +0.062 A 
ATOM      6  C   UNL     1      -5.410  -3.655  -0.143  0.00  0.00    +0.040 A 
ATOM      7  C   UNL     1      -6.716  -4.096  -0.035  0.00  0.00    +0.020 A 
ATOM      8  C   UNL     1      -7.028  -5.135   0.823  0.00  0.00    -0.048 A 
ATOM      9  C   UNL     1      -6.036  -5.736   1.575  0.00  0.00    +0.020 A 
ATOM     10  C   UNL     1      -4.727  -5.304   1.468  0.00  0.00    +0.040 A 
ATOM     11 BR   UNL     1      -3.370  -6.132   2.492  0.00  0.00    -0.048 Br
ATOM     12  C   UNL     1      -8.453  -5.613   0.938  0.00  0.00    +0.044 C 
ATOM     13 BR   UNL     1      -4.985  -2.234  -1.316  0.00  0.00    -0.048 Br
ENDBRANCH   3   5
BRANCH   1  14
ATOM     14  C   UNL     1      -1.179  -2.451   1.291  0.00  0.00    +0.005 C 
ATOM     15  C   UNL     1      -0.963  -1.410   0.191  0.00  0.00    -0.001 C 
BRANCH  14  16
ATOM     16  N   UNL     1      -0.354  -3.635   1.013  0.00  0.00    +0.387 N 
ATOM     17  H   UNL     1      -0.496  -4.322   1.738  0.00  0.00    -0.089 HD
ATOM     18  H   UNL     1      -0.618  -4.027   0.121  0.00  0.00    -0.089 HD
ATOM     19  H   UNL     1       0.619  -3.368   0.988  0.00  0.00    -0.089 HD
ENDBRANCH  14  16
BRANCH  14  20
ATOM     20  C   UNL     1      -0.778  -1.856   2.642  0.00  0.00    -0.004 C 
BRANCH  20  22
ATOM     21  C   UNL     1       1.098  -0.857   3.955  0.00  0.00    +0.004 C 
ATOM     22  C   UNL     1       0.697  -1.452   2.604  0.00  0.00    -0.004 C 
ENDBRANCH  20  22
ENDBRANCH  14  20
ENDBRANCH   1  14
TORSDOF 5
