REMARK  Name = ZINC10674955
REMARK  8 active torsions:
REMARK  status: ('A' for Active; 'I' for Inactive)
REMARK    1  A    between atoms: C_1  and  O_2
REMARK    2  A    between atoms: O_2  and  C_3
REMARK    3  A    between atoms: C_6  and  N_31
REMARK    4  A    between atoms: C_8  and  C_9
REMARK    5  A    between atoms: N_11  and  C_12
REMARK    6  A    between atoms: C_12  and  C_13
REMARK    7  A    between atoms: C_13  and  N_14
REMARK    8  A    between atoms: C_18  and  C_19
REMARK                            x       y       z     vdW  Elec       q    Type
REMARK                         _______ _______ _______ _____ _____    ______ ____
ROOT
ATOM      1  C   UNL     1      -5.536   4.923   0.316  0.00  0.00    +0.133 C 
ENDROOT
BRANCH   1   2
ATOM      2  N   UNL     1      -5.207   3.496   0.279  0.00  0.00    -0.254 N 
ATOM      3  C   UNL     1      -3.943   3.127   0.162  0.00  0.00    +0.258 C 
ATOM      4  O   UNL     1      -3.043   3.943   0.084  0.00  0.00    -0.269 OA
ATOM      5  C   UNL     1      -3.678   1.675   0.131  0.00  0.00    +0.077 C 
ATOM      6  C   UNL     1      -2.498   1.013   0.019  0.00  0.00    +0.028 C 
ATOM      7  S   UNL     1      -5.338   1.028   0.272  0.00  0.00    -0.061 S 
ATOM      8  C   UNL     1      -6.201   2.589   0.366  0.00  0.00    +0.121 C 
ATOM      9  S   UNL     1      -7.883   2.865   0.520  0.00  0.00    -0.027 S 
BRANCH   6  10
ATOM     10  C   UNL     1      -1.231   1.753   0.091  0.00  0.00    -0.020 A 
ATOM     11  C   UNL     1      -1.086   2.811   0.997  0.00  0.00    +0.012 A 
ATOM     12  C   UNL     1       0.101   3.506   1.057  0.00  0.00    +0.050 A 
ATOM     13  C   UNL     1       1.159   3.159   0.227  0.00  0.00    +0.166 A 
ATOM     14  C   UNL     1       1.024   2.102  -0.675  0.00  0.00    +0.167 A 
ATOM     15  C   UNL     1      -0.163   1.399  -0.742  0.00  0.00    +0.057 A 
ATOM     16  O   UNL     1       2.193   1.967  -1.366  0.00  0.00    -0.453 OA
ATOM     17  C   UNL     1       2.900   3.206  -1.170  0.00  0.00    +0.466 C 
ATOM     18  O   UNL     1       2.412   3.682   0.098  0.00  0.00    -0.453 OA
ENDBRANCH   6  10
ENDBRANCH   1   2
BRANCH   1  19
ATOM     19  C   UNL     1      -5.782   5.427  -1.107  0.00  0.00    +0.124 C 
BRANCH  19  22
ATOM     20  C   UNL     1      -6.369   7.516  -2.216  0.00  0.00    +0.248 C 
ATOM     21  O   UNL     1      -6.328   6.929  -3.280  0.00  0.00    -0.270 OA
ATOM     22  N   UNL     1      -6.111   6.854  -1.070  0.00  0.00    -0.310 N 
ATOM     23  H   UNL     1      -6.143   7.323  -0.222  0.00  0.00    +0.149 HD
BRANCH  20  29
ATOM     24  C   UNL     1      -6.968   9.646  -3.367  0.00  0.00    +0.132 A 
ATOM     25  C   UNL     1      -7.279  10.997  -3.320  0.00  0.00    +0.048 A 
ATOM     26  C   UNL     1      -7.323  11.655  -2.107  0.00  0.00    +0.036 A 
ATOM     27  C   UNL     1      -7.058  10.974  -0.930  0.00  0.00    +0.127 A 
ATOM     28  C   UNL     1      -6.753   9.631  -0.958  0.00  0.00    +0.049 A 
ATOM     29  C   UNL     1      -6.700   8.954  -2.178  0.00  0.00    +0.080 A 
BRANCH  27  30
ATOM     30  N   UNL     1      -7.109  11.692   0.363  0.00  0.00    +0.056 N 
ATOM     31  O   UNL     1      -7.383  12.878   0.392  0.00  0.00    -0.126 OA
ATOM     32  O   UNL     1      -6.876  11.096   1.400  0.00  0.00    -0.126 OA
ENDBRANCH  27  30
BRANCH  24  34
ATOM     33  C   UNL     1      -7.210   9.768  -5.727  0.00  0.00    +0.277 C 
ATOM     34  O   UNL     1      -6.924   8.998  -4.558  0.00  0.00    -0.494 OA
ENDBRANCH  24  34
ENDBRANCH  20  29
ENDBRANCH  19  22
ENDBRANCH   1  19
TORSDOF 7
