REMARK  Name = ZINC67545566
REMARK  9 active torsions:
REMARK  status: ('A' for Active; 'I' for Inactive)
REMARK    1  A    between atoms: C_1  and  C_2
REMARK    2  A    between atoms: N_5  and  C_8
REMARK    3  A    between atoms: C_8  and  C_9
REMARK    4  A    between atoms: C_9  and  C_11
REMARK    5  A    between atoms: C_9  and  O_27
REMARK    6  A    between atoms: C_11  and  N_12
REMARK    7  A    between atoms: N_15  and  C_16
REMARK    8  A    between atoms: C_19  and  O_23
REMARK    9  A    between atoms: O_23  and  C_24
REMARK                            x       y       z     vdW  Elec       q    Type
REMARK                         _______ _______ _______ _____ _____    ______ ____
ROOT
ATOM      1  N   UNL     1       0.477  -6.368   4.068  0.00  0.00    -0.297 N 
ATOM      2  C   UNL     1       0.638  -7.677   4.346  0.00  0.00    +0.304 C 
ATOM      3  O   UNL     1       0.160  -8.518   3.609  0.00  0.00    -0.253 OA
ATOM      4  N   UNL     1       1.328  -8.054   5.441  0.00  0.00    -0.269 N 
ATOM      5  H   UNL     1       0.858  -5.697   4.656  0.00  0.00    +0.150 HD
ATOM      6  H   UNL     1       1.645  -7.386   6.068  0.00  0.00    +0.156 HD
ENDROOT
BRANCH   4   7
ATOM      7  C   UNL     1       1.588  -9.412   5.672  0.00  0.00    +0.038 A 
ATOM      8  C   UNL     1       1.635  -9.898   6.971  0.00  0.00    +0.027 A 
ATOM      9  C   UNL     1       1.891 -11.236   7.200  0.00  0.00    +0.050 A 
ATOM     10  C   UNL     1       2.101 -12.095   6.132  0.00  0.00    +0.162 A 
ATOM     11  C   UNL     1       2.055 -11.610   4.831  0.00  0.00    +0.167 A 
ATOM     12  C   UNL     1       1.793 -10.271   4.602  0.00  0.00    +0.065 A 
ATOM     13  F   UNL     1       2.260 -12.446   3.791  0.00  0.00    -0.202 F 
BRANCH  10  14
ATOM     14  O   UNL     1       2.352 -13.412   6.358  0.00  0.00    -0.431 OA
BRANCH  14  15
ATOM     15  C   UNL     1       2.386 -13.842   7.721  0.00  0.00    +0.541 C 
ATOM     16  F   UNL     1       3.387 -13.145   8.405  0.00  0.00    -0.166 F 
ATOM     17  F   UNL     1       1.147 -13.587   8.320  0.00  0.00    -0.166 F 
ENDBRANCH  14  15
ENDBRANCH  10  14
ENDBRANCH   4   7
BRANCH   1  18
ATOM     18  C   UNL     1      -0.274  -5.958   2.879  0.00  0.00    +0.135 C 
BRANCH  18  19
ATOM     19  C   UNL     1      -0.307  -4.431   2.798  0.00  0.00    +0.115 C 
BRANCH  19  20
ATOM     20  O   UNL     1       1.019  -3.936   2.598  0.00  0.00    -0.392 OA
ATOM     21  H   UNL     1       1.440  -4.255   1.788  0.00  0.00    +0.210 HD
ENDBRANCH  19  20
BRANCH  19  22
ATOM     22  C   UNL     1      -1.194  -4.001   1.627  0.00  0.00    -0.046 C 
BRANCH  22  27
ATOM     23  C   UNL     1      -2.471   1.549   1.344  0.00  0.00    +0.007 C 
ATOM     24  C   UNL     1      -2.574   0.025   1.428  0.00  0.00    -0.018 C 
ATOM     25  C   UNL     1      -1.866  -0.467   2.694  0.00  0.00    -0.016 C 
ATOM     26  C   UNL     1      -1.904  -1.996   2.732  0.00  0.00    -0.078 C 
ATOM     27  N   UNL     1      -1.223  -2.535   1.548  0.00  0.00    +0.381 N 
ATOM     28  C   UNL     1      -1.939  -2.127   0.333  0.00  0.00    -0.078 C 
ATOM     29  C   UNL     1      -1.903  -0.602   0.203  0.00  0.00    -0.016 C 
ATOM     30  H   UNL     1      -0.278  -2.183   1.515  0.00  0.00    -0.082 HD
ENDBRANCH  22  27
ENDBRANCH  19  22
ENDBRANCH  18  19
ENDBRANCH   1  18
TORSDOF 8
