REMARK  Name = ZINC39631124
REMARK  12 active torsions:
REMARK  status: ('A' for Active; 'I' for Inactive)
REMARK    1  A    between atoms: C_1  and  C_2
REMARK    2  A    between atoms: C_5  and  C_8
REMARK    3  A    between atoms: C_12  and  C_21
REMARK    4  A    between atoms: N_23  and  C_24
REMARK    5  A    between atoms: C_24  and  C_26
REMARK    6  A    between atoms: C_24  and  C_27
REMARK    7  A    between atoms: C_27  and  C_28
REMARK    8  A    between atoms: C_28  and  C_29
REMARK    9  A    between atoms: C_29  and  C_30
REMARK   10  A    between atoms: C_30  and  C_31
REMARK   11  A    between atoms: C_30  and  C_32
REMARK   12  A    between atoms: C_30  and  O_33
REMARK                            x       y       z     vdW  Elec       q    Type
REMARK                         _______ _______ _______ _____ _____    ______ ____
ROOT
ATOM      1  C   UNL     1       0.057  -4.258  -0.024  0.00  0.00    +0.247 C 
ATOM      2  O   UNL     1      -0.050  -4.863  -1.073  0.00  0.00    -0.270 OA
ATOM      3  N   UNL     1       0.174  -4.934   1.136  0.00  0.00    -0.296 N 
ATOM      4  C   UNL     1       0.186  -4.383   2.511  0.00  0.00    +0.121 C 
ATOM      5  C   UNL     1      -0.633  -5.395   3.344  0.00  0.00    +0.100 C 
ATOM      6  C   UNL     1      -0.539  -6.715   2.560  0.00  0.00    -0.004 C 
ATOM      7  C   UNL     1       0.314  -6.398   1.324  0.00  0.00    +0.115 C 
ATOM      8  C   UNL     1       0.137  -7.787   3.410  0.00  0.00    -0.010 C 
ATOM      9  C   UNL     1       0.167  -9.105   2.631  0.00  0.00    -0.082 C 
ATOM     10  N   UNL     1      -1.204  -9.510   2.297  0.00  0.00    +0.379 N 
ATOM     11  C   UNL     1      -1.816  -8.518   1.404  0.00  0.00    -0.082 C 
ATOM     12  C   UNL     1      -1.929  -7.175   2.131  0.00  0.00    -0.010 C 
ATOM     13  H   UNL     1      -1.187 -10.408   1.838  0.00  0.00    -0.086 HD
ATOM     14  H   UNL     1      -1.749  -9.579   3.144  0.00  0.00    -0.086 HD
ENDROOT
BRANCH   1  19
ATOM     15  C   UNL     1       0.061   1.497  -0.010  0.00  0.00    +0.044 C 
ATOM     16  C   UNL     1       0.060  -0.010  -0.014  0.00  0.00    -0.050 A 
ATOM     17  C   UNL     1      -0.547  -0.696  -1.051  0.00  0.00    +0.004 A 
ATOM     18  C   UNL     1      -0.551  -2.075  -1.061  0.00  0.00    +0.013 A 
ATOM     19  C   UNL     1       0.058  -2.779  -0.021  0.00  0.00    +0.037 A 
ATOM     20  C   UNL     1       0.669  -2.081   1.023  0.00  0.00    +0.013 A 
ATOM     21  C   UNL     1       0.671  -0.702   1.017  0.00  0.00    +0.004 A 
ENDBRANCH   1  19
BRANCH   5  22
ATOM     22  C   UNL     1      -2.068  -4.947   3.451  0.00  0.00    +0.218 C 
ATOM     23  O   UNL     1      -2.595  -4.374   2.522  0.00  0.00    -0.275 OA
ATOM     24  N   UNL     1      -2.765  -5.183   4.580  0.00  0.00    -0.312 N 
ATOM     25  H   UNL     1      -2.343  -5.641   5.324  0.00  0.00    +0.149 HD
BRANCH  24  26
ATOM     26  C   UNL     1      -4.160  -4.747   4.685  0.00  0.00    +0.070 C 
ATOM     27  C   UNL     1      -4.205  -3.286   5.136  0.00  0.00    +0.028 C 
BRANCH  26  28
ATOM     28  C   UNL     1      -4.891  -5.620   5.707  0.00  0.00    +0.022 C 
BRANCH  28  29
ATOM     29  C   UNL     1      -4.955  -7.060   5.195  0.00  0.00    +0.005 C 
BRANCH  29  30
ATOM     30  C   UNL     1      -5.686  -7.933   6.217  0.00  0.00    +0.034 C 
BRANCH  30  31
ATOM     31  C   UNL     1      -5.749  -9.373   5.705  0.00  0.00    +0.061 C 
ATOM     32  C   UNL     1      -6.588 -10.219   6.666  0.00  0.00    +0.041 C 
ATOM     33  C   UNL     1      -6.390  -9.393   4.316  0.00  0.00    +0.041 C 
BRANCH  31  34
ATOM     34  O   UNL     1      -4.427  -9.910   5.628  0.00  0.00    -0.389 OA
ATOM     35  H   UNL     1      -3.960  -9.928   6.475  0.00  0.00    +0.210 HD
ENDBRANCH  31  34
ENDBRANCH  30  31
ENDBRANCH  29  30
ENDBRANCH  28  29
ENDBRANCH  26  28
ENDBRANCH  24  26
ENDBRANCH   5  22
TORSDOF 8
