REMARK  Name = ZINC06443961
REMARK  16 active torsions:
REMARK  status: ('A' for Active; 'I' for Inactive)
REMARK    1  A    between atoms: C_1  and  C_2
REMARK    2  A    between atoms: C_7  and  N_8
REMARK    3  A    between atoms: N_8  and  C_9
REMARK    4  A    between atoms: C_9  and  C_11
REMARK    5  A    between atoms: C_9  and  C_20
REMARK    6  A    between atoms: C_14  and  N_17
REMARK    7  A    between atoms: N_17  and  C_18
REMARK    8  A    between atoms: N_17  and  C_19
REMARK    9  A    between atoms: N_22  and  C_23
REMARK   10  A    between atoms: C_23  and  C_24
REMARK   11  A    between atoms: C_24  and  C_25
REMARK   12  A    between atoms: C_25  and  C_26
REMARK   13  A    between atoms: C_25  and  C_27
REMARK   14  A    between atoms: C_28  and  C_30
REMARK   15  A    between atoms: C_31  and  N_38
REMARK   16  A    between atoms: C_32  and  C_35
REMARK                            x       y       z     vdW  Elec       q    Type
REMARK                         _______ _______ _______ _____ _____    ______ ____
ROOT
ATOM      1  N   UNL     1      -5.903   2.284   0.192  0.00  0.00    -0.251 N 
ATOM      2  C   UNL     1      -5.244   1.811  -0.884  0.00  0.00    +0.262 C 
ATOM      3  O   UNL     1      -5.865   1.421  -1.856  0.00  0.00    -0.269 OA
ENDROOT
BRANCH   1  10
ATOM      4  C   UNL     1      -5.321   0.410   2.253  0.00  0.00    +0.045 C 
ATOM      5  C   UNL     1      -4.884   1.850   2.338  0.00  0.00    -0.029 A 
ATOM      6  C   UNL     1      -4.176   2.294   3.437  0.00  0.00    +0.005 A 
ATOM      7  C   UNL     1      -3.779   3.616   3.518  0.00  0.00    +0.000 A 
ATOM      8  C   UNL     1      -4.086   4.497   2.498  0.00  0.00    +0.002 A 
ATOM      9  C   UNL     1      -4.790   4.059   1.393  0.00  0.00    +0.024 A 
ATOM     10  C   UNL     1      -5.190   2.731   1.309  0.00  0.00    +0.041 A 
ENDBRANCH   1  10
BRANCH   2  11
ATOM     11  C   UNL     1      -3.780   1.765  -0.884  0.00  0.00    +0.116 A 
ATOM     12  C   UNL     1      -2.909   1.324  -1.881  0.00  0.00    +0.076 A 
ATOM     13  C   UNL     1      -1.569   1.434  -1.507  0.00  0.00    +0.155 A 
ATOM     14  N   UNL     1      -1.270   1.923  -0.324  0.00  0.00    -0.203 NA
ATOM     15  S   UNL     1      -2.636   2.264   0.386  0.00  0.00    +0.019 S 
BRANCH  13  16
ATOM     16  C   UNL     1      -0.501   1.013  -2.431  0.00  0.00    +0.262 C 
ATOM     17  O   UNL     1      -0.785   0.563  -3.525  0.00  0.00    -0.269 OA
ATOM     18  N   UNL     1       0.791   1.133  -2.067  0.00  0.00    -0.324 N 
ATOM     19  H   UNL     1       1.494   0.859  -2.676  0.00  0.00    +0.145 HD
ATOM     20  H   UNL     1       1.018   1.492  -1.195  0.00  0.00    +0.145 HD
ENDBRANCH  13  16
BRANCH  12  21
ATOM     21  N   UNL     1      -3.329   0.827  -3.108  0.00  0.00    -0.355 N 
ATOM     22  H   UNL     1      -2.675   0.532  -3.761  0.00  0.00    +0.142 HD
ATOM     23  H   UNL     1      -4.275   0.775  -3.312  0.00  0.00    +0.142 HD
ENDBRANCH  12  21
ENDBRANCH   2  11
BRANCH   1  24
ATOM     24  C   UNL     1      -7.367   2.330   0.192  0.00  0.00    +0.197 C 
BRANCH  24  25
ATOM     25  C   UNL     1      -7.857   2.755   1.552  0.00  0.00    -0.018 A 
ATOM     26  C   UNL     1      -7.582   4.028   2.018  0.00  0.00    +0.008 A 
ATOM     27  C   UNL     1      -8.034   4.423   3.261  0.00  0.00    +0.023 A 
ATOM     28  C   UNL     1      -8.755   3.536   4.050  0.00  0.00    +0.029 A 
ATOM     29  C   UNL     1      -9.025   2.256   3.582  0.00  0.00    +0.023 A 
ATOM     30  C   UNL     1      -8.575   1.870   2.335  0.00  0.00    +0.008 A 
BRANCH  28  31
ATOM     31  N   UNL     1      -9.209   3.930   5.311  0.00  0.00    -0.336 N 
ATOM     32  C   UNL     1      -9.969   2.994   6.142  0.00  0.00    +0.129 C 
ATOM     33  C   UNL     1      -8.923   5.280   5.803  0.00  0.00    +0.129 C 
ENDBRANCH  28  31
ENDBRANCH  24  25
BRANCH  24  34
ATOM     34  C   UNL     1      -7.839   3.318  -0.843  0.00  0.00    +0.238 C 
ATOM     35  O   UNL     1      -7.031   3.925  -1.515  0.00  0.00    -0.273 OA
ATOM     36  N   UNL     1      -9.158   3.528  -1.023  0.00  0.00    -0.313 N 
ATOM     37  H   UNL     1      -9.804   3.043  -0.485  0.00  0.00    +0.149 HD
BRANCH  36  38
ATOM     38  C   UNL     1      -9.617   4.489  -2.029  0.00  0.00    +0.104 C 
BRANCH  38  39
ATOM     39  C   UNL     1     -11.146   4.537  -2.029  0.00  0.00    +0.022 C 
BRANCH  39  40
ATOM     40  C   UNL     1     -11.624   5.541  -3.080  0.00  0.00    -0.016 C 
ATOM     41  C   UNL     1     -11.235   5.044  -4.474  0.00  0.00    +0.007 C 
ATOM     42  C   UNL     1     -13.146   5.681  -2.995  0.00  0.00    +0.007 C 
ENDBRANCH  39  40
ENDBRANCH  38  39
ENDBRANCH  36  38
ENDBRANCH  24  34
ENDBRANCH   1  24
TORSDOF 11
