REMARK  Name = ZINC20114542
REMARK  11 active torsions:
REMARK  status: ('A' for Active; 'I' for Inactive)
REMARK    1  A    between atoms: C_1  and  C_2
REMARK    2  A    between atoms: C_7  and  O_8
REMARK    3  A    between atoms: O_8  and  C_9
REMARK    4  A    between atoms: C_9  and  C_10
REMARK    5  A    between atoms: C_10  and  O_11
REMARK    6  A    between atoms: O_11  and  C_12
REMARK    7  A    between atoms: C_13  and  O_33
REMARK    8  A    between atoms: C_15  and  C_19
REMARK    9  A    between atoms: C_30  and  S_31
REMARK   10  A    between atoms: S_31  and  C_32
REMARK   11  A    between atoms: O_33  and  C_34
REMARK                            x       y       z     vdW  Elec       q    Type
REMARK                         _______ _______ _______ _____ _____    ______ ____
ROOT
ATOM      1  C   UNL     1      -1.843   2.264   5.432  0.00  0.00    +0.180 A 
ATOM      2  C   UNL     1      -2.154   1.609   6.625  0.00  0.00    +0.164 A 
ATOM      3  C   UNL     1      -2.158   2.307   7.815  0.00  0.00    +0.057 A 
ATOM      4  C   UNL     1      -1.849   3.675   7.823  0.00  0.00    -0.019 A 
ATOM      5  C   UNL     1      -1.538   4.325   6.622  0.00  0.00    +0.032 A 
ATOM      6  C   UNL     1      -1.531   3.619   5.439  0.00  0.00    +0.087 A 
ATOM      7 CL   UNL     1      -1.139   4.424   3.952  0.00  0.00    -0.080 Cl
ENDROOT
BRANCH   4   8
ATOM      8  C   UNL     1      -1.852   4.421   9.084  0.00  0.00    +0.024 C 
ATOM      9  C   UNL     1      -0.920   5.410   9.300  0.00  0.00    +0.079 C 
ATOM     10  C   UNL     1      -0.993   6.317  10.482  0.00  0.00    +0.137 C 
ATOM     11  N   UNL     1      -1.463   5.948  11.643  0.00  0.00    -0.284 NA
ATOM     12  N   UNL     1      -0.504   7.612  10.219  0.00  0.00    -0.211 N 
ATOM     13  C   UNL     1       0.389   7.778   9.179  0.00  0.00    +0.183 C 
ATOM     14  N   UNL     1       0.771   6.858   8.320  0.00  0.00    -0.152 NA
ATOM     15  C   UNL     1       0.219   5.630   8.374  0.00  0.00    +0.273 C 
ATOM     16  O   UNL     1       0.641   4.721   7.677  0.00  0.00    -0.268 OA
ATOM     17  S   UNL     1       0.816   9.385   9.291  0.00  0.00    +0.048 S 
ATOM     18  N   UNL     1      -0.192   9.851  10.547  0.00  0.00    -0.185 NA
ATOM     19  C   UNL     1      -0.806   8.752  10.890  0.00  0.00    +0.175 C 
ATOM     20  H   UNL     1      -1.788   5.043  11.770  0.00  0.00    +0.188 HD
BRANCH  19  21
ATOM     21  S   UNL     1      -1.996   8.748  12.190  0.00  0.00    -0.093 S 
ATOM     22  C   UNL     1      -2.038  10.473  12.751  0.00  0.00    +0.093 C 
ENDBRANCH  19  21
ENDBRANCH   4   8
BRANCH   2  23
ATOM     23  O   UNL     1      -2.454   0.283   6.613  0.00  0.00    -0.491 OA
ATOM     24  C   UNL     1      -2.762  -0.324   7.870  0.00  0.00    +0.277 C 
ENDBRANCH   2  23
BRANCH   1  25
ATOM     25  O   UNL     1      -1.839   1.575   4.263  0.00  0.00    -0.483 OA
BRANCH  25  26
ATOM     26  C   UNL     1      -0.608   0.961   3.875  0.00  0.00    +0.270 C 
BRANCH  26  27
ATOM     27  C   UNL     1      -0.798   0.236   2.541  0.00  0.00    +0.270 C 
BRANCH  27  28
ATOM     28  O   UNL     1      -1.085   1.190   1.516  0.00  0.00    -0.488 OA
BRANCH  28  35
ATOM     29  C   UNL     1      -1.653   3.058  -0.524  0.00  0.00    +0.047 C 
ATOM     30  C   UNL     1      -1.564   1.576  -0.781  0.00  0.00    -0.009 A 
ATOM     31  C   UNL     1      -1.758   1.083  -2.058  0.00  0.00    +0.007 A 
ATOM     32  C   UNL     1      -1.676  -0.276  -2.294  0.00  0.00    +0.000 A 
ATOM     33  C   UNL     1      -1.401  -1.146  -1.255  0.00  0.00    +0.004 A 
ATOM     34  C   UNL     1      -1.206  -0.658   0.022  0.00  0.00    +0.046 A 
ATOM     35  C   UNL     1      -1.282   0.706   0.262  0.00  0.00    +0.124 A 
ENDBRANCH  28  35
ENDBRANCH  27  28
ENDBRANCH  26  27
ENDBRANCH  25  26
ENDBRANCH   1  25
TORSDOF 8
